MODEL 1
REMARK VINA RESULT:    -8.486      0.000      0.000
REMARK INTER + INTRA:         -12.899
REMARK INTER:                 -11.959
REMARK INTRA:                  -0.941
REMARK UNBOUND:                -0.941
REMARK  Name = 
REMARK  9 active torsions:
REMARK  status: ('A' for Active; 'I' for Inactive)
REMARK    1  A    between atoms: C_1  and  C_2
REMARK    2  A    between atoms: C_5  and  C_6
REMARK    3  A    between atoms: N_8  and  C_9
REMARK    4  A    between atoms: C_9  and  C_10
REMARK    5  A    between atoms: C_13  and  C_14
REMARK    6  A    between atoms: C_14  and  N_15
REMARK    7  A    between atoms: N_15  and  C_16
REMARK    8  A    between atoms: C_16  and  C_17
REMARK    9  A    between atoms: C_29  and  C_30
REMARK                            x       y       z     vdW  Elec       q    Type
REMARK                         _______ _______ _______ _____ _____    ______ ____
ROOT
ATOM      1  C   UNL     1      47.968   6.629  13.427  0.00  0.00    +0.000 C 
ENDROOT
BRANCH   1   2
ATOM      2  C   UNL     1      46.864   5.963  12.647  0.00  0.00    +0.000 A 
ATOM      3  C   UNL     1      46.229   4.818  13.149  0.00  0.00    +0.000 A 
ATOM      4  C   UNL     1      45.210   4.189  12.424  0.00  0.00    +0.000 A 
ATOM      5  C   UNL     1      44.805   4.691  11.178  0.00  0.00    +0.000 A 
ATOM      6  C   UNL     1      45.449   5.824  10.670  0.00  0.00    +0.000 A 
ATOM      7  C   UNL     1      46.472   6.453  11.394  0.00  0.00    +0.000 A 
BRANCH   5   8
ATOM      8  C   UNL     1      43.697   4.017  10.394  0.00  0.00    +0.000 C 
BRANCH   8   9
ATOM      9  N   UNL     1      44.156   3.632   9.062  0.00  0.00    +0.000 NA
ATOM     10  H   UNL     1      44.747   4.375   8.690  0.00  0.00    +0.000 HD
BRANCH   9  11
ATOM     11  C   UNL     1      44.917   2.384   9.092  0.00  0.00    +0.000 C 
BRANCH  11  12
ATOM     12  C   UNL     1      45.929   2.351   7.979  0.00  0.00    +0.000 A 
ATOM     13  C   UNL     1      46.095   3.434   7.108  0.00  0.00    +0.000 A 
ATOM     14  C   UNL     1      47.054   3.376   6.104  0.00  0.00    +0.000 A 
ATOM     15  C   UNL     1      47.818   2.226   5.994  0.00  0.00    +0.000 A 
ATOM     16  N   UNL     1      47.681   1.154   6.804  0.00  0.00    +0.000 NA
ATOM     17  C   UNL     1      46.742   1.242   7.774  0.00  0.00    +0.000 A 
ENDBRANCH  11  12
ENDBRANCH   9  11
ENDBRANCH   8   9
ENDBRANCH   5   8
ENDBRANCH   1   2
BRANCH   1  20
ATOM     18  C   UNL     1      49.026   6.393  15.636  0.00  0.00    +0.000 C 
ATOM     19  O   UNL     1      50.094   6.837  15.227  0.00  0.00    +0.000 OA
ATOM     20  N   UNL     1      47.927   6.247  14.821  0.00  0.00    +0.000 N 
ATOM     21  H   UNL     1      47.019   6.132  15.249  0.00  0.00    +0.000 HD
BRANCH  18  26
ATOM     22  C   UNL     1      47.208  10.220  19.535  0.00  0.00    +0.000 C 
ATOM     23  C   UNL     1      47.590   8.771  19.453  0.00  0.00    +0.000 A 
ATOM     24  C   UNL     1      47.981   8.229  18.222  0.00  0.00    +0.000 A 
ATOM     25  C   UNL     1      48.370   6.874  18.138  0.00  0.00    +0.000 A 
ATOM     26  C   UNL     1      48.821   6.033  17.042  0.00  0.00    +0.000 A 
ATOM     27  C   UNL     1      49.021   4.730  17.477  0.00  0.00    +0.000 A 
ATOM     28  S   UNL     1      48.736   4.524  19.146  0.00  0.00    +0.000 S 
ATOM     29  C   UNL     1      48.296   6.157  19.330  0.00  0.00    +0.000 A 
ATOM     30  N   UNL     1      47.919   6.626  20.536  0.00  0.00    +0.000 NA
ATOM     31  C   UNL     1      47.573   7.932  20.570  0.00  0.00    +0.000 A 
ATOM     32  C   UNL     1      47.140   8.453  21.914  0.00  0.00    +0.000 C 
ENDBRANCH  18  26
ENDBRANCH   1  20
TORSDOF 7
ENDMDL
MODEL 2
REMARK VINA RESULT:    -8.150      1.788      2.536
REMARK INTER + INTRA:         -12.426
REMARK INTER:                 -11.189
REMARK INTRA:                  -1.237
REMARK UNBOUND:                -0.941
REMARK  Name = 
REMARK  9 active torsions:
REMARK  status: ('A' for Active; 'I' for Inactive)
REMARK    1  A    between atoms: C_1  and  C_2
REMARK    2  A    between atoms: C_5  and  C_6
REMARK    3  A    between atoms: N_8  and  C_9
REMARK    4  A    between atoms: C_9  and  C_10
REMARK    5  A    between atoms: C_13  and  C_14
REMARK    6  A    between atoms: C_14  and  N_15
REMARK    7  A    between atoms: N_15  and  C_16
REMARK    8  A    between atoms: C_16  and  C_17
REMARK    9  A    between atoms: C_29  and  C_30
REMARK                            x       y       z     vdW  Elec       q    Type
REMARK                         _______ _______ _______ _____ _____    ______ ____
ROOT
ATOM      1  C   UNL     1      47.282   7.543  12.489  0.00  0.00    +0.000 C 
ENDROOT
BRANCH   1   2
ATOM      2  C   UNL     1      46.410   6.382  12.086  0.00  0.00    +0.000 A 
ATOM      3  C   UNL     1      46.291   5.259  12.917  0.00  0.00    +0.000 A 
ATOM      4  C   UNL     1      45.491   4.174  12.543  0.00  0.00    +0.000 A 
ATOM      5  C   UNL     1      44.792   4.186  11.327  0.00  0.00    +0.000 A 
ATOM      6  C   UNL     1      44.922   5.300  10.490  0.00  0.00    +0.000 A 
ATOM      7  C   UNL     1      45.726   6.386  10.863  0.00  0.00    +0.000 A 
BRANCH   5   8
ATOM      8  C   UNL     1      43.918   3.016  10.923  0.00  0.00    +0.000 C 
BRANCH   8   9
ATOM      9  N   UNL     1      44.007   2.766   9.487  0.00  0.00    +0.000 NA
ATOM     10  H   UNL     1      44.395   3.592   9.032  0.00  0.00    +0.000 HD
BRANCH   9  11
ATOM     11  C   UNL     1      44.856   1.613   9.190  0.00  0.00    +0.000 C 
BRANCH  11  12
ATOM     12  C   UNL     1      45.902   1.971   8.168  0.00  0.00    +0.000 A 
ATOM     13  C   UNL     1      45.993   3.262   7.636  0.00  0.00    +0.000 A 
ATOM     14  C   UNL     1      46.985   3.561   6.709  0.00  0.00    +0.000 A 
ATOM     15  C   UNL     1      47.856   2.552   6.334  0.00  0.00    +0.000 A 
ATOM     16  N   UNL     1      47.795   1.291   6.812  0.00  0.00    +0.000 NA
ATOM     17  C   UNL     1      46.821   1.031   7.715  0.00  0.00    +0.000 A 
ENDBRANCH  11  12
ENDBRANCH   9  11
ENDBRANCH   8   9
ENDBRANCH   5   8
ENDBRANCH   1   2
BRANCH   1  20
ATOM     18  C   UNL     1      48.858   7.471  14.377  0.00  0.00    +0.000 C 
ATOM     19  O   UNL     1      49.830   7.437  13.629  0.00  0.00    +0.000 OA
ATOM     20  N   UNL     1      47.565   7.517  13.906  0.00  0.00    +0.000 N 
ATOM     21  H   UNL     1      46.830   7.804  14.536  0.00  0.00    +0.000 HD
BRANCH  18  26
ATOM     22  C   UNL     1      47.924   2.860  17.697  0.00  0.00    +0.000 C 
ATOM     23  C   UNL     1      48.328   4.299  17.833  0.00  0.00    +0.000 A 
ATOM     24  C   UNL     1      48.449   5.093  16.685  0.00  0.00    +0.000 A 
ATOM     25  C   UNL     1      48.802   6.456  16.803  0.00  0.00    +0.000 A 
ATOM     26  C   UNL     1      49.000   7.521  15.835  0.00  0.00    +0.000 A 
ATOM     27  C   UNL     1      49.409   8.686  16.468  0.00  0.00    +0.000 A 
ATOM     28  S   UNL     1      49.503   8.536  18.164  0.00  0.00    +0.000 S 
ATOM     29  C   UNL     1      49.041   6.900  18.101  0.00  0.00    +0.000 A 
ATOM     30  N   UNL     1      48.949   6.177  19.236  0.00  0.00    +0.000 NA
ATOM     31  C   UNL     1      48.591   4.885  19.074  0.00  0.00    +0.000 A 
ATOM     32  C   UNL     1      48.500   4.073  20.339  0.00  0.00    +0.000 C 
ENDBRANCH  18  26
ENDBRANCH   1  20
TORSDOF 7
ENDMDL
MODEL 3
REMARK VINA RESULT:    -7.909      3.916      5.736
REMARK INTER + INTRA:         -12.086
REMARK INTER:                 -10.763
REMARK INTRA:                  -1.322
REMARK UNBOUND:                -0.941
REMARK  Name = 
REMARK  9 active torsions:
REMARK  status: ('A' for Active; 'I' for Inactive)
REMARK    1  A    between atoms: C_1  and  C_2
REMARK    2  A    between atoms: C_5  and  C_6
REMARK    3  A    between atoms: N_8  and  C_9
REMARK    4  A    between atoms: C_9  and  C_10
REMARK    5  A    between atoms: C_13  and  C_14
REMARK    6  A    between atoms: C_14  and  N_15
REMARK    7  A    between atoms: N_15  and  C_16
REMARK    8  A    between atoms: C_16  and  C_17
REMARK    9  A    between atoms: C_29  and  C_30
REMARK                            x       y       z     vdW  Elec       q    Type
REMARK                         _______ _______ _______ _____ _____    ______ ____
ROOT
ATOM      1  C   UNL     1      47.544   6.004  14.311  0.00  0.00    +0.000 C 
ENDROOT
BRANCH   1   2
ATOM      2  C   UNL     1      46.492   5.222  13.566  0.00  0.00    +0.000 A 
ATOM      3  C   UNL     1      45.307   5.843  13.147  0.00  0.00    +0.000 A 
ATOM      4  C   UNL     1      44.323   5.119  12.465  0.00  0.00    +0.000 A 
ATOM      5  C   UNL     1      44.501   3.755  12.188  0.00  0.00    +0.000 A 
ATOM      6  C   UNL     1      45.677   3.132  12.619  0.00  0.00    +0.000 A 
ATOM      7  C   UNL     1      46.662   3.856  13.306  0.00  0.00    +0.000 A 
BRANCH   5   8
ATOM      8  C   UNL     1      43.442   2.971  11.442  0.00  0.00    +0.000 C 
BRANCH   8   9
ATOM      9  N   UNL     1      44.012   2.290  10.282  0.00  0.00    +0.000 NA
ATOM     10  H   UNL     1      43.327   1.628   9.919  0.00  0.00    +0.000 HD
BRANCH   9  11
ATOM     11  C   UNL     1      44.374   3.233   9.225  0.00  0.00    +0.000 C 
BRANCH  11  12
ATOM     12  C   UNL     1      45.524   2.706   8.411  0.00  0.00    +0.000 A 
ATOM     13  C   UNL     1      45.845   1.344   8.395  0.00  0.00    +0.000 A 
ATOM     14  C   UNL     1      46.903   0.890   7.615  0.00  0.00    +0.000 A 
ATOM     15  C   UNL     1      47.618   1.818   6.877  0.00  0.00    +0.000 A 
ATOM     16  N   UNL     1      47.351   3.142   6.876  0.00  0.00    +0.000 NA
ATOM     17  C   UNL     1      46.314   3.553   7.641  0.00  0.00    +0.000 A 
ENDBRANCH  11  12
ENDBRANCH   9  11
ENDBRANCH   8   9
ENDBRANCH   5   8
ENDBRANCH   1   2
BRANCH   1  20
ATOM     18  C   UNL     1      48.256   7.944  12.976  0.00  0.00    +0.000 C 
ATOM     19  O   UNL     1      49.044   7.268  12.322  0.00  0.00    +0.000 OA
ATOM     20  N   UNL     1      47.481   7.410  13.980  0.00  0.00    +0.000 N 
ATOM     21  H   UNL     1      46.679   7.932  14.303  0.00  0.00    +0.000 HD
BRANCH  18  26
ATOM     22  C   UNL     1      43.263   9.925  10.902  0.00  0.00    +0.000 C 
ATOM     23  C   UNL     1      44.607  10.442  11.324  0.00  0.00    +0.000 A 
ATOM     24  C   UNL     1      45.571   9.547  11.807  0.00  0.00    +0.000 A 
ATOM     25  C   UNL     1      46.848  10.019  12.182  0.00  0.00    +0.000 A 
ATOM     26  C   UNL     1      48.038   9.367  12.701  0.00  0.00    +0.000 A 
ATOM     27  C   UNL     1      49.028  10.302  12.973  0.00  0.00    +0.000 A 
ATOM     28  S   UNL     1      48.578  11.897  12.574  0.00  0.00    +0.000 S 
ATOM     29  C   UNL     1      47.034  11.394  12.065  0.00  0.00    +0.000 A 
ATOM     30  N   UNL     1      46.140  12.299  11.617  0.00  0.00    +0.000 NA
ATOM     31  C   UNL     1      44.939  11.798  11.254  0.00  0.00    +0.000 A 
ATOM     32  C   UNL     1      43.935  12.809  10.766  0.00  0.00    +0.000 C 
ENDBRANCH  18  26
ENDBRANCH   1  20
TORSDOF 7
ENDMDL
MODEL 4
REMARK VINA RESULT:    -7.740      4.283      6.844
REMARK INTER + INTRA:         -11.848
REMARK INTER:                 -10.799
REMARK INTRA:                  -1.049
REMARK UNBOUND:                -0.941
REMARK  Name = 
REMARK  9 active torsions:
REMARK  status: ('A' for Active; 'I' for Inactive)
REMARK    1  A    between atoms: C_1  and  C_2
REMARK    2  A    between atoms: C_5  and  C_6
REMARK    3  A    between atoms: N_8  and  C_9
REMARK    4  A    between atoms: C_9  and  C_10
REMARK    5  A    between atoms: C_13  and  C_14
REMARK    6  A    between atoms: C_14  and  N_15
REMARK    7  A    between atoms: N_15  and  C_16
REMARK    8  A    between atoms: C_16  and  C_17
REMARK    9  A    between atoms: C_29  and  C_30
REMARK                            x       y       z     vdW  Elec       q    Type
REMARK                         _______ _______ _______ _____ _____    ______ ____
ROOT
ATOM      1  C   UNL     1      48.139   6.485  13.408  0.00  0.00    +0.000 C 
ENDROOT
BRANCH   1   2
ATOM      2  C   UNL     1      46.956   5.863  12.711  0.00  0.00    +0.000 A 
ATOM      3  C   UNL     1      46.291   4.767  13.279  0.00  0.00    +0.000 A 
ATOM      4  C   UNL     1      45.199   4.179  12.631  0.00  0.00    +0.000 A 
ATOM      5  C   UNL     1      44.749   4.673  11.398  0.00  0.00    +0.000 A 
ATOM      6  C   UNL     1      45.422   5.757  10.823  0.00  0.00    +0.000 A 
ATOM      7  C   UNL     1      46.517   6.345  11.471  0.00  0.00    +0.000 A 
BRANCH   5   8
ATOM      8  C   UNL     1      43.562   4.044  10.697  0.00  0.00    +0.000 C 
BRANCH   8   9
ATOM      9  N   UNL     1      43.936   3.543   9.378  0.00  0.00    +0.000 NA
ATOM     10  H   UNL     1      44.410   4.286   8.865  0.00  0.00    +0.000 HD
BRANCH   9  11
ATOM     11  C   UNL     1      44.824   2.385   9.471  0.00  0.00    +0.000 C 
BRANCH  11  12
ATOM     12  C   UNL     1      45.755   2.330   8.290  0.00  0.00    +0.000 A 
ATOM     13  C   UNL     1      45.945   3.439   7.457  0.00  0.00    +0.000 A 
ATOM     14  C   UNL     1      46.829   3.358   6.388  0.00  0.00    +0.000 A 
ATOM     15  C   UNL     1      47.494   2.162   6.175  0.00  0.00    +0.000 A 
ATOM     16  N   UNL     1      47.328   1.065   6.945  0.00  0.00    +0.000 NA
ATOM     17  C   UNL     1      46.465   1.175   7.981  0.00  0.00    +0.000 A 
ENDBRANCH  11  12
ENDBRANCH   9  11
ENDBRANCH   8   9
ENDBRANCH   5   8
ENDBRANCH   1   2
BRANCH   1  20
ATOM     18  C   UNL     1      50.004   8.015  12.924  0.00  0.00    +0.000 C 
ATOM     19  O   UNL     1      50.525   7.805  14.014  0.00  0.00    +0.000 OA
ATOM     20  N   UNL     1      48.825   7.417  12.541  0.00  0.00    +0.000 N 
ATOM     21  H   UNL     1      48.579   7.414  11.561  0.00  0.00    +0.000 HD
BRANCH  18  26
ATOM     22  C   UNL     1      53.406   5.924   8.775  0.00  0.00    +0.000 C 
ATOM     23  C   UNL     1      52.854   7.240   9.241  0.00  0.00    +0.000 A 
ATOM     24  C   UNL     1      52.004   7.277  10.355  0.00  0.00    +0.000 A 
ATOM     25  C   UNL     1      51.501   8.512  10.818  0.00  0.00    +0.000 A 
ATOM     26  C   UNL     1      50.626   8.882  11.918  0.00  0.00    +0.000 A 
ATOM     27  C   UNL     1      50.380  10.247  11.908  0.00  0.00    +0.000 A 
ATOM     28  S   UNL     1      51.205  11.073  10.665  0.00  0.00    +0.000 S 
ATOM     29  C   UNL     1      51.882   9.628  10.077  0.00  0.00    +0.000 A 
ATOM     30  N   UNL     1      52.686   9.647   8.995  0.00  0.00    +0.000 NA
ATOM     31  C   UNL     1      53.157   8.444   8.600  0.00  0.00    +0.000 A 
ATOM     32  C   UNL     1      54.046   8.462   7.385  0.00  0.00    +0.000 C 
ENDBRANCH  18  26
ENDBRANCH   1  20
TORSDOF 7
ENDMDL
MODEL 5
REMARK VINA RESULT:    -7.579      1.768      2.398
REMARK INTER + INTRA:         -11.621
REMARK INTER:                 -10.833
REMARK INTRA:                  -0.788
REMARK UNBOUND:                -0.941
REMARK  Name = 
REMARK  9 active torsions:
REMARK  status: ('A' for Active; 'I' for Inactive)
REMARK    1  A    between atoms: C_1  and  C_2
REMARK    2  A    between atoms: C_5  and  C_6
REMARK    3  A    between atoms: N_8  and  C_9
REMARK    4  A    between atoms: C_9  and  C_10
REMARK    5  A    between atoms: C_13  and  C_14
REMARK    6  A    between atoms: C_14  and  N_15
REMARK    7  A    between atoms: N_15  and  C_16
REMARK    8  A    between atoms: C_16  and  C_17
REMARK    9  A    between atoms: C_29  and  C_30
REMARK                            x       y       z     vdW  Elec       q    Type
REMARK                         _______ _______ _______ _____ _____    ______ ____
ROOT
ATOM      1  C   UNL     1      47.403   3.822  15.035  0.00  0.00    +0.000 C 
ENDROOT
BRANCH   1   2
ATOM      2  C   UNL     1      46.777   4.386  13.785  0.00  0.00    +0.000 A 
ATOM      3  C   UNL     1      45.778   3.675  13.106  0.00  0.00    +0.000 A 
ATOM      4  C   UNL     1      45.201   4.190  11.939  0.00  0.00    +0.000 A 
ATOM      5  C   UNL     1      45.612   5.429  11.425  0.00  0.00    +0.000 A 
ATOM      6  C   UNL     1      46.619   6.132  12.095  0.00  0.00    +0.000 A 
ATOM      7  C   UNL     1      47.199   5.616  13.262  0.00  0.00    +0.000 A 
BRANCH   5   8
ATOM      8  C   UNL     1      44.983   5.993  10.167  0.00  0.00    +0.000 C 
BRANCH   8   9
ATOM      9  N   UNL     1      45.513   5.335   8.976  0.00  0.00    +0.000 NA
ATOM     10  H   UNL     1      46.489   5.092   9.140  0.00  0.00    +0.000 HD
BRANCH   9  11
ATOM     11  C   UNL     1      44.766   4.122   8.650  0.00  0.00    +0.000 C 
BRANCH  11  12
ATOM     12  C   UNL     1      45.680   3.069   8.083  0.00  0.00    +0.000 A 
ATOM     13  C   UNL     1      46.625   3.375   7.098  0.00  0.00    +0.000 A 
ATOM     14  C   UNL     1      47.467   2.380   6.612  0.00  0.00    +0.000 A 
ATOM     15  C   UNL     1      47.331   1.100   7.123  0.00  0.00    +0.000 A 
ATOM     16  N   UNL     1      46.423   0.760   8.063  0.00  0.00    +0.000 NA
ATOM     17  C   UNL     1      45.621   1.750   8.519  0.00  0.00    +0.000 A 
ENDBRANCH  11  12
ENDBRANCH   9  11
ENDBRANCH   8   9
ENDBRANCH   5   8
ENDBRANCH   1   2
BRANCH   1  20
ATOM     18  C   UNL     1      48.505   4.893  16.956  0.00  0.00    +0.000 C 
ATOM     19  O   UNL     1      49.470   4.138  16.887  0.00  0.00    +0.000 OA
ATOM     20  N   UNL     1      47.437   4.807  16.093  0.00  0.00    +0.000 N 
ATOM     21  H   UNL     1      46.808   5.594  16.021  0.00  0.00    +0.000 HD
BRANCH  18  26
ATOM     22  C   UNL     1      49.042  10.414  15.413  0.00  0.00    +0.000 C 
ATOM     23  C   UNL     1      48.819   9.593  16.649  0.00  0.00    +0.000 A 
ATOM     24  C   UNL     1      48.738   8.198  16.547  0.00  0.00    +0.000 A 
ATOM     25  C   UNL     1      48.556   7.413  17.707  0.00  0.00    +0.000 A 
ATOM     26  C   UNL     1      48.440   5.983  17.934  0.00  0.00    +0.000 A 
ATOM     27  C   UNL     1      48.203   5.720  19.276  0.00  0.00    +0.000 A 
ATOM     28  S   UNL     1      48.173   7.123  20.244  0.00  0.00    +0.000 S 
ATOM     29  C   UNL     1      48.434   8.127  18.896  0.00  0.00    +0.000 A 
ATOM     30  N   UNL     1      48.493   9.465  19.049  0.00  0.00    +0.000 NA
ATOM     31  C   UNL     1      48.686  10.172  17.914  0.00  0.00    +0.000 A 
ATOM     32  C   UNL     1      48.741  11.667  18.083  0.00  0.00    +0.000 C 
ENDBRANCH  18  26
ENDBRANCH   1  20
TORSDOF 7
ENDMDL
MODEL 6
REMARK VINA RESULT:    -7.464      1.865      2.932
REMARK INTER + INTRA:         -11.459
REMARK INTER:                 -10.759
REMARK INTRA:                  -0.700
REMARK UNBOUND:                -0.941
REMARK  Name = 
REMARK  9 active torsions:
REMARK  status: ('A' for Active; 'I' for Inactive)
REMARK    1  A    between atoms: C_1  and  C_2
REMARK    2  A    between atoms: C_5  and  C_6
REMARK    3  A    between atoms: N_8  and  C_9
REMARK    4  A    between atoms: C_9  and  C_10
REMARK    5  A    between atoms: C_13  and  C_14
REMARK    6  A    between atoms: C_14  and  N_15
REMARK    7  A    between atoms: N_15  and  C_16
REMARK    8  A    between atoms: C_16  and  C_17
REMARK    9  A    between atoms: C_29  and  C_30
REMARK                            x       y       z     vdW  Elec       q    Type
REMARK                         _______ _______ _______ _____ _____    ______ ____
ROOT
ATOM      1  C   UNL     1      47.451   9.318  13.514  0.00  0.00    +0.000 C 
ENDROOT
BRANCH   1   2
ATOM      2  C   UNL     1      46.700   8.280  12.721  0.00  0.00    +0.000 A 
ATOM      3  C   UNL     1      45.420   8.555  12.221  0.00  0.00    +0.000 A 
ATOM      4  C   UNL     1      44.714   7.590  11.493  0.00  0.00    +0.000 A 
ATOM      5  C   UNL     1      45.273   6.327  11.250  0.00  0.00    +0.000 A 
ATOM      6  C   UNL     1      46.545   6.047  11.762  0.00  0.00    +0.000 A 
ATOM      7  C   UNL     1      47.251   7.011  12.494  0.00  0.00    +0.000 A 
BRANCH   5   8
ATOM      8  C   UNL     1      44.515   5.283  10.455  0.00  0.00    +0.000 C 
BRANCH   8   9
ATOM      9  N   UNL     1      45.096   5.113   9.125  0.00  0.00    +0.000 NA
ATOM     10  H   UNL     1      46.099   4.962   9.221  0.00  0.00    +0.000 HD
BRANCH   9  11
ATOM     11  C   UNL     1      44.506   3.977   8.419  0.00  0.00    +0.000 C 
BRANCH  11  12
ATOM     12  C   UNL     1      45.576   3.031   7.944  0.00  0.00    +0.000 A 
ATOM     13  C   UNL     1      46.554   3.434   7.028  0.00  0.00    +0.000 A 
ATOM     14  C   UNL     1      47.539   2.539   6.627  0.00  0.00    +0.000 A 
ATOM     15  C   UNL     1      47.511   1.257   7.151  0.00  0.00    +0.000 A 
ATOM     16  N   UNL     1      46.578   0.824   8.025  0.00  0.00    +0.000 NA
ATOM     17  C   UNL     1      45.635   1.719   8.399  0.00  0.00    +0.000 A 
ENDBRANCH  11  12
ENDBRANCH   9  11
ENDBRANCH   8   9
ENDBRANCH   5   8
ENDBRANCH   1   2
BRANCH   1  20
ATOM     18  C   UNL     1      48.447   9.492  15.758  0.00  0.00    +0.000 C 
ATOM     19  O   UNL     1      49.331  10.246  15.362  0.00  0.00    +0.000 OA
ATOM     20  N   UNL     1      47.483   8.979  14.920  0.00  0.00    +0.000 N 
ATOM     21  H   UNL     1      46.646   8.588  15.327  0.00  0.00    +0.000 HD
BRANCH  18  26
ATOM     22  C   UNL     1      49.250   4.090  17.584  0.00  0.00    +0.000 C 
ATOM     23  C   UNL     1      48.912   5.443  18.140  0.00  0.00    +0.000 A 
ATOM     24  C   UNL     1      48.830   6.543  17.277  0.00  0.00    +0.000 A 
ATOM     25  C   UNL     1      48.486   7.816  17.785  0.00  0.00    +0.000 A 
ATOM     26  C   UNL     1      48.317   9.121  17.170  0.00  0.00    +0.000 A 
ATOM     27  C   UNL     1      48.032  10.080  18.132  0.00  0.00    +0.000 A 
ATOM     28  S   UNL     1      47.916   9.442  19.708  0.00  0.00    +0.000 S 
ATOM     29  C   UNL     1      48.283   7.873  19.161  0.00  0.00    +0.000 A 
ATOM     30  N   UNL     1      48.358   6.850  20.036  0.00  0.00    +0.000 NA
ATOM     31  C   UNL     1      48.673   5.650  19.501  0.00  0.00    +0.000 A 
ATOM     32  C   UNL     1      48.770   4.509  20.479  0.00  0.00    +0.000 C 
ENDBRANCH  18  26
ENDBRANCH   1  20
TORSDOF 7
ENDMDL
MODEL 7
REMARK VINA RESULT:    -7.137      1.869      2.821
REMARK INTER + INTRA:         -10.998
REMARK INTER:                 -10.270
REMARK INTRA:                  -0.728
REMARK UNBOUND:                -0.941
REMARK  Name = 
REMARK  9 active torsions:
REMARK  status: ('A' for Active; 'I' for Inactive)
REMARK    1  A    between atoms: C_1  and  C_2
REMARK    2  A    between atoms: C_5  and  C_6
REMARK    3  A    between atoms: N_8  and  C_9
REMARK    4  A    between atoms: C_9  and  C_10
REMARK    5  A    between atoms: C_13  and  C_14
REMARK    6  A    between atoms: C_14  and  N_15
REMARK    7  A    between atoms: N_15  and  C_16
REMARK    8  A    between atoms: C_16  and  C_17
REMARK    9  A    between atoms: C_29  and  C_30
REMARK                            x       y       z     vdW  Elec       q    Type
REMARK                         _______ _______ _______ _____ _____    ______ ____
ROOT
ATOM      1  C   UNL     1      48.319   7.855  14.133  0.00  0.00    +0.000 C 
ENDROOT
BRANCH   1   2
ATOM      2  C   UNL     1      47.508   6.703  13.596  0.00  0.00    +0.000 A 
ATOM      3  C   UNL     1      47.445   5.490  14.295  0.00  0.00    +0.000 A 
ATOM      4  C   UNL     1      46.703   4.414  13.795  0.00  0.00    +0.000 A 
ATOM      5  C   UNL     1      46.008   4.527  12.582  0.00  0.00    +0.000 A 
ATOM      6  C   UNL     1      46.083   5.733  11.876  0.00  0.00    +0.000 A 
ATOM      7  C   UNL     1      46.829   6.810  12.375  0.00  0.00    +0.000 A 
BRANCH   5   8
ATOM      8  C   UNL     1      45.196   3.367  12.042  0.00  0.00    +0.000 C 
BRANCH   8   9
ATOM      9  N   UNL     1      44.230   3.821  11.045  0.00  0.00    +0.000 NA
ATOM     10  H   UNL     1      44.577   4.679  10.617  0.00  0.00    +0.000 HD
BRANCH   9  11
ATOM     11  C   UNL     1      44.016   2.819  10.003  0.00  0.00    +0.000 C 
BRANCH  11  12
ATOM     12  C   UNL     1      45.105   2.887   8.966  0.00  0.00    +0.000 A 
ATOM     13  C   UNL     1      45.786   1.740   8.545  0.00  0.00    +0.000 A 
ATOM     14  C   UNL     1      46.772   1.839   7.570  0.00  0.00    +0.000 A 
ATOM     15  C   UNL     1      47.055   3.090   7.048  0.00  0.00    +0.000 A 
ATOM     16  N   UNL     1      46.431   4.223   7.436  0.00  0.00    +0.000 NA
ATOM     17  C   UNL     1      45.474   4.095   8.384  0.00  0.00    +0.000 A 
ENDBRANCH  11  12
ENDBRANCH   9  11
ENDBRANCH   8   9
ENDBRANCH   5   8
ENDBRANCH   1   2
BRANCH   1  20
ATOM     18  C   UNL     1      48.268   9.227  16.175  0.00  0.00    +0.000 C 
ATOM     19  O   UNL     1      48.563  10.246  15.557  0.00  0.00    +0.000 OA
ATOM     20  N   UNL     1      48.133   8.004  15.559  0.00  0.00    +0.000 N 
ATOM     21  H   UNL     1      47.644   7.267  16.047  0.00  0.00    +0.000 HD
BRANCH  18  26
ATOM     22  C   UNL     1      48.447   4.449  19.384  0.00  0.00    +0.000 C 
ATOM     23  C   UNL     1      48.176   5.917  19.540  0.00  0.00    +0.000 A 
ATOM     24  C   UNL     1      48.264   6.758  18.422  0.00  0.00    +0.000 A 
ATOM     25  C   UNL     1      47.985   8.137  18.552  0.00  0.00    +0.000 A 
ATOM     26  C   UNL     1      47.981   9.245  17.612  0.00  0.00    +0.000 A 
ATOM     27  C   UNL     1      47.693  10.436  18.263  0.00  0.00    +0.000 A 
ATOM     28  S   UNL     1      47.383  10.237  19.929  0.00  0.00    +0.000 S 
ATOM     29  C   UNL     1      47.665   8.562  19.838  0.00  0.00    +0.000 A 
ATOM     30  N   UNL     1      47.575   7.799  20.947  0.00  0.00    +0.000 NA
ATOM     31  C   UNL     1      47.835   6.485  20.770  0.00  0.00    +0.000 A 
ATOM     32  C   UNL     1      47.748   5.634  22.009  0.00  0.00    +0.000 C 
ENDBRANCH  18  26
ENDBRANCH   1  20
TORSDOF 7
ENDMDL
MODEL 8
REMARK VINA RESULT:    -6.773      2.414      3.080
REMARK INTER + INTRA:         -10.486
REMARK INTER:                  -9.579
REMARK INTRA:                  -0.906
REMARK UNBOUND:                -0.941
REMARK  Name = 
REMARK  9 active torsions:
REMARK  status: ('A' for Active; 'I' for Inactive)
REMARK    1  A    between atoms: C_1  and  C_2
REMARK    2  A    between atoms: C_5  and  C_6
REMARK    3  A    between atoms: N_8  and  C_9
REMARK    4  A    between atoms: C_9  and  C_10
REMARK    5  A    between atoms: C_13  and  C_14
REMARK    6  A    between atoms: C_14  and  N_15
REMARK    7  A    between atoms: N_15  and  C_16
REMARK    8  A    between atoms: C_16  and  C_17
REMARK    9  A    between atoms: C_29  and  C_30
REMARK                            x       y       z     vdW  Elec       q    Type
REMARK                         _______ _______ _______ _____ _____    ______ ____
ROOT
ATOM      1  C   UNL     1      48.091   9.289  12.718  0.00  0.00    +0.000 C 
ENDROOT
BRANCH   1   2
ATOM      2  C   UNL     1      47.039   8.315  12.249  0.00  0.00    +0.000 A 
ATOM      3  C   UNL     1      47.394   7.012  11.874  0.00  0.00    +0.000 A 
ATOM      4  C   UNL     1      46.423   6.107  11.428  0.00  0.00    +0.000 A 
ATOM      5  C   UNL     1      45.075   6.487  11.347  0.00  0.00    +0.000 A 
ATOM      6  C   UNL     1      44.724   7.792  11.708  0.00  0.00    +0.000 A 
ATOM      7  C   UNL     1      45.696   8.700  12.151  0.00  0.00    +0.000 A 
BRANCH   5   8
ATOM      8  C   UNL     1      44.021   5.507  10.873  0.00  0.00    +0.000 C 
BRANCH   8   9
ATOM      9  N   UNL     1      44.492   4.130  10.996  0.00  0.00    +0.000 NA
ATOM     10  H   UNL     1      44.135   3.736  11.866  0.00  0.00    +0.000 HD
BRANCH   9  11
ATOM     11  C   UNL     1      44.043   3.303   9.877  0.00  0.00    +0.000 C 
BRANCH  11  12
ATOM     12  C   UNL     1      45.151   3.110   8.878  0.00  0.00    +0.000 A 
ATOM     13  C   UNL     1      45.682   1.843   8.611  0.00  0.00    +0.000 A 
ATOM     14  C   UNL     1      46.692   1.699   7.667  0.00  0.00    +0.000 A 
ATOM     15  C   UNL     1      47.151   2.835   7.021  0.00  0.00    +0.000 A 
ATOM     16  N   UNL     1      46.677   4.077   7.260  0.00  0.00    +0.000 NA
ATOM     17  C   UNL     1      45.692   4.184   8.181  0.00  0.00    +0.000 A 
ENDBRANCH  11  12
ENDBRANCH   9  11
ENDBRANCH   8   9
ENDBRANCH   5   8
ENDBRANCH   1   2
BRANCH   1  20
ATOM     18  C   UNL     1      49.861   8.281  14.097  0.00  0.00    +0.000 C 
ATOM     19  O   UNL     1      50.549   8.024  13.115  0.00  0.00    +0.000 OA
ATOM     20  N   UNL     1      48.633   8.896  13.999  0.00  0.00    +0.000 N 
ATOM     21  H   UNL     1      48.233   9.315  14.826  0.00  0.00    +0.000 HD
BRANCH  18  26
ATOM     22  C   UNL     1      47.296   4.353  17.437  0.00  0.00    +0.000 C 
ATOM     23  C   UNL     1      48.441   5.322  17.490  0.00  0.00    +0.000 A 
ATOM     24  C   UNL     1      48.726   6.117  16.372  0.00  0.00    +0.000 A 
ATOM     25  C   UNL     1      49.784   7.051  16.421  0.00  0.00    +0.000 A 
ATOM     26  C   UNL     1      50.318   8.002  15.462  0.00  0.00    +0.000 A 
ATOM     27  C   UNL     1      51.425   8.656  15.986  0.00  0.00    +0.000 A 
ATOM     28  S   UNL     1      51.786   8.194  17.587  0.00  0.00    +0.000 S 
ATOM     29  C   UNL     1      50.502   7.078  17.615  0.00  0.00    +0.000 A 
ATOM     30  N   UNL     1      50.276   6.331  18.714  0.00  0.00    +0.000 NA
ATOM     31  C   UNL     1      49.244   5.464  18.625  0.00  0.00    +0.000 A 
ATOM     32  C   UNL     1      48.999   4.620  19.848  0.00  0.00    +0.000 C 
ENDBRANCH  18  26
ENDBRANCH   1  20
TORSDOF 7
ENDMDL
MODEL 9
REMARK VINA RESULT:    -6.555      3.240      9.442
REMARK INTER + INTRA:         -10.178
REMARK INTER:                  -8.906
REMARK INTRA:                  -1.271
REMARK UNBOUND:                -0.941
REMARK  Name = 
REMARK  9 active torsions:
REMARK  status: ('A' for Active; 'I' for Inactive)
REMARK    1  A    between atoms: C_1  and  C_2
REMARK    2  A    between atoms: C_5  and  C_6
REMARK    3  A    between atoms: N_8  and  C_9
REMARK    4  A    between atoms: C_9  and  C_10
REMARK    5  A    between atoms: C_13  and  C_14
REMARK    6  A    between atoms: C_14  and  N_15
REMARK    7  A    between atoms: N_15  and  C_16
REMARK    8  A    between atoms: C_16  and  C_17
REMARK    9  A    between atoms: C_29  and  C_30
REMARK                            x       y       z     vdW  Elec       q    Type
REMARK                         _______ _______ _______ _____ _____    ______ ____
ROOT
ATOM      1  C   UNL     1      46.864   8.752  13.279  0.00  0.00    +0.000 C 
ENDROOT
BRANCH   1   2
ATOM      2  C   UNL     1      48.059   8.579  14.183  0.00  0.00    +0.000 A 
ATOM      3  C   UNL     1      49.133   7.767  13.795  0.00  0.00    +0.000 A 
ATOM      4  C   UNL     1      50.239   7.595  14.635  0.00  0.00    +0.000 A 
ATOM      5  C   UNL     1      50.295   8.232  15.884  0.00  0.00    +0.000 A 
ATOM      6  C   UNL     1      49.216   9.031  16.277  0.00  0.00    +0.000 A 
ATOM      7  C   UNL     1      48.106   9.201  15.438  0.00  0.00    +0.000 A 
BRANCH   5   8
ATOM      8  C   UNL     1      51.495   8.055  16.792  0.00  0.00    +0.000 C 
BRANCH   8   9
ATOM      9  N   UNL     1      51.210   7.095  17.856  0.00  0.00    +0.000 NA
ATOM     10  H   UNL     1      50.215   7.127  18.071  0.00  0.00    +0.000 HD
BRANCH   9  11
ATOM     11  C   UNL     1      51.571   5.733  17.466  0.00  0.00    +0.000 C 
BRANCH  11  12
ATOM     12  C   UNL     1      50.360   4.840  17.465  0.00  0.00    +0.000 A 
ATOM     13  C   UNL     1      49.064   5.367  17.435  0.00  0.00    +0.000 A 
ATOM     14  C   UNL     1      47.969   4.510  17.415  0.00  0.00    +0.000 A 
ATOM     15  C   UNL     1      48.203   3.146  17.434  0.00  0.00    +0.000 A 
ATOM     16  N   UNL     1      49.436   2.597  17.477  0.00  0.00    +0.000 NA
ATOM     17  C   UNL     1      50.482   3.455  17.492  0.00  0.00    +0.000 A 
ENDBRANCH  11  12
ENDBRANCH   9  11
ENDBRANCH   8   9
ENDBRANCH   5   8
ENDBRANCH   1   2
BRANCH   1  20
ATOM     18  C   UNL     1      45.169   7.370  12.152  0.00  0.00    +0.000 C 
ATOM     19  O   UNL     1      44.809   8.304  11.442  0.00  0.00    +0.000 OA
ATOM     20  N   UNL     1      46.168   7.499  13.089  0.00  0.00    +0.000 N 
ATOM     21  H   UNL     1      46.601   6.662  13.454  0.00  0.00    +0.000 HD
BRANCH  18  26
ATOM     22  C   UNL     1      46.276   4.024   7.598  0.00  0.00    +0.000 C 
ATOM     23  C   UNL     1      45.499   3.982   8.881  0.00  0.00    +0.000 A 
ATOM     24  C   UNL     1      45.529   5.085   9.744  0.00  0.00    +0.000 A 
ATOM     25  C   UNL     1      44.781   5.067  10.941  0.00  0.00    +0.000 A 
ATOM     26  C   UNL     1      44.600   6.026  12.018  0.00  0.00    +0.000 A 
ATOM     27  C   UNL     1      43.797   5.493  13.016  0.00  0.00    +0.000 A 
ATOM     28  S   UNL     1      43.232   3.924  12.663  0.00  0.00    +0.000 S 
ATOM     29  C   UNL     1      44.074   3.892  11.185  0.00  0.00    +0.000 A 
ATOM     30  N   UNL     1      44.018   2.801  10.396  0.00  0.00    +0.000 NA
ATOM     31  C   UNL     1      44.736   2.872   9.254  0.00  0.00    +0.000 A 
ATOM     32  C   UNL     1      44.685   1.648   8.378  0.00  0.00    +0.000 C 
ENDBRANCH  18  26
ENDBRANCH   1  20
TORSDOF 7
ENDMDL
