MODEL 1
REMARK VINA RESULT:    -8.280      0.000      0.000
REMARK INTER + INTRA:         -12.210
REMARK INTER:                 -11.184
REMARK INTRA:                  -1.026
REMARK UNBOUND:                -1.026
REMARK  Name = 
REMARK  6 active torsions:
REMARK  status: ('A' for Active; 'I' for Inactive)
REMARK    1  A    between atoms: C_2  and  C_4
REMARK    2  A    between atoms: C_7  and  S_8
REMARK    3  A    between atoms: S_8  and  C_9
REMARK    4  A    between atoms: C_9  and  C_10
REMARK    5  A    between atoms: C_10  and  C_11
REMARK    6  A    between atoms: C_15  and  C_16
REMARK                            x       y       z     vdW  Elec       q    Type
REMARK                         _______ _______ _______ _____ _____    ______ ____
ROOT
ATOM      1  C   UNL     1      43.542   5.704  12.259  0.00  0.00    +0.000 C 
ENDROOT
BRANCH   1   2
ATOM      2  C   UNL     1      45.033   5.912  12.410  0.00  0.00    +0.000 A 
ATOM      3  C   UNL     1      45.750   6.627  11.447  0.00  0.00    +0.000 A 
ATOM      4  C   UNL     1      47.105   6.883  11.632  0.00  0.00    +0.000 A 
ATOM      5  C   UNL     1      47.748   6.443  12.789  0.00  0.00    +0.000 A 
ATOM      6  C   UNL     1      47.057   5.742  13.795  0.00  0.00    +0.000 A 
ATOM      7  C   UNL     1      45.695   5.464  13.566  0.00  0.00    +0.000 A 
BRANCH   6   8
ATOM      8  C   UNL     1      47.722   5.378  15.068  0.00  0.00    +0.000 A 
ATOM      9  C   UNL     1      48.722   6.194  15.611  0.00  0.00    +0.000 A 
ATOM     10  C   UNL     1      49.302   5.844  16.817  0.00  0.00    +0.000 A 
ATOM     11 CL   UNL     1      50.530   6.822  17.509  0.00  0.00    +0.000 Cl
ATOM     12  N   UNL     1      48.972   4.761  17.536  0.00  0.00    +0.000 NA
ATOM     13  C   UNL     1      48.009   3.991  17.005  0.00  0.00    +0.000 A 
ATOM     14 CL   UNL     1      47.586   2.624  17.954  0.00  0.00    +0.000 Cl
ATOM     15  C   UNL     1      47.365   4.239  15.800  0.00  0.00    +0.000 A 
ENDBRANCH   6   8
ENDBRANCH   1   2
BRANCH   1  16
ATOM     16  C   UNL     1      43.231   5.050  10.908  0.00  0.00    +0.000 C 
BRANCH  16  17
ATOM     17  S   UNL     1      43.662   3.277  10.926  0.00  0.00    +0.000 S 
BRANCH  17  21
ATOM     18  C   UNL     1      46.607   2.672   7.427  0.00  0.00    +0.000 A 
ATOM     19  C   UNL     1      46.225   3.972   7.772  0.00  0.00    +0.000 A 
ATOM     20  C   UNL     1      45.333   4.188   8.828  0.00  0.00    +0.000 A 
ATOM     21  C   UNL     1      44.803   3.115   9.554  0.00  0.00    +0.000 A 
ATOM     22  C   UNL     1      45.180   1.813   9.187  0.00  0.00    +0.000 A 
ATOM     23  C   UNL     1      46.070   1.589   8.126  0.00  0.00    +0.000 A 
BRANCH  18  25
ATOM     24  N   UNL     1      47.326   3.078   5.139  0.00  0.00    +0.000 N 
ATOM     25  C   UNL     1      47.554   2.414   6.313  0.00  0.00    +0.000 C 
ATOM     26  O   UNL     1      48.517   1.666   6.446  0.00  0.00    +0.000 OA
ATOM     27  H   UNL     1      48.028   2.971   4.418  0.00  0.00    +0.000 HD
ATOM     28  H   UNL     1      46.713   3.876   5.081  0.00  0.00    +0.000 HD
ENDBRANCH  18  25
ENDBRANCH  17  21
ENDBRANCH  16  17
ENDBRANCH   1  16
TORSDOF 6
ENDMDL
MODEL 2
REMARK VINA RESULT:    -8.172      1.024      2.116
REMARK INTER + INTRA:         -12.064
REMARK INTER:                 -11.295
REMARK INTRA:                  -0.770
REMARK UNBOUND:                -1.026
REMARK  Name = 
REMARK  6 active torsions:
REMARK  status: ('A' for Active; 'I' for Inactive)
REMARK    1  A    between atoms: C_2  and  C_4
REMARK    2  A    between atoms: C_7  and  S_8
REMARK    3  A    between atoms: S_8  and  C_9
REMARK    4  A    between atoms: C_9  and  C_10
REMARK    5  A    between atoms: C_10  and  C_11
REMARK    6  A    between atoms: C_15  and  C_16
REMARK                            x       y       z     vdW  Elec       q    Type
REMARK                         _______ _______ _______ _____ _____    ______ ____
ROOT
ATOM      1  C   UNL     1      45.447   6.589  11.421  0.00  0.00    +0.000 C 
ENDROOT
BRANCH   1   2
ATOM      2  C   UNL     1      46.771   6.701  12.145  0.00  0.00    +0.000 A 
ATOM      3  C   UNL     1      47.816   7.451  11.599  0.00  0.00    +0.000 A 
ATOM      4  C   UNL     1      49.003   7.615  12.306  0.00  0.00    +0.000 A 
ATOM      5  C   UNL     1      49.146   7.046  13.572  0.00  0.00    +0.000 A 
ATOM      6  C   UNL     1      48.109   6.305  14.168  0.00  0.00    +0.000 A 
ATOM      7  C   UNL     1      46.933   6.123  13.416  0.00  0.00    +0.000 A 
BRANCH   6   8
ATOM      8  C   UNL     1      48.230   5.800  15.557  0.00  0.00    +0.000 A 
ATOM      9  C   UNL     1      47.656   4.576  15.924  0.00  0.00    +0.000 A 
ATOM     10  C   UNL     1      47.814   4.117  17.219  0.00  0.00    +0.000 A 
ATOM     11 CL   UNL     1      47.123   2.622  17.703  0.00  0.00    +0.000 Cl
ATOM     12  N   UNL     1      48.497   4.758  18.179  0.00  0.00    +0.000 NA
ATOM     13  C   UNL     1      49.045   5.927  17.810  0.00  0.00    +0.000 A 
ATOM     14 CL   UNL     1      49.934   6.718  19.047  0.00  0.00    +0.000 Cl
ATOM     15  C   UNL     1      48.944   6.489  16.544  0.00  0.00    +0.000 A 
ENDBRANCH   6   8
ENDBRANCH   1   2
BRANCH   1  16
ATOM     16  C   UNL     1      44.701   5.329  11.871  0.00  0.00    +0.000 C 
BRANCH  16  17
ATOM     17  S   UNL     1      43.604   4.713  10.549  0.00  0.00    +0.000 S 
BRANCH  17  21
ATOM     18  C   UNL     1      46.471   2.473   7.713  0.00  0.00    +0.000 A 
ATOM     19  C   UNL     1      46.409   3.868   7.648  0.00  0.00    +0.000 A 
ATOM     20  C   UNL     1      45.549   4.576   8.494  0.00  0.00    +0.000 A 
ATOM     21  C   UNL     1      44.734   3.908   9.415  0.00  0.00    +0.000 A 
ATOM     22  C   UNL     1      44.791   2.506   9.459  0.00  0.00    +0.000 A 
ATOM     23  C   UNL     1      45.648   1.790   8.611  0.00  0.00    +0.000 A 
BRANCH  18  25
ATOM     24  N   UNL     1      48.437   2.368   6.285  0.00  0.00    +0.000 N 
ATOM     25  C   UNL     1      47.378   1.697   6.829  0.00  0.00    +0.000 C 
ATOM     26  O   UNL     1      47.205   0.501   6.620  0.00  0.00    +0.000 OA
ATOM     27  H   UNL     1      49.102   1.812   5.762  0.00  0.00    +0.000 HD
ATOM     28  H   UNL     1      48.748   3.261   6.635  0.00  0.00    +0.000 HD
ENDBRANCH  18  25
ENDBRANCH  17  21
ENDBRANCH  16  17
ENDBRANCH   1  16
TORSDOF 6
ENDMDL
MODEL 3
REMARK VINA RESULT:    -8.031      3.587      4.678
REMARK INTER + INTRA:         -11.874
REMARK INTER:                 -11.055
REMARK INTRA:                  -0.819
REMARK UNBOUND:                -1.026
REMARK  Name = 
REMARK  6 active torsions:
REMARK  status: ('A' for Active; 'I' for Inactive)
REMARK    1  A    between atoms: C_2  and  C_4
REMARK    2  A    between atoms: C_7  and  S_8
REMARK    3  A    between atoms: S_8  and  C_9
REMARK    4  A    between atoms: C_9  and  C_10
REMARK    5  A    between atoms: C_10  and  C_11
REMARK    6  A    between atoms: C_15  and  C_16
REMARK                            x       y       z     vdW  Elec       q    Type
REMARK                         _______ _______ _______ _____ _____    ______ ____
ROOT
ATOM      1  C   UNL     1      43.663   4.699  13.135  0.00  0.00    +0.000 C 
ENDROOT
BRANCH   1   2
ATOM      2  C   UNL     1      45.012   5.379  13.214  0.00  0.00    +0.000 A 
ATOM      3  C   UNL     1      46.156   4.650  13.550  0.00  0.00    +0.000 A 
ATOM      4  C   UNL     1      47.404   5.264  13.544  0.00  0.00    +0.000 A 
ATOM      5  C   UNL     1      47.520   6.608  13.184  0.00  0.00    +0.000 A 
ATOM      6  C   UNL     1      46.397   7.371  12.815  0.00  0.00    +0.000 A 
ATOM      7  C   UNL     1      45.141   6.735  12.865  0.00  0.00    +0.000 A 
BRANCH   6   8
ATOM      8  C   UNL     1      46.545   8.763  12.327  0.00  0.00    +0.000 A 
ATOM      9  C   UNL     1      47.805   9.270  11.986  0.00  0.00    +0.000 A 
ATOM     10  C   UNL     1      47.908  10.562  11.504  0.00  0.00    +0.000 A 
ATOM     11 CL   UNL     1      49.436  11.214  11.078  0.00  0.00    +0.000 Cl
ATOM     12  N   UNL     1      46.870  11.392  11.322  0.00  0.00    +0.000 NA
ATOM     13  C   UNL     1      45.669  10.890  11.649  0.00  0.00    +0.000 A 
ATOM     14 CL   UNL     1      44.354  11.963  11.385  0.00  0.00    +0.000 Cl
ATOM     15  C   UNL     1      45.449   9.615  12.149  0.00  0.00    +0.000 A 
ENDBRANCH   6   8
ENDBRANCH   1   2
BRANCH   1  16
ATOM     16  C   UNL     1      43.622   3.738  11.943  0.00  0.00    +0.000 C 
BRANCH  16  17
ATOM     17  S   UNL     1      43.525   4.655  10.367  0.00  0.00    +0.000 S 
BRANCH  17  21
ATOM     18  C   UNL     1      46.609   2.634   7.594  0.00  0.00    +0.000 A 
ATOM     19  C   UNL     1      45.825   1.833   8.430  0.00  0.00    +0.000 A 
ATOM     20  C   UNL     1      44.882   2.416   9.283  0.00  0.00    +0.000 A 
ATOM     21  C   UNL     1      44.707   3.805   9.321  0.00  0.00    +0.000 A 
ATOM     22  C   UNL     1      45.511   4.600   8.490  0.00  0.00    +0.000 A 
ATOM     23  C   UNL     1      46.462   4.022   7.636  0.00  0.00    +0.000 A 
BRANCH  18  25
ATOM     24  N   UNL     1      47.999   2.798   5.605  0.00  0.00    +0.000 N 
ATOM     25  C   UNL     1      47.615   2.041   6.677  0.00  0.00    +0.000 C 
ATOM     26  O   UNL     1      48.106   0.937   6.886  0.00  0.00    +0.000 OA
ATOM     27  H   UNL     1      48.753   2.428   5.039  0.00  0.00    +0.000 HD
ATOM     28  H   UNL     1      47.815   3.788   5.549  0.00  0.00    +0.000 HD
ENDBRANCH  18  25
ENDBRANCH  17  21
ENDBRANCH  16  17
ENDBRANCH   1  16
TORSDOF 6
ENDMDL
MODEL 4
REMARK VINA RESULT:    -7.977      3.692      4.514
REMARK INTER + INTRA:         -11.801
REMARK INTER:                 -10.862
REMARK INTRA:                  -0.939
REMARK UNBOUND:                -1.026
REMARK  Name = 
REMARK  6 active torsions:
REMARK  status: ('A' for Active; 'I' for Inactive)
REMARK    1  A    between atoms: C_2  and  C_4
REMARK    2  A    between atoms: C_7  and  S_8
REMARK    3  A    between atoms: S_8  and  C_9
REMARK    4  A    between atoms: C_9  and  C_10
REMARK    5  A    between atoms: C_10  and  C_11
REMARK    6  A    between atoms: C_15  and  C_16
REMARK                            x       y       z     vdW  Elec       q    Type
REMARK                         _______ _______ _______ _____ _____    ______ ____
ROOT
ATOM      1  C   UNL     1      45.834   4.641  12.253  0.00  0.00    +0.000 C 
ENDROOT
BRANCH   1   2
ATOM      2  C   UNL     1      46.119   6.126  12.244  0.00  0.00    +0.000 A 
ATOM      3  C   UNL     1      45.153   7.037  12.678  0.00  0.00    +0.000 A 
ATOM      4  C   UNL     1      45.449   8.394  12.742  0.00  0.00    +0.000 A 
ATOM      5  C   UNL     1      46.720   8.850  12.390  0.00  0.00    +0.000 A 
ATOM      6  C   UNL     1      47.730   7.963  11.972  0.00  0.00    +0.000 A 
ATOM      7  C   UNL     1      47.393   6.599  11.881  0.00  0.00    +0.000 A 
BRANCH   6   8
ATOM      8  C   UNL     1      49.108   8.443  11.709  0.00  0.00    +0.000 A 
ATOM      9  C   UNL     1      50.075   7.581  11.176  0.00  0.00    +0.000 A 
ATOM     10  C   UNL     1      51.342   8.067  10.912  0.00  0.00    +0.000 A 
ATOM     11 CL   UNL     1      52.550   7.038  10.260  0.00  0.00    +0.000 Cl
ATOM     12  N   UNL     1      51.733   9.333  11.119  0.00  0.00    +0.000 NA
ATOM     13  C   UNL     1      50.793  10.148  11.626  0.00  0.00    +0.000 A 
ATOM     14 CL   UNL     1      51.309  11.768  11.861  0.00  0.00    +0.000 Cl
ATOM     15  C   UNL     1      49.495   9.769  11.938  0.00  0.00    +0.000 A 
ENDBRANCH   6   8
ENDBRANCH   1   2
BRANCH   1  16
ATOM     16  C   UNL     1      44.323   4.390  12.265  0.00  0.00    +0.000 C 
BRANCH  16  17
ATOM     17  S   UNL     1      43.591   4.734  10.629  0.00  0.00    +0.000 S 
BRANCH  17  21
ATOM     18  C   UNL     1      46.476   2.527   7.785  0.00  0.00    +0.000 A 
ATOM     19  C   UNL     1      46.402   3.922   7.724  0.00  0.00    +0.000 A 
ATOM     20  C   UNL     1      45.536   4.620   8.573  0.00  0.00    +0.000 A 
ATOM     21  C   UNL     1      44.727   3.942   9.492  0.00  0.00    +0.000 A 
ATOM     22  C   UNL     1      44.797   2.540   9.532  0.00  0.00    +0.000 A 
ATOM     23  C   UNL     1      45.660   1.834   8.681  0.00  0.00    +0.000 A 
BRANCH  18  25
ATOM     24  N   UNL     1      48.498   2.416   6.437  0.00  0.00    +0.000 N 
ATOM     25  C   UNL     1      47.389   1.762   6.898  0.00  0.00    +0.000 C 
ATOM     26  O   UNL     1      47.178   0.588   6.616  0.00  0.00    +0.000 OA
ATOM     27  H   UNL     1      49.162   1.861   5.913  0.00  0.00    +0.000 HD
ATOM     28  H   UNL     1      48.828   3.275   6.849  0.00  0.00    +0.000 HD
ENDBRANCH  18  25
ENDBRANCH  17  21
ENDBRANCH  16  17
ENDBRANCH   1  16
TORSDOF 6
ENDMDL
MODEL 5
REMARK VINA RESULT:    -7.577      3.161      4.439
REMARK INTER + INTRA:         -11.261
REMARK INTER:                 -10.412
REMARK INTRA:                  -0.849
REMARK UNBOUND:                -1.026
REMARK  Name = 
REMARK  6 active torsions:
REMARK  status: ('A' for Active; 'I' for Inactive)
REMARK    1  A    between atoms: C_2  and  C_4
REMARK    2  A    between atoms: C_7  and  S_8
REMARK    3  A    between atoms: S_8  and  C_9
REMARK    4  A    between atoms: C_9  and  C_10
REMARK    5  A    between atoms: C_10  and  C_11
REMARK    6  A    between atoms: C_15  and  C_16
REMARK                            x       y       z     vdW  Elec       q    Type
REMARK                         _______ _______ _______ _____ _____    ______ ____
ROOT
ATOM      1  C   UNL     1      45.569   4.145  12.680  0.00  0.00    +0.000 C 
ENDROOT
BRANCH   1   2
ATOM      2  C   UNL     1      46.547   5.057  13.387  0.00  0.00    +0.000 A 
ATOM      3  C   UNL     1      46.996   4.754  14.675  0.00  0.00    +0.000 A 
ATOM      4  C   UNL     1      47.954   5.554  15.288  0.00  0.00    +0.000 A 
ATOM      5  C   UNL     1      48.486   6.652  14.610  0.00  0.00    +0.000 A 
ATOM      6  C   UNL     1      48.080   6.977  13.302  0.00  0.00    +0.000 A 
ATOM      7  C   UNL     1      47.081   6.173  12.719  0.00  0.00    +0.000 A 
BRANCH   6   8
ATOM      8  C   UNL     1      48.731   8.077  12.551  0.00  0.00    +0.000 A 
ATOM      9  C   UNL     1      50.075   7.984  12.170  0.00  0.00    +0.000 A 
ATOM     10  C   UNL     1      50.645   9.012  11.442  0.00  0.00    +0.000 A 
ATOM     11 CL   UNL     1      52.290   8.930  10.960  0.00  0.00    +0.000 Cl
ATOM     12  N   UNL     1      49.998  10.120  11.050  0.00  0.00    +0.000 NA
ATOM     13  C   UNL     1      48.709  10.192  11.419  0.00  0.00    +0.000 A 
ATOM     14 CL   UNL     1      47.895  11.606  10.887  0.00  0.00    +0.000 Cl
ATOM     15  C   UNL     1      48.037   9.227  12.157  0.00  0.00    +0.000 A 
ENDBRANCH   6   8
ENDBRANCH   1   2
BRANCH   1  16
ATOM     16  C   UNL     1      44.585   4.968  11.842  0.00  0.00    +0.000 C 
BRANCH  16  17
ATOM     17  S   UNL     1      43.572   3.887  10.775  0.00  0.00    +0.000 S 
BRANCH  17  21
ATOM     18  C   UNL     1      46.555   2.706   7.460  0.00  0.00    +0.000 A 
ATOM     19  C   UNL     1      45.960   1.698   8.224  0.00  0.00    +0.000 A 
ATOM     20  C   UNL     1      45.051   2.024   9.237  0.00  0.00    +0.000 A 
ATOM     21  C   UNL     1      44.725   3.358   9.510  0.00  0.00    +0.000 A 
ATOM     22  C   UNL     1      45.343   4.362   8.748  0.00  0.00    +0.000 A 
ATOM     23  C   UNL     1      46.258   4.042   7.734  0.00  0.00    +0.000 A 
BRANCH  18  25
ATOM     24  N   UNL     1      47.330   3.010   5.175  0.00  0.00    +0.000 N 
ATOM     25  C   UNL     1      47.520   2.388   6.377  0.00  0.00    +0.000 C 
ATOM     26  O   UNL     1      48.464   1.627   6.560  0.00  0.00    +0.000 OA
ATOM     27  H   UNL     1      48.045   2.862   4.473  0.00  0.00    +0.000 HD
ATOM     28  H   UNL     1      46.735   3.818   5.073  0.00  0.00    +0.000 HD
ENDBRANCH  18  25
ENDBRANCH  17  21
ENDBRANCH  16  17
ENDBRANCH   1  16
TORSDOF 6
ENDMDL
MODEL 6
REMARK VINA RESULT:    -7.519      3.354      4.097
REMARK INTER + INTRA:         -11.182
REMARK INTER:                 -10.370
REMARK INTRA:                  -0.813
REMARK UNBOUND:                -1.026
REMARK  Name = 
REMARK  6 active torsions:
REMARK  status: ('A' for Active; 'I' for Inactive)
REMARK    1  A    between atoms: C_2  and  C_4
REMARK    2  A    between atoms: C_7  and  S_8
REMARK    3  A    between atoms: S_8  and  C_9
REMARK    4  A    between atoms: C_9  and  C_10
REMARK    5  A    between atoms: C_10  and  C_11
REMARK    6  A    between atoms: C_15  and  C_16
REMARK                            x       y       z     vdW  Elec       q    Type
REMARK                         _______ _______ _______ _____ _____    ______ ____
ROOT
ATOM      1  C   UNL     1      45.354   5.430  12.137  0.00  0.00    +0.000 C 
ENDROOT
BRANCH   1   2
ATOM      2  C   UNL     1      46.004   6.795  12.163  0.00  0.00    +0.000 A 
ATOM      3  C   UNL     1      45.255   7.932  12.478  0.00  0.00    +0.000 A 
ATOM      4  C   UNL     1      45.875   9.173  12.578  0.00  0.00    +0.000 A 
ATOM      5  C   UNL     1      47.252   9.284  12.382  0.00  0.00    +0.000 A 
ATOM      6  C   UNL     1      48.047   8.161  12.090  0.00  0.00    +0.000 A 
ATOM      7  C   UNL     1      47.389   6.922  11.957  0.00  0.00    +0.000 A 
BRANCH   6   8
ATOM      8  C   UNL     1      49.523   8.272  11.995  0.00  0.00    +0.000 A 
ATOM      9  C   UNL     1      50.249   8.976  12.963  0.00  0.00    +0.000 A 
ATOM     10  C   UNL     1      51.627   9.036  12.865  0.00  0.00    +0.000 A 
ATOM     11 CL   UNL     1      52.548   9.891  14.034  0.00  0.00    +0.000 Cl
ATOM     12  N   UNL     1      52.349   8.450  11.898  0.00  0.00    +0.000 NA
ATOM     13  C   UNL     1      51.638   7.775  10.980  0.00  0.00    +0.000 A 
ATOM     14 CL   UNL     1      52.585   7.014   9.766  0.00  0.00    +0.000 Cl
ATOM     15  C   UNL     1      50.256   7.657  10.974  0.00  0.00    +0.000 A 
ENDBRANCH   6   8
ENDBRANCH   1   2
BRANCH   1  16
ATOM     16  C   UNL     1      44.160   5.428  11.177  0.00  0.00    +0.000 C 
BRANCH  16  17
ATOM     17  S   UNL     1      43.644   3.723  10.780  0.00  0.00    +0.000 S 
BRANCH  17  21
ATOM     18  C   UNL     1      46.591   2.648   7.397  0.00  0.00    +0.000 A 
ATOM     19  C   UNL     1      46.063   1.621   8.185  0.00  0.00    +0.000 A 
ATOM     20  C   UNL     1      45.167   1.915   9.219  0.00  0.00    +0.000 A 
ATOM     21  C   UNL     1      44.787   3.235   9.488  0.00  0.00    +0.000 A 
ATOM     22  C   UNL     1      45.337   4.259   8.702  0.00  0.00    +0.000 A 
ATOM     23  C   UNL     1      46.238   3.972   7.667  0.00  0.00    +0.000 A 
BRANCH  18  25
ATOM     24  N   UNL     1      47.378   3.076   5.135  0.00  0.00    +0.000 N 
ATOM     25  C   UNL     1      47.540   2.364   6.291  0.00  0.00    +0.000 C 
ATOM     26  O   UNL     1      48.451   1.552   6.417  0.00  0.00    +0.000 OA
ATOM     27  H   UNL     1      48.085   2.946   4.423  0.00  0.00    +0.000 HD
ATOM     28  H   UNL     1      46.818   3.914   5.091  0.00  0.00    +0.000 HD
ENDBRANCH  18  25
ENDBRANCH  17  21
ENDBRANCH  16  17
ENDBRANCH   1  16
TORSDOF 6
ENDMDL
MODEL 7
REMARK VINA RESULT:    -7.278      4.214      8.148
REMARK INTER + INTRA:         -10.857
REMARK INTER:                  -9.609
REMARK INTRA:                  -1.249
REMARK UNBOUND:                -1.026
REMARK  Name = 
REMARK  6 active torsions:
REMARK  status: ('A' for Active; 'I' for Inactive)
REMARK    1  A    between atoms: C_2  and  C_4
REMARK    2  A    between atoms: C_7  and  S_8
REMARK    3  A    between atoms: S_8  and  C_9
REMARK    4  A    between atoms: C_9  and  C_10
REMARK    5  A    between atoms: C_10  and  C_11
REMARK    6  A    between atoms: C_15  and  C_16
REMARK                            x       y       z     vdW  Elec       q    Type
REMARK                         _______ _______ _______ _____ _____    ______ ____
ROOT
ATOM      1  C   UNL     1      49.218   8.566  11.966  0.00  0.00    +0.000 C 
ENDROOT
BRANCH   1   2
ATOM      2  C   UNL     1      47.751   8.210  12.056  0.00  0.00    +0.000 A 
ATOM      3  C   UNL     1      46.828   9.129  12.563  0.00  0.00    +0.000 A 
ATOM      4  C   UNL     1      45.470   8.825  12.570  0.00  0.00    +0.000 A 
ATOM      5  C   UNL     1      45.024   7.608  12.053  0.00  0.00    +0.000 A 
ATOM      6  C   UNL     1      45.918   6.666  11.510  0.00  0.00    +0.000 A 
ATOM      7  C   UNL     1      47.289   6.983  11.550  0.00  0.00    +0.000 A 
BRANCH   6   8
ATOM      8  C   UNL     1      45.423   5.427  10.863  0.00  0.00    +0.000 A 
ATOM      9  C   UNL     1      44.625   4.521  11.572  0.00  0.00    +0.000 A 
ATOM     10  C   UNL     1      44.152   3.390  10.932  0.00  0.00    +0.000 A 
ATOM     11 CL   UNL     1      43.171   2.260  11.772  0.00  0.00    +0.000 Cl
ATOM     12  N   UNL     1      44.394   3.083   9.649  0.00  0.00    +0.000 NA
ATOM     13  C   UNL     1      45.157   3.963   8.982  0.00  0.00    +0.000 A 
ATOM     14 CL   UNL     1      45.434   3.561   7.336  0.00  0.00    +0.000 Cl
ATOM     15  C   UNL     1      45.692   5.124   9.524  0.00  0.00    +0.000 A 
ENDBRANCH   6   8
ENDBRANCH   1   2
BRANCH   1  16
ATOM     16  C   UNL     1      50.046   7.639  12.862  0.00  0.00    +0.000 C 
BRANCH  16  17
ATOM     17  S   UNL     1      50.106   8.268  14.575  0.00  0.00    +0.000 S 
BRANCH  17  21
ATOM     18  C   UNL     1      48.294   4.741  16.932  0.00  0.00    +0.000 A 
ATOM     19  C   UNL     1      49.421   5.389  17.446  0.00  0.00    +0.000 A 
ATOM     20  C   UNL     1      49.994   6.462  16.754  0.00  0.00    +0.000 A 
ATOM     21  C   UNL     1      49.458   6.902  15.539  0.00  0.00    +0.000 A 
ATOM     22  C   UNL     1      48.338   6.232  15.023  0.00  0.00    +0.000 A 
ATOM     23  C   UNL     1      47.761   5.153  15.710  0.00  0.00    +0.000 A 
BRANCH  18  25
ATOM     24  N   UNL     1      48.311   3.133  18.757  0.00  0.00    +0.000 N 
ATOM     25  C   UNL     1      47.665   3.601  17.647  0.00  0.00    +0.000 C 
ATOM     26  O   UNL     1      46.597   3.122  17.281  0.00  0.00    +0.000 OA
ATOM     27  H   UNL     1      47.829   2.422  19.293  0.00  0.00    +0.000 HD
ATOM     28  H   UNL     1      49.034   3.658  19.223  0.00  0.00    +0.000 HD
ENDBRANCH  18  25
ENDBRANCH  17  21
ENDBRANCH  16  17
ENDBRANCH   1  16
TORSDOF 6
ENDMDL
MODEL 8
REMARK VINA RESULT:    -7.178      1.942      3.021
REMARK INTER + INTRA:         -10.721
REMARK INTER:                  -9.961
REMARK INTRA:                  -0.761
REMARK UNBOUND:                -1.026
REMARK  Name = 
REMARK  6 active torsions:
REMARK  status: ('A' for Active; 'I' for Inactive)
REMARK    1  A    between atoms: C_2  and  C_4
REMARK    2  A    between atoms: C_7  and  S_8
REMARK    3  A    between atoms: S_8  and  C_9
REMARK    4  A    between atoms: C_9  and  C_10
REMARK    5  A    between atoms: C_10  and  C_11
REMARK    6  A    between atoms: C_15  and  C_16
REMARK                            x       y       z     vdW  Elec       q    Type
REMARK                         _______ _______ _______ _____ _____    ______ ____
ROOT
ATOM      1  C   UNL     1      45.646   4.609  12.299  0.00  0.00    +0.000 C 
ENDROOT
BRANCH   1   2
ATOM      2  C   UNL     1      46.190   5.963  12.696  0.00  0.00    +0.000 A 
ATOM      3  C   UNL     1      45.396   7.107  12.588  0.00  0.00    +0.000 A 
ATOM      4  C   UNL     1      45.875   8.336  13.029  0.00  0.00    +0.000 A 
ATOM      5  C   UNL     1      47.145   8.427  13.599  0.00  0.00    +0.000 A 
ATOM      6  C   UNL     1      47.967   7.295  13.750  0.00  0.00    +0.000 A 
ATOM      7  C   UNL     1      47.473   6.070  13.262  0.00  0.00    +0.000 A 
BRANCH   6   8
ATOM      8  C   UNL     1      49.267   7.383  14.458  0.00  0.00    +0.000 A 
ATOM      9  C   UNL     1      49.454   6.745  15.690  0.00  0.00    +0.000 A 
ATOM     10  C   UNL     1      50.688   6.819  16.310  0.00  0.00    +0.000 A 
ATOM     11 CL   UNL     1      50.951   6.048  17.821  0.00  0.00    +0.000 Cl
ATOM     12  N   UNL     1      51.755   7.461  15.812  0.00  0.00    +0.000 NA
ATOM     13  C   UNL     1      51.561   8.065  14.628  0.00  0.00    +0.000 A 
ATOM     14 CL   UNL     1      52.946   8.860  14.000  0.00  0.00    +0.000 Cl
ATOM     15  C   UNL     1      50.366   8.065  13.922  0.00  0.00    +0.000 A 
ENDBRANCH   6   8
ENDBRANCH   1   2
BRANCH   1  16
ATOM     16  C   UNL     1      44.127   4.568  12.498  0.00  0.00    +0.000 C 
BRANCH  16  17
ATOM     17  S   UNL     1      43.256   4.635  10.896  0.00  0.00    +0.000 S 
BRANCH  17  21
ATOM     18  C   UNL     1      46.165   2.596   7.953  0.00  0.00    +0.000 A 
ATOM     19  C   UNL     1      45.399   1.798   8.809  0.00  0.00    +0.000 A 
ATOM     20  C   UNL     1      44.509   2.386   9.713  0.00  0.00    +0.000 A 
ATOM     21  C   UNL     1      44.369   3.777   9.783  0.00  0.00    +0.000 A 
ATOM     22  C   UNL     1      45.156   4.569   8.932  0.00  0.00    +0.000 A 
ATOM     23  C   UNL     1      46.054   3.985   8.027  0.00  0.00    +0.000 A 
BRANCH  18  25
ATOM     24  N   UNL     1      47.855   2.861   6.224  0.00  0.00    +0.000 N 
ATOM     25  C   UNL     1      47.116   1.997   6.982  0.00  0.00    +0.000 C 
ATOM     26  O   UNL     1      47.257   0.782   6.884  0.00  0.00    +0.000 OA
ATOM     27  H   UNL     1      48.567   2.449   5.635  0.00  0.00    +0.000 HD
ATOM     28  H   UNL     1      47.950   3.838   6.457  0.00  0.00    +0.000 HD
ENDBRANCH  18  25
ENDBRANCH  17  21
ENDBRANCH  16  17
ENDBRANCH   1  16
TORSDOF 6
ENDMDL
MODEL 9
REMARK VINA RESULT:    -6.230      5.214      7.669
REMARK INTER + INTRA:          -9.442
REMARK INTER:                  -7.552
REMARK INTRA:                  -1.890
REMARK UNBOUND:                -1.026
REMARK  Name = 
REMARK  6 active torsions:
REMARK  status: ('A' for Active; 'I' for Inactive)
REMARK    1  A    between atoms: C_2  and  C_4
REMARK    2  A    between atoms: C_7  and  S_8
REMARK    3  A    between atoms: S_8  and  C_9
REMARK    4  A    between atoms: C_9  and  C_10
REMARK    5  A    between atoms: C_10  and  C_11
REMARK    6  A    between atoms: C_15  and  C_16
REMARK                            x       y       z     vdW  Elec       q    Type
REMARK                         _______ _______ _______ _____ _____    ______ ____
ROOT
ATOM      1  C   UNL     1      50.246   8.206  11.908  0.00  0.00    +0.000 C 
ENDROOT
BRANCH   1   2
ATOM      2  C   UNL     1      49.179   7.350  12.554  0.00  0.00    +0.000 A 
ATOM      3  C   UNL     1      49.196   7.114  13.931  0.00  0.00    +0.000 A 
ATOM      4  C   UNL     1      48.169   6.393  14.530  0.00  0.00    +0.000 A 
ATOM      5  C   UNL     1      47.107   5.917  13.760  0.00  0.00    +0.000 A 
ATOM      6  C   UNL     1      47.038   6.155  12.375  0.00  0.00    +0.000 A 
ATOM      7  C   UNL     1      48.109   6.856  11.787  0.00  0.00    +0.000 A 
BRANCH   6   8
ATOM      8  C   UNL     1      45.852   5.743  11.586  0.00  0.00    +0.000 A 
ATOM      9  C   UNL     1      46.004   5.111  10.346  0.00  0.00    +0.000 A 
ATOM     10  C   UNL     1      44.878   4.709   9.649  0.00  0.00    +0.000 A 
ATOM     11 CL   UNL     1      45.029   3.932   8.127  0.00  0.00    +0.000 Cl
ATOM     12  N   UNL     1      43.618   4.872  10.077  0.00  0.00    +0.000 NA
ATOM     13  C   UNL     1      43.489   5.476  11.269  0.00  0.00    +0.000 A 
ATOM     14 CL   UNL     1      41.868   5.652  11.806  0.00  0.00    +0.000 Cl
ATOM     15  C   UNL     1      44.544   5.928  12.050  0.00  0.00    +0.000 A 
ENDBRANCH   6   8
ENDBRANCH   1   2
BRANCH   1  16
ATOM     16  C   UNL     1      49.606   9.388  11.173  0.00  0.00    +0.000 C 
BRANCH  16  17
ATOM     17  S   UNL     1      48.886  10.579  12.354  0.00  0.00    +0.000 S 
BRANCH  17  21
ATOM     18  C   UNL     1      44.367  10.354  11.453  0.00  0.00    +0.000 A 
ATOM     19  C   UNL     1      45.154  11.266  10.742  0.00  0.00    +0.000 A 
ATOM     20  C   UNL     1      46.527  11.358  10.993  0.00  0.00    +0.000 A 
ATOM     21  C   UNL     1      47.138  10.549  11.958  0.00  0.00    +0.000 A 
ATOM     22  C   UNL     1      46.335   9.650  12.678  0.00  0.00    +0.000 A 
ATOM     23  C   UNL     1      44.958   9.555  12.434  0.00  0.00    +0.000 A 
BRANCH  18  25
ATOM     24  N   UNL     1      42.467   9.060  10.658  0.00  0.00    +0.000 N 
ATOM     25  C   UNL     1      42.908  10.233  11.204  0.00  0.00    +0.000 C 
ATOM     26  O   UNL     1      42.127  11.130  11.504  0.00  0.00    +0.000 OA
ATOM     27  H   UNL     1      41.464   8.948  10.581  0.00  0.00    +0.000 HD
ATOM     28  H   UNL     1      43.033   8.226  10.642  0.00  0.00    +0.000 HD
ENDBRANCH  18  25
ENDBRANCH  17  21
ENDBRANCH  16  17
ENDBRANCH   1  16
TORSDOF 6
ENDMDL
