MODEL 1
REMARK VINA RESULT:    -8.224      0.000      0.000
REMARK INTER + INTRA:         -11.982
REMARK INTER:                 -11.108
REMARK INTRA:                  -0.874
REMARK UNBOUND:                -0.874
REMARK  Name = 
REMARK  6 active torsions:
REMARK  status: ('A' for Active; 'I' for Inactive)
REMARK    1  A    between atoms: C_2  and  C_3
REMARK    2  A    between atoms: C_6  and  O_7
REMARK    3  A    between atoms: O_7  and  C_8
REMARK    4  A    between atoms: C_8  and  C_9
REMARK    5  A    between atoms: C_14  and  N_15
REMARK    6  A    between atoms: C_19  and  C_20
REMARK                            x       y       z     vdW  Elec       q    Type
REMARK                         _______ _______ _______ _____ _____    ______ ____
ROOT
ATOM      1  C   UNL     1      44.904   3.999  11.976  0.00  0.00    +0.000 A 
ATOM      2  C   UNL     1      45.639   3.387  12.993  0.00  0.00    +0.000 A 
ATOM      3  C   UNL     1      46.653   4.096  13.624  0.00  0.00    +0.000 A 
ATOM      4  F   UNL     1      47.362   3.507  14.597  0.00  0.00    +0.000 F 
ATOM      5  C   UNL     1      46.938   5.414  13.279  0.00  0.00    +0.000 A 
ATOM      6  C   UNL     1      46.200   6.073  12.291  0.00  0.00    +0.000 A 
ATOM      7  C   UNL     1      45.201   5.331  11.637  0.00  0.00    +0.000 A 
ENDROOT
BRANCH   6   8
ATOM      8  N   UNL     1      46.394   7.409  11.998  0.00  0.00    +0.000 N 
ATOM      9  C   UNL     1      47.702   8.047  12.120  0.00  0.00    +0.000 C 
ATOM     10  C   UNL     1      47.537   9.347  12.910  0.00  0.00    +0.000 C 
ATOM     11  C   UNL     1      46.438  10.243  12.334  0.00  0.00    +0.000 C 
ATOM     12  C   UNL     1      45.116   9.485  12.132  0.00  0.00    +0.000 C 
ATOM     13  C   UNL     1      45.354   8.200  11.330  0.00  0.00    +0.000 C 
BRANCH  12  14
ATOM     14  C   UNL     1      44.090  10.355  11.428  0.00  0.00    +0.000 C 
ATOM     15  N   UNL     1      43.043  10.780  12.193  0.00  0.00    +0.000 N 
ATOM     16  O   UNL     1      44.146  10.665  10.243  0.00  0.00    +0.000 OA
ATOM     17  H   UNL     1      42.925  10.548  13.170  0.00  0.00    +0.000 HD
ATOM     18  H   UNL     1      42.338  11.354  11.743  0.00  0.00    +0.000 HD
ENDBRANCH  12  14
ENDBRANCH   6   8
BRANCH   1  19
ATOM     19  C   UNL     1      43.781   3.273  11.274  0.00  0.00    +0.000 C 
BRANCH  19  20
ATOM     20  O   UNL     1      43.610   3.779   9.944  0.00  0.00    +0.000 OA
BRANCH  20  24
ATOM     21  C   UNL     1      46.572   2.420   7.412  0.00  0.00    +0.000 A 
ATOM     22  C   UNL     1      45.948   1.522   8.282  0.00  0.00    +0.000 A 
ATOM     23  C   UNL     1      44.947   1.981   9.139  0.00  0.00    +0.000 A 
ATOM     24  C   UNL     1      44.600   3.324   9.094  0.00  0.00    +0.000 A 
ATOM     25  N   UNL     1      45.192   4.210   8.256  0.00  0.00    +0.000 NA
ATOM     26  C   UNL     1      46.158   3.740   7.439  0.00  0.00    +0.000 A 
BRANCH  21  28
ATOM     27  N   UNL     1      48.446   1.671   5.793  0.00  0.00    +0.000 NA
ATOM     28  C   UNL     1      47.610   2.016   6.521  0.00  0.00    +0.000 C 
ENDBRANCH  21  28
ENDBRANCH  20  24
ENDBRANCH  19  20
ENDBRANCH   1  19
TORSDOF 6
ENDMDL
MODEL 2
REMARK VINA RESULT:    -8.168      1.725      2.464
REMARK INTER + INTRA:         -11.907
REMARK INTER:                 -10.895
REMARK INTRA:                  -1.012
REMARK UNBOUND:                -0.874
REMARK  Name = 
REMARK  6 active torsions:
REMARK  status: ('A' for Active; 'I' for Inactive)
REMARK    1  A    between atoms: C_2  and  C_3
REMARK    2  A    between atoms: C_6  and  O_7
REMARK    3  A    between atoms: O_7  and  C_8
REMARK    4  A    between atoms: C_8  and  C_9
REMARK    5  A    between atoms: C_14  and  N_15
REMARK    6  A    between atoms: C_19  and  C_20
REMARK                            x       y       z     vdW  Elec       q    Type
REMARK                         _______ _______ _______ _____ _____    ______ ____
ROOT
ATOM      1  C   UNL     1      44.925   4.420  12.047  0.00  0.00    +0.000 A 
ATOM      2  C   UNL     1      45.639   3.530  12.853  0.00  0.00    +0.000 A 
ATOM      3  C   UNL     1      46.711   3.998  13.602  0.00  0.00    +0.000 A 
ATOM      4  F   UNL     1      47.399   3.144  14.372  0.00  0.00    +0.000 F 
ATOM      5  C   UNL     1      47.075   5.341  13.585  0.00  0.00    +0.000 A 
ATOM      6  C   UNL     1      46.361   6.269  12.819  0.00  0.00    +0.000 A 
ATOM      7  C   UNL     1      45.302   5.774  12.038  0.00  0.00    +0.000 A 
ENDROOT
BRANCH   6   8
ATOM      8  N   UNL     1      46.637   7.622  12.860  0.00  0.00    +0.000 N 
ATOM      9  C   UNL     1      45.587   8.623  13.030  0.00  0.00    +0.000 C 
ATOM     10  C   UNL     1      45.771   9.706  11.965  0.00  0.00    +0.000 C 
ATOM     11  C   UNL     1      47.194  10.267  11.945  0.00  0.00    +0.000 C 
ATOM     12  C   UNL     1      48.256   9.159  11.870  0.00  0.00    +0.000 C 
ATOM     13  C   UNL     1      48.016   8.113  12.966  0.00  0.00    +0.000 C 
BRANCH  12  14
ATOM     14  C   UNL     1      49.656   9.732  11.997  0.00  0.00    +0.000 C 
ATOM     15  N   UNL     1      50.080   9.992  13.268  0.00  0.00    +0.000 N 
ATOM     16  O   UNL     1      50.389   9.980  11.046  0.00  0.00    +0.000 OA
ATOM     17  H   UNL     1      49.523   9.828  14.095  0.00  0.00    +0.000 HD
ATOM     18  H   UNL     1      51.009  10.385  13.380  0.00  0.00    +0.000 HD
ENDBRANCH  12  14
ENDBRANCH   6   8
BRANCH   1  19
ATOM     19  C   UNL     1      43.742   3.960  11.229  0.00  0.00    +0.000 C 
BRANCH  19  20
ATOM     20  O   UNL     1      43.793   4.522   9.912  0.00  0.00    +0.000 OA
BRANCH  20  24
ATOM     21  C   UNL     1      46.576   2.601   7.547  0.00  0.00    +0.000 A 
ATOM     22  C   UNL     1      45.740   1.846   8.374  0.00  0.00    +0.000 A 
ATOM     23  C   UNL     1      44.799   2.495   9.175  0.00  0.00    +0.000 A 
ATOM     24  C   UNL     1      44.723   3.880   9.118  0.00  0.00    +0.000 A 
ATOM     25  N   UNL     1      45.522   4.630   8.320  0.00  0.00    +0.000 NA
ATOM     26  C   UNL     1      46.424   3.976   7.558  0.00  0.00    +0.000 A 
BRANCH  21  28
ATOM     27  N   UNL     1      48.371   1.525   6.027  0.00  0.00    +0.000 NA
ATOM     28  C   UNL     1      47.565   1.999   6.715  0.00  0.00    +0.000 C 
ENDBRANCH  21  28
ENDBRANCH  20  24
ENDBRANCH  19  20
ENDBRANCH   1  19
TORSDOF 6
ENDMDL
MODEL 3
REMARK VINA RESULT:    -7.966      3.002      4.321
REMARK INTER + INTRA:         -11.634
REMARK INTER:                 -10.707
REMARK INTRA:                  -0.927
REMARK UNBOUND:                -0.874
REMARK  Name = 
REMARK  6 active torsions:
REMARK  status: ('A' for Active; 'I' for Inactive)
REMARK    1  A    between atoms: C_2  and  C_3
REMARK    2  A    between atoms: C_6  and  O_7
REMARK    3  A    between atoms: O_7  and  C_8
REMARK    4  A    between atoms: C_8  and  C_9
REMARK    5  A    between atoms: C_14  and  N_15
REMARK    6  A    between atoms: C_19  and  C_20
REMARK                            x       y       z     vdW  Elec       q    Type
REMARK                         _______ _______ _______ _____ _____    ______ ____
ROOT
ATOM      1  C   UNL     1      44.561   4.527  11.948  0.00  0.00    +0.000 A 
ATOM      2  C   UNL     1      44.240   5.795  11.461  0.00  0.00    +0.000 A 
ATOM      3  C   UNL     1      44.900   6.908  11.969  0.00  0.00    +0.000 A 
ATOM      4  F   UNL     1      44.589   8.126  11.505  0.00  0.00    +0.000 F 
ATOM      5  C   UNL     1      45.892   6.782  12.936  0.00  0.00    +0.000 A 
ATOM      6  C   UNL     1      46.267   5.525  13.422  0.00  0.00    +0.000 A 
ATOM      7  C   UNL     1      45.564   4.413  12.926  0.00  0.00    +0.000 A 
ENDROOT
BRANCH   6   8
ATOM      8  N   UNL     1      47.314   5.363  14.308  0.00  0.00    +0.000 N 
ATOM      9  C   UNL     1      47.384   4.229  15.226  0.00  0.00    +0.000 C 
ATOM     10  C   UNL     1      47.685   4.757  16.629  0.00  0.00    +0.000 C 
ATOM     11  C   UNL     1      48.905   5.680  16.656  0.00  0.00    +0.000 C 
ATOM     12  C   UNL     1      48.819   6.790  15.597  0.00  0.00    +0.000 C 
ATOM     13  C   UNL     1      48.522   6.191  14.216  0.00  0.00    +0.000 C 
BRANCH  12  14
ATOM     14  C   UNL     1      50.102   7.600  15.546  0.00  0.00    +0.000 C 
ATOM     15  N   UNL     1      50.810   7.522  14.382  0.00  0.00    +0.000 N 
ATOM     16  O   UNL     1      50.526   8.281  16.474  0.00  0.00    +0.000 OA
ATOM     17  H   UNL     1      50.529   6.968  13.584  0.00  0.00    +0.000 HD
ATOM     18  H   UNL     1      51.677   8.046  14.326  0.00  0.00    +0.000 HD
ENDBRANCH  12  14
ENDBRANCH   6   8
BRANCH   1  19
ATOM     19  C   UNL     1      43.882   3.288  11.415  0.00  0.00    +0.000 C 
BRANCH  19  20
ATOM     20  O   UNL     1      43.513   3.469  10.042  0.00  0.00    +0.000 OA
BRANCH  20  24
ATOM     21  C   UNL     1      46.567   2.395   7.482  0.00  0.00    +0.000 A 
ATOM     22  C   UNL     1      46.138   3.724   7.519  0.00  0.00    +0.000 A 
ATOM     23  C   UNL     1      45.105   4.088   8.383  0.00  0.00    +0.000 A 
ATOM     24  C   UNL     1      44.537   3.109   9.187  0.00  0.00    +0.000 A 
ATOM     25  N   UNL     1      44.941   1.815   9.168  0.00  0.00    +0.000 NA
ATOM     26  C   UNL     1      45.940   1.490   8.321  0.00  0.00    +0.000 A 
BRANCH  21  28
ATOM     27  N   UNL     1      48.454   1.617   5.894  0.00  0.00    +0.000 NA
ATOM     28  C   UNL     1      47.608   1.957   6.612  0.00  0.00    +0.000 C 
ENDBRANCH  21  28
ENDBRANCH  20  24
ENDBRANCH  19  20
ENDBRANCH   1  19
TORSDOF 6
ENDMDL
MODEL 4
REMARK VINA RESULT:    -7.884      2.181      3.211
REMARK INTER + INTRA:         -11.523
REMARK INTER:                 -10.819
REMARK INTRA:                  -0.704
REMARK UNBOUND:                -0.874
REMARK  Name = 
REMARK  6 active torsions:
REMARK  status: ('A' for Active; 'I' for Inactive)
REMARK    1  A    between atoms: C_2  and  C_3
REMARK    2  A    between atoms: C_6  and  O_7
REMARK    3  A    between atoms: O_7  and  C_8
REMARK    4  A    between atoms: C_8  and  C_9
REMARK    5  A    between atoms: C_14  and  N_15
REMARK    6  A    between atoms: C_19  and  C_20
REMARK                            x       y       z     vdW  Elec       q    Type
REMARK                         _______ _______ _______ _____ _____    ______ ____
ROOT
ATOM      1  C   UNL     1      45.076   5.054  11.627  0.00  0.00    +0.000 A 
ATOM      2  C   UNL     1      45.412   3.994  12.472  0.00  0.00    +0.000 A 
ATOM      3  C   UNL     1      46.508   4.117  13.317  0.00  0.00    +0.000 A 
ATOM      4  F   UNL     1      46.834   3.098  14.124  0.00  0.00    +0.000 F 
ATOM      5  C   UNL     1      47.265   5.284  13.357  0.00  0.00    +0.000 A 
ATOM      6  C   UNL     1      46.937   6.380  12.553  0.00  0.00    +0.000 A 
ATOM      7  C   UNL     1      45.848   6.228  11.677  0.00  0.00    +0.000 A 
ENDROOT
BRANCH   6   8
ATOM      8  N   UNL     1      47.609   7.584  12.644  0.00  0.00    +0.000 N 
ATOM      9  C   UNL     1      46.935   8.821  13.031  0.00  0.00    +0.000 C 
ATOM     10  C   UNL     1      47.307   9.912  12.026  0.00  0.00    +0.000 C 
ATOM     11  C   UNL     1      48.820  10.039  11.837  0.00  0.00    +0.000 C 
ATOM     12  C   UNL     1      49.484   8.686  11.535  0.00  0.00    +0.000 C 
ATOM     13  C   UNL     1      49.073   7.643  12.582  0.00  0.00    +0.000 C 
BRANCH  12  14
ATOM     14  C   UNL     1      50.997   8.815  11.496  0.00  0.00    +0.000 C 
ATOM     15  N   UNL     1      51.689   7.944  12.286  0.00  0.00    +0.000 N 
ATOM     16  O   UNL     1      51.602   9.646  10.827  0.00  0.00    +0.000 OA
ATOM     17  H   UNL     1      51.255   7.246  12.876  0.00  0.00    +0.000 HD
ATOM     18  H   UNL     1      52.701   8.016  12.286  0.00  0.00    +0.000 HD
ENDBRANCH  12  14
ENDBRANCH   6   8
BRANCH   1  19
ATOM     19  C   UNL     1      43.884   4.973  10.704  0.00  0.00    +0.000 C 
BRANCH  19  20
ATOM     20  O   UNL     1      43.687   3.626  10.255  0.00  0.00    +0.000 OA
BRANCH  20  24
ATOM     21  C   UNL     1      46.546   2.506   7.497  0.00  0.00    +0.000 A 
ATOM     22  C   UNL     1      46.145   3.843   7.566  0.00  0.00    +0.000 A 
ATOM     23  C   UNL     1      45.178   4.223   8.497  0.00  0.00    +0.000 A 
ATOM     24  C   UNL     1      44.646   3.251   9.333  0.00  0.00    +0.000 A 
ATOM     25  N   UNL     1      45.023   1.950   9.285  0.00  0.00    +0.000 NA
ATOM     26  C   UNL     1      45.959   1.610   8.373  0.00  0.00    +0.000 A 
BRANCH  21  28
ATOM     27  N   UNL     1      48.319   1.672   5.810  0.00  0.00    +0.000 NA
ATOM     28  C   UNL     1      47.519   2.053   6.560  0.00  0.00    +0.000 C 
ENDBRANCH  21  28
ENDBRANCH  20  24
ENDBRANCH  19  20
ENDBRANCH   1  19
TORSDOF 6
ENDMDL
MODEL 5
REMARK VINA RESULT:    -7.782      1.506      2.043
REMARK INTER + INTRA:         -11.386
REMARK INTER:                 -10.386
REMARK INTRA:                  -1.000
REMARK UNBOUND:                -0.874
REMARK  Name = 
REMARK  6 active torsions:
REMARK  status: ('A' for Active; 'I' for Inactive)
REMARK    1  A    between atoms: C_2  and  C_3
REMARK    2  A    between atoms: C_6  and  O_7
REMARK    3  A    between atoms: O_7  and  C_8
REMARK    4  A    between atoms: C_8  and  C_9
REMARK    5  A    between atoms: C_14  and  N_15
REMARK    6  A    between atoms: C_19  and  C_20
REMARK                            x       y       z     vdW  Elec       q    Type
REMARK                         _______ _______ _______ _____ _____    ______ ____
ROOT
ATOM      1  C   UNL     1      44.919   5.270  11.871  0.00  0.00    +0.000 A 
ATOM      2  C   UNL     1      45.931   5.207  12.831  0.00  0.00    +0.000 A 
ATOM      3  C   UNL     1      46.574   6.374  13.224  0.00  0.00    +0.000 A 
ATOM      4  F   UNL     1      47.548   6.312  14.142  0.00  0.00    +0.000 F 
ATOM      5  C   UNL     1      46.215   7.611  12.697  0.00  0.00    +0.000 A 
ATOM      6  C   UNL     1      45.181   7.720  11.760  0.00  0.00    +0.000 A 
ATOM      7  C   UNL     1      44.566   6.526  11.346  0.00  0.00    +0.000 A 
ENDROOT
BRANCH   6   8
ATOM      8  N   UNL     1      44.738   8.943  11.295  0.00  0.00    +0.000 N 
ATOM      9  C   UNL     1      45.628  10.094  11.171  0.00  0.00    +0.000 C 
ATOM     10  C   UNL     1      44.954  11.302  11.824  0.00  0.00    +0.000 C 
ATOM     11  C   UNL     1      43.534  11.530  11.300  0.00  0.00    +0.000 C 
ATOM     12  C   UNL     1      42.680  10.254  11.360  0.00  0.00    +0.000 C 
ATOM     13  C   UNL     1      43.412   9.088  10.685  0.00  0.00    +0.000 C 
BRANCH  12  14
ATOM     14  C   UNL     1      41.328  10.469  10.703  0.00  0.00    +0.000 C 
ATOM     15  N   UNL     1      40.276   9.817  11.277  0.00  0.00    +0.000 N 
ATOM     16  O   UNL     1      41.147  11.161   9.707  0.00  0.00    +0.000 OA
ATOM     17  H   UNL     1      40.355   9.218  12.088  0.00  0.00    +0.000 HD
ATOM     18  H   UNL     1      39.363   9.936  10.851  0.00  0.00    +0.000 HD
ENDBRANCH  12  14
ENDBRANCH   6   8
BRANCH   1  19
ATOM     19  C   UNL     1      44.181   4.030  11.426  0.00  0.00    +0.000 C 
BRANCH  19  20
ATOM     20  O   UNL     1      43.780   4.149  10.055  0.00  0.00    +0.000 OA
BRANCH  20  24
ATOM     21  C   UNL     1      46.574   2.492   7.510  0.00  0.00    +0.000 A 
ATOM     22  C   UNL     1      45.918   1.675   8.435  0.00  0.00    +0.000 A 
ATOM     23  C   UNL     1      44.974   2.234   9.296  0.00  0.00    +0.000 A 
ATOM     24  C   UNL     1      44.714   3.594   9.201  0.00  0.00    +0.000 A 
ATOM     25  N   UNL     1      45.337   4.403   8.310  0.00  0.00    +0.000 NA
ATOM     26  C   UNL     1      46.247   3.836   7.490  0.00  0.00    +0.000 A 
BRANCH  21  28
ATOM     27  N   UNL     1      48.350   1.579   5.866  0.00  0.00    +0.000 NA
ATOM     28  C   UNL     1      47.558   1.984   6.612  0.00  0.00    +0.000 C 
ENDBRANCH  21  28
ENDBRANCH  20  24
ENDBRANCH  19  20
ENDBRANCH   1  19
TORSDOF 6
ENDMDL
MODEL 6
REMARK VINA RESULT:    -7.747      3.576      4.953
REMARK INTER + INTRA:         -11.338
REMARK INTER:                 -10.567
REMARK INTRA:                  -0.771
REMARK UNBOUND:                -0.874
REMARK  Name = 
REMARK  6 active torsions:
REMARK  status: ('A' for Active; 'I' for Inactive)
REMARK    1  A    between atoms: C_2  and  C_3
REMARK    2  A    between atoms: C_6  and  O_7
REMARK    3  A    between atoms: O_7  and  C_8
REMARK    4  A    between atoms: C_8  and  C_9
REMARK    5  A    between atoms: C_14  and  N_15
REMARK    6  A    between atoms: C_19  and  C_20
REMARK                            x       y       z     vdW  Elec       q    Type
REMARK                         _______ _______ _______ _____ _____    ______ ____
ROOT
ATOM      1  C   UNL     1      45.455   4.816  12.296  0.00  0.00    +0.000 A 
ATOM      2  C   UNL     1      45.877   6.007  11.703  0.00  0.00    +0.000 A 
ATOM      3  C   UNL     1      46.813   6.800  12.355  0.00  0.00    +0.000 A 
ATOM      4  F   UNL     1      47.215   7.945  11.788  0.00  0.00    +0.000 F 
ATOM      5  C   UNL     1      47.357   6.420  13.578  0.00  0.00    +0.000 A 
ATOM      6  C   UNL     1      46.987   5.216  14.186  0.00  0.00    +0.000 A 
ATOM      7  C   UNL     1      46.012   4.443  13.532  0.00  0.00    +0.000 A 
ENDROOT
BRANCH   6   8
ATOM      8  N   UNL     1      47.583   4.767  15.349  0.00  0.00    +0.000 N 
ATOM      9  C   UNL     1      47.598   3.354  15.717  0.00  0.00    +0.000 C 
ATOM     10  C   UNL     1      47.136   3.224  17.169  0.00  0.00    +0.000 C 
ATOM     11  C   UNL     1      47.919   4.140  18.113  0.00  0.00    +0.000 C 
ATOM     12  C   UNL     1      47.954   5.594  17.616  0.00  0.00    +0.000 C 
ATOM     13  C   UNL     1      48.430   5.650  16.158  0.00  0.00    +0.000 C 
BRANCH  12  14
ATOM     14  C   UNL     1      48.855   6.450  18.489  0.00  0.00    +0.000 C 
ATOM     15  N   UNL     1      48.852   7.787  18.218  0.00  0.00    +0.000 N 
ATOM     16  O   UNL     1      49.573   6.009  19.380  0.00  0.00    +0.000 OA
ATOM     17  H   UNL     1      48.299   8.216  17.488  0.00  0.00    +0.000 HD
ATOM     18  H   UNL     1      49.454   8.380  18.781  0.00  0.00    +0.000 HD
ENDBRANCH  12  14
ENDBRANCH   6   8
BRANCH   1  19
ATOM     19  C   UNL     1      44.452   3.914  11.617  0.00  0.00    +0.000 C 
BRANCH  19  20
ATOM     20  O   UNL     1      44.170   4.384  10.293  0.00  0.00    +0.000 OA
BRANCH  20  24
ATOM     21  C   UNL     1      46.632   2.612   7.495  0.00  0.00    +0.000 A 
ATOM     22  C   UNL     1      45.949   1.811   8.413  0.00  0.00    +0.000 A 
ATOM     23  C   UNL     1      45.116   2.409   9.360  0.00  0.00    +0.000 A 
ATOM     24  C   UNL     1      44.993   3.791   9.354  0.00  0.00    +0.000 A 
ATOM     25  N   UNL     1      45.645   4.586   8.471  0.00  0.00    +0.000 NA
ATOM     26  C   UNL     1      46.445   3.981   7.567  0.00  0.00    +0.000 A 
BRANCH  21  28
ATOM     27  N   UNL     1      48.230   1.608   5.726  0.00  0.00    +0.000 NA
ATOM     28  C   UNL     1      47.507   2.063   6.512  0.00  0.00    +0.000 C 
ENDBRANCH  21  28
ENDBRANCH  20  24
ENDBRANCH  19  20
ENDBRANCH   1  19
TORSDOF 6
ENDMDL
MODEL 7
REMARK VINA RESULT:    -7.679      2.831      3.967
REMARK INTER + INTRA:         -11.247
REMARK INTER:                 -10.270
REMARK INTRA:                  -0.977
REMARK UNBOUND:                -0.874
REMARK  Name = 
REMARK  6 active torsions:
REMARK  status: ('A' for Active; 'I' for Inactive)
REMARK    1  A    between atoms: C_2  and  C_3
REMARK    2  A    between atoms: C_6  and  O_7
REMARK    3  A    between atoms: O_7  and  C_8
REMARK    4  A    between atoms: C_8  and  C_9
REMARK    5  A    between atoms: C_14  and  N_15
REMARK    6  A    between atoms: C_19  and  C_20
REMARK                            x       y       z     vdW  Elec       q    Type
REMARK                         _______ _______ _______ _____ _____    ______ ____
ROOT
ATOM      1  C   UNL     1      44.752   5.603  11.697  0.00  0.00    +0.000 A 
ATOM      2  C   UNL     1      44.173   6.818  11.326  0.00  0.00    +0.000 A 
ATOM      3  C   UNL     1      44.820   8.006  11.642  0.00  0.00    +0.000 A 
ATOM      4  F   UNL     1      44.263   9.173  11.290  0.00  0.00    +0.000 F 
ATOM      5  C   UNL     1      46.046   8.011  12.301  0.00  0.00    +0.000 A 
ATOM      6  C   UNL     1      46.674   6.813  12.656  0.00  0.00    +0.000 A 
ATOM      7  C   UNL     1      45.990   5.620  12.362  0.00  0.00    +0.000 A 
ENDROOT
BRANCH   6   8
ATOM      8  N   UNL     1      47.935   6.784  13.221  0.00  0.00    +0.000 N 
ATOM      9  C   UNL     1      48.175   6.237  14.553  0.00  0.00    +0.000 C 
ATOM     10  C   UNL     1      49.009   7.242  15.349  0.00  0.00    +0.000 C 
ATOM     11  C   UNL     1      50.270   7.676  14.598  0.00  0.00    +0.000 C 
ATOM     12  C   UNL     1      49.962   8.144  13.166  0.00  0.00    +0.000 C 
ATOM     13  C   UNL     1      49.130   7.089  12.426  0.00  0.00    +0.000 C 
BRANCH  12  14
ATOM     14  C   UNL     1      51.240   8.430  12.397  0.00  0.00    +0.000 C 
ATOM     15  N   UNL     1      52.396   8.010  12.986  0.00  0.00    +0.000 N 
ATOM     16  O   UNL     1      51.280   9.017  11.321  0.00  0.00    +0.000 OA
ATOM     17  H   UNL     1      52.438   7.536  13.879  0.00  0.00    +0.000 HD
ATOM     18  H   UNL     1      53.265   8.198  12.497  0.00  0.00    +0.000 HD
ENDBRANCH  12  14
ENDBRANCH   6   8
BRANCH   1  19
ATOM     19  C   UNL     1      44.093   4.286  11.360  0.00  0.00    +0.000 C 
BRANCH  19  20
ATOM     20  O   UNL     1      43.687   4.265   9.986  0.00  0.00    +0.000 OA
BRANCH  20  24
ATOM     21  C   UNL     1      46.566   2.544   7.580  0.00  0.00    +0.000 A 
ATOM     22  C   UNL     1      45.842   1.742   8.466  0.00  0.00    +0.000 A 
ATOM     23  C   UNL     1      44.869   2.322   9.281  0.00  0.00    +0.000 A 
ATOM     24  C   UNL     1      44.649   3.689   9.179  0.00  0.00    +0.000 A 
ATOM     25  N   UNL     1      45.338   4.484   8.323  0.00  0.00    +0.000 NA
ATOM     26  C   UNL     1      46.274   3.897   7.549  0.00  0.00    +0.000 A 
BRANCH  21  28
ATOM     27  N   UNL     1      48.394   1.577   6.028  0.00  0.00    +0.000 NA
ATOM     28  C   UNL     1      47.580   2.014   6.732  0.00  0.00    +0.000 C 
ENDBRANCH  21  28
ENDBRANCH  20  24
ENDBRANCH  19  20
ENDBRANCH   1  19
TORSDOF 6
ENDMDL
MODEL 8
REMARK VINA RESULT:    -7.344      4.327      7.630
REMARK INTER + INTRA:         -10.794
REMARK INTER:                  -9.873
REMARK INTRA:                  -0.921
REMARK UNBOUND:                -0.874
REMARK  Name = 
REMARK  6 active torsions:
REMARK  status: ('A' for Active; 'I' for Inactive)
REMARK    1  A    between atoms: C_2  and  C_3
REMARK    2  A    between atoms: C_6  and  O_7
REMARK    3  A    between atoms: O_7  and  C_8
REMARK    4  A    between atoms: C_8  and  C_9
REMARK    5  A    between atoms: C_14  and  N_15
REMARK    6  A    between atoms: C_19  and  C_20
REMARK                            x       y       z     vdW  Elec       q    Type
REMARK                         _______ _______ _______ _____ _____    ______ ____
ROOT
ATOM      1  C   UNL     1      48.120   6.511  14.343  0.00  0.00    +0.000 A 
ATOM      2  C   UNL     1      48.809   7.384  13.499  0.00  0.00    +0.000 A 
ATOM      3  C   UNL     1      48.380   7.545  12.187  0.00  0.00    +0.000 A 
ATOM      4  F   UNL     1      49.044   8.379  11.375  0.00  0.00    +0.000 F 
ATOM      5  C   UNL     1      47.262   6.873  11.703  0.00  0.00    +0.000 A 
ATOM      6  C   UNL     1      46.524   6.019  12.530  0.00  0.00    +0.000 A 
ATOM      7  C   UNL     1      46.992   5.838  13.843  0.00  0.00    +0.000 A 
ENDROOT
BRANCH   6   8
ATOM      8  N   UNL     1      45.355   5.417  12.106  0.00  0.00    +0.000 N 
ATOM      9  C   UNL     1      44.126   5.471  12.893  0.00  0.00    +0.000 C 
ATOM     10  C   UNL     1      43.555   4.056  13.002  0.00  0.00    +0.000 C 
ATOM     11  C   UNL     1      43.414   3.378  11.637  0.00  0.00    +0.000 C 
ATOM     12  C   UNL     1      44.711   3.447  10.816  0.00  0.00    +0.000 C 
ATOM     13  C   UNL     1      45.222   4.891  10.743  0.00  0.00    +0.000 C 
BRANCH  12  14
ATOM     14  C   UNL     1      44.502   2.899   9.415  0.00  0.00    +0.000 C 
ATOM     15  N   UNL     1      44.245   3.824   8.446  0.00  0.00    +0.000 N 
ATOM     16  O   UNL     1      44.534   1.707   9.129  0.00  0.00    +0.000 OA
ATOM     17  H   UNL     1      44.187   4.819   8.614  0.00  0.00    +0.000 HD
ATOM     18  H   UNL     1      44.091   3.482   7.503  0.00  0.00    +0.000 HD
ENDBRANCH  12  14
ENDBRANCH   6   8
BRANCH   1  19
ATOM     19  C   UNL     1      48.540   6.317  15.781  0.00  0.00    +0.000 C 
BRANCH  19  20
ATOM     20  O   UNL     1      47.936   5.137  16.325  0.00  0.00    +0.000 OA
BRANCH  20  24
ATOM     21  C   UNL     1      50.772   2.338  17.399  0.00  0.00    +0.000 A 
ATOM     22  C   UNL     1      50.955   3.674  17.762  0.00  0.00    +0.000 A 
ATOM     23  C   UNL     1      49.997   4.622  17.399  0.00  0.00    +0.000 A 
ATOM     24  C   UNL     1      48.884   4.199  16.686  0.00  0.00    +0.000 A 
ATOM     25  N   UNL     1      48.685   2.907  16.327  0.00  0.00    +0.000 NA
ATOM     26  C   UNL     1      49.629   2.012  16.690  0.00  0.00    +0.000 A 
BRANCH  21  28
ATOM     27  N   UNL     1      52.478   0.492  18.008  0.00  0.00    +0.000 NA
ATOM     28  C   UNL     1      51.719   1.325  17.729  0.00  0.00    +0.000 C 
ENDBRANCH  21  28
ENDBRANCH  20  24
ENDBRANCH  19  20
ENDBRANCH   1  19
TORSDOF 6
ENDMDL
MODEL 9
REMARK VINA RESULT:    -6.887      3.962      8.077
REMARK INTER + INTRA:         -10.176
REMARK INTER:                  -9.229
REMARK INTRA:                  -0.947
REMARK UNBOUND:                -0.874
REMARK  Name = 
REMARK  6 active torsions:
REMARK  status: ('A' for Active; 'I' for Inactive)
REMARK    1  A    between atoms: C_2  and  C_3
REMARK    2  A    between atoms: C_6  and  O_7
REMARK    3  A    between atoms: O_7  and  C_8
REMARK    4  A    between atoms: C_8  and  C_9
REMARK    5  A    between atoms: C_14  and  N_15
REMARK    6  A    between atoms: C_19  and  C_20
REMARK                            x       y       z     vdW  Elec       q    Type
REMARK                         _______ _______ _______ _____ _____    ______ ____
ROOT
ATOM      1  C   UNL     1      47.033   7.599  13.255  0.00  0.00    +0.000 A 
ATOM      2  C   UNL     1      46.579   8.882  12.946  0.00  0.00    +0.000 A 
ATOM      3  C   UNL     1      45.440   9.033  12.165  0.00  0.00    +0.000 A 
ATOM      4  F   UNL     1      45.006  10.265  11.864  0.00  0.00    +0.000 F 
ATOM      5  C   UNL     1      44.727   7.931  11.704  0.00  0.00    +0.000 A 
ATOM      6  C   UNL     1      45.129   6.630  12.024  0.00  0.00    +0.000 A 
ATOM      7  C   UNL     1      46.304   6.493  12.784  0.00  0.00    +0.000 A 
ENDROOT
BRANCH   6   8
ATOM      8  N   UNL     1      44.386   5.522  11.664  0.00  0.00    +0.000 N 
ATOM      9  C   UNL     1      43.279   5.033  12.481  0.00  0.00    +0.000 C 
ATOM     10  C   UNL     1      43.449   3.525  12.678  0.00  0.00    +0.000 C 
ATOM     11  C   UNL     1      43.646   2.784  11.354  0.00  0.00    +0.000 C 
ATOM     12  C   UNL     1      44.756   3.411  10.495  0.00  0.00    +0.000 C 
ATOM     13  C   UNL     1      44.519   4.918  10.334  0.00  0.00    +0.000 C 
BRANCH  12  14
ATOM     14  C   UNL     1      44.832   2.749   9.130  0.00  0.00    +0.000 C 
ATOM     15  N   UNL     1      44.357   3.485   8.084  0.00  0.00    +0.000 N 
ATOM     16  O   UNL     1      45.267   1.620   8.935  0.00  0.00    +0.000 OA
ATOM     17  H   UNL     1      43.970   4.415   8.175  0.00  0.00    +0.000 HD
ATOM     18  H   UNL     1      44.388   3.062   7.162  0.00  0.00    +0.000 HD
ENDBRANCH  12  14
ENDBRANCH   6   8
BRANCH   1  19
ATOM     19  C   UNL     1      48.257   7.386  14.115  0.00  0.00    +0.000 C 
BRANCH  19  20
ATOM     20  O   UNL     1      48.441   5.992  14.390  0.00  0.00    +0.000 OA
BRANCH  20  24
ATOM     21  C   UNL     1      48.555   5.242  18.447  0.00  0.00    +0.000 A 
ATOM     22  C   UNL     1      48.946   6.496  17.969  0.00  0.00    +0.000 A 
ATOM     23  C   UNL     1      48.908   6.751  16.598  0.00  0.00    +0.000 A 
ATOM     24  C   UNL     1      48.477   5.741  15.748  0.00  0.00    +0.000 A 
ATOM     25  N   UNL     1      48.091   4.519  16.192  0.00  0.00    +0.000 NA
ATOM     26  C   UNL     1      48.139   4.300  17.523  0.00  0.00    +0.000 A 
BRANCH  21  28
ATOM     27  N   UNL     1      48.605   4.632  20.960  0.00  0.00    +0.000 NA
ATOM     28  C   UNL     1      48.583   4.916  19.834  0.00  0.00    +0.000 C 
ENDBRANCH  21  28
ENDBRANCH  20  24
ENDBRANCH  19  20
ENDBRANCH   1  19
TORSDOF 6
ENDMDL
