MODEL 1
REMARK VINA RESULT:    -8.297      0.000      0.000
REMARK INTER + INTRA:         -10.961
REMARK INTER:                 -10.723
REMARK INTRA:                  -0.239
REMARK UNBOUND:                -0.239
REMARK  Name = 
REMARK  5 active torsions:
REMARK  status: ('A' for Active; 'I' for Inactive)
REMARK    1  A    between atoms: C_2  and  C_18
REMARK    2  A    between atoms: N_3  and  C_4
REMARK    3  A    between atoms: C_4  and  C_5
REMARK    4  A    between atoms: C_8  and  C_9
REMARK    5  A    between atoms: C_9  and  C_10
REMARK                            x       y       z     vdW  Elec       q    Type
REMARK                         _______ _______ _______ _____ _____    ______ ____
ROOT
ATOM      1  O   UNL     1      47.025   3.522  14.117  0.00  0.00    +0.000 OA
ATOM      2  C   UNL     1      46.941   4.709  14.387  0.00  0.00    +0.000 C 
ATOM      3  N   UNL     1      45.869   5.516  14.037  0.00  0.00    +0.000 N 
ATOM      4  H   UNL     1      45.769   6.401  14.524  0.00  0.00    +0.000 HD
ENDROOT
BRANCH   2   5
ATOM      5  C   UNL     1      47.823   5.410  15.304  0.00  0.00    +0.000 A 
ATOM      6  C   UNL     1      48.452   6.594  14.967  0.00  0.00    +0.000 A 
ATOM      7  S   UNL     1      49.879   6.821  15.895  0.00  0.00    +0.000 S 
ATOM      8  C   UNL     1      49.547   5.443  16.847  0.00  0.00    +0.000 A 
ATOM      9  N   UNL     1      50.437   4.934  17.738  0.00  0.00    +0.000 NA
ATOM     10  C   UNL     1      49.990   3.923  18.413  0.00  0.00    +0.000 A 
ATOM     11  N   UNL     1      48.718   3.411  18.318  0.00  0.00    +0.000 N 
ATOM     12  C   UNL     1      47.785   3.894  17.433  0.00  0.00    +0.000 A 
ATOM     13  O   UNL     1      46.633   3.476  17.407  0.00  0.00    +0.000 OA
ATOM     14  C   UNL     1      48.298   4.936  16.567  0.00  0.00    +0.000 A 
ATOM     15  H   UNL     1      48.402   2.685  18.945  0.00  0.00    +0.000 HD
ENDBRANCH   2   5
BRANCH   3  16
ATOM     16  C   UNL     1      44.659   4.981  13.489  0.00  0.00    +0.000 C 
BRANCH  16  17
ATOM     17  C   UNL     1      44.816   4.768  12.005  0.00  0.00    +0.000 A 
ATOM     18  C   UNL     1      45.658   5.603  11.262  0.00  0.00    +0.000 A 
ATOM     19  C   UNL     1      45.827   5.408   9.889  0.00  0.00    +0.000 A 
ATOM     20  C   UNL     1      45.143   4.381   9.226  0.00  0.00    +0.000 A 
ATOM     21  C   UNL     1      44.263   3.572   9.961  0.00  0.00    +0.000 A 
ATOM     22  C   UNL     1      44.095   3.771  11.335  0.00  0.00    +0.000 A 
BRANCH  20  23
ATOM     23  C   UNL     1      45.395   4.113   7.758  0.00  0.00    +0.000 C 
BRANCH  23  24
ATOM     24  C   UNL     1      46.141   2.834   7.520  0.00  0.00    +0.000 A 
ATOM     25  C   UNL     1      45.797   1.646   8.134  0.00  0.00    +0.000 A 
ATOM     26  N   UNL     1      46.492   0.500   8.000  0.00  0.00    +0.000 NA
ATOM     27  C   UNL     1      47.579   0.569   7.217  0.00  0.00    +0.000 A 
ATOM     28  N   UNL     1      48.001   1.651   6.546  0.00  0.00    +0.000 NA
ATOM     29  C   UNL     1      47.264   2.767   6.719  0.00  0.00    +0.000 A 
ENDBRANCH  23  24
ENDBRANCH  20  23
ENDBRANCH  16  17
ENDBRANCH   3  16
TORSDOF 5
ENDMDL
MODEL 2
REMARK VINA RESULT:    -7.957      1.941      2.818
REMARK INTER + INTRA:         -10.521
REMARK INTER:                  -9.651
REMARK INTRA:                  -0.871
REMARK UNBOUND:                -0.239
REMARK  Name = 
REMARK  5 active torsions:
REMARK  status: ('A' for Active; 'I' for Inactive)
REMARK    1  A    between atoms: C_2  and  C_18
REMARK    2  A    between atoms: N_3  and  C_4
REMARK    3  A    between atoms: C_4  and  C_5
REMARK    4  A    between atoms: C_8  and  C_9
REMARK    5  A    between atoms: C_9  and  C_10
REMARK                            x       y       z     vdW  Elec       q    Type
REMARK                         _______ _______ _______ _____ _____    ______ ____
ROOT
ATOM      1  O   UNL     1      48.599   8.203  16.678  0.00  0.00    +0.000 OA
ATOM      2  C   UNL     1      48.780   7.041  16.355  0.00  0.00    +0.000 C 
ATOM      3  N   UNL     1      48.444   6.513  15.117  0.00  0.00    +0.000 N 
ATOM      4  H   UNL     1      48.866   5.627  14.854  0.00  0.00    +0.000 HD
ENDROOT
BRANCH   2   5
ATOM      5  C   UNL     1      49.574   6.088  17.112  0.00  0.00    +0.000 A 
ATOM      6  C   UNL     1      50.788   6.424  17.681  0.00  0.00    +0.000 A 
ATOM      7  S   UNL     1      51.774   5.035  17.895  0.00  0.00    +0.000 S 
ATOM      8  C   UNL     1      50.516   3.994  17.397  0.00  0.00    +0.000 A 
ATOM      9  N   UNL     1      50.703   2.667  17.176  0.00  0.00    +0.000 NA
ATOM     10  C   UNL     1      49.623   2.025  16.862  0.00  0.00    +0.000 A 
ATOM     11  N   UNL     1      48.366   2.577  16.805  0.00  0.00    +0.000 N 
ATOM     12  C   UNL     1      48.128   3.913  17.022  0.00  0.00    +0.000 A 
ATOM     13  O   UNL     1      46.995   4.380  17.037  0.00  0.00    +0.000 OA
ATOM     14  C   UNL     1      49.334   4.684  17.240  0.00  0.00    +0.000 A 
ATOM     15  H   UNL     1      47.551   2.000  16.651  0.00  0.00    +0.000 HD
ENDBRANCH   2   5
BRANCH   3  16
ATOM     16  C   UNL     1      48.027   7.339  14.023  0.00  0.00    +0.000 C 
BRANCH  16  17
ATOM     17  C   UNL     1      47.019   6.603  13.179  0.00  0.00    +0.000 A 
ATOM     18  C   UNL     1      46.287   7.288  12.203  0.00  0.00    +0.000 A 
ATOM     19  C   UNL     1      45.361   6.616  11.401  0.00  0.00    +0.000 A 
ATOM     20  C   UNL     1      45.136   5.244  11.570  0.00  0.00    +0.000 A 
ATOM     21  C   UNL     1      45.836   4.565  12.578  0.00  0.00    +0.000 A 
ATOM     22  C   UNL     1      46.761   5.240  13.381  0.00  0.00    +0.000 A 
BRANCH  20  23
ATOM     23  C   UNL     1      44.201   4.499  10.642  0.00  0.00    +0.000 C 
BRANCH  23  24
ATOM     24  C   UNL     1      44.921   3.806   9.524  0.00  0.00    +0.000 A 
ATOM     25  C   UNL     1      45.090   2.436   9.483  0.00  0.00    +0.000 A 
ATOM     26  N   UNL     1      45.795   1.792   8.533  0.00  0.00    +0.000 NA
ATOM     27  C   UNL     1      46.354   2.572   7.596  0.00  0.00    +0.000 A 
ATOM     28  N   UNL     1      46.242   3.906   7.511  0.00  0.00    +0.000 NA
ATOM     29  C   UNL     1      45.523   4.494   8.488  0.00  0.00    +0.000 A 
ENDBRANCH  23  24
ENDBRANCH  20  23
ENDBRANCH  16  17
ENDBRANCH   3  16
TORSDOF 5
ENDMDL
MODEL 3
REMARK VINA RESULT:    -7.919      1.785      2.987
REMARK INTER + INTRA:         -10.472
REMARK INTER:                  -9.647
REMARK INTRA:                  -0.825
REMARK UNBOUND:                -0.239
REMARK  Name = 
REMARK  5 active torsions:
REMARK  status: ('A' for Active; 'I' for Inactive)
REMARK    1  A    between atoms: C_2  and  C_18
REMARK    2  A    between atoms: N_3  and  C_4
REMARK    3  A    between atoms: C_4  and  C_5
REMARK    4  A    between atoms: C_8  and  C_9
REMARK    5  A    between atoms: C_9  and  C_10
REMARK                            x       y       z     vdW  Elec       q    Type
REMARK                         _______ _______ _______ _____ _____    ______ ____
ROOT
ATOM      1  O   UNL     1      47.256   3.546  15.501  0.00  0.00    +0.000 OA
ATOM      2  C   UNL     1      47.305   4.701  15.111  0.00  0.00    +0.000 C 
ATOM      3  N   UNL     1      46.351   5.292  14.295  0.00  0.00    +0.000 N 
ATOM      4  H   UNL     1      46.339   6.306  14.244  0.00  0.00    +0.000 HD
ENDROOT
BRANCH   2   5
ATOM      5  C   UNL     1      48.228   5.703  15.615  0.00  0.00    +0.000 A 
ATOM      6  C   UNL     1      48.572   5.788  16.951  0.00  0.00    +0.000 A 
ATOM      7  S   UNL     1      49.085   7.375  17.357  0.00  0.00    +0.000 S 
ATOM      8  C   UNL     1      49.012   7.877  15.726  0.00  0.00    +0.000 A 
ATOM      9  N   UNL     1      49.160   9.174  15.349  0.00  0.00    +0.000 NA
ATOM     10  C   UNL     1      49.135   9.358  14.067  0.00  0.00    +0.000 A 
ATOM     11  N   UNL     1      49.033   8.359  13.129  0.00  0.00    +0.000 N 
ATOM     12  C   UNL     1      48.883   7.035  13.463  0.00  0.00    +0.000 A 
ATOM     13  O   UNL     1      48.863   6.147  12.619  0.00  0.00    +0.000 OA
ATOM     14  C   UNL     1      48.769   6.811  14.890  0.00  0.00    +0.000 A 
ATOM     15  H   UNL     1      49.120   8.561  12.143  0.00  0.00    +0.000 HD
ENDBRANCH   2   5
BRANCH   3  16
ATOM     16  C   UNL     1      45.107   4.650  13.989  0.00  0.00    +0.000 C 
BRANCH  16  17
ATOM     17  C   UNL     1      44.973   4.475  12.498  0.00  0.00    +0.000 A 
ATOM     18  C   UNL     1      45.578   5.387  11.627  0.00  0.00    +0.000 A 
ATOM     19  C   UNL     1      45.477   5.228  10.243  0.00  0.00    +0.000 A 
ATOM     20  C   UNL     1      44.751   4.160   9.699  0.00  0.00    +0.000 A 
ATOM     21  C   UNL     1      44.105   3.271  10.572  0.00  0.00    +0.000 A 
ATOM     22  C   UNL     1      44.207   3.433  11.957  0.00  0.00    +0.000 A 
BRANCH  20  23
ATOM     23  C   UNL     1      44.717   3.936   8.203  0.00  0.00    +0.000 C 
BRANCH  23  24
ATOM     24  C   UNL     1      45.850   3.085   7.716  0.00  0.00    +0.000 A 
ATOM     25  C   UNL     1      46.747   3.516   6.757  0.00  0.00    +0.000 A 
ATOM     26  N   UNL     1      47.728   2.749   6.244  0.00  0.00    +0.000 NA
ATOM     27  C   UNL     1      47.795   1.497   6.719  0.00  0.00    +0.000 A 
ATOM     28  N   UNL     1      47.004   0.969   7.665  0.00  0.00    +0.000 NA
ATOM     29  C   UNL     1      46.042   1.785   8.142  0.00  0.00    +0.000 A 
ENDBRANCH  23  24
ENDBRANCH  20  23
ENDBRANCH  16  17
ENDBRANCH   3  16
TORSDOF 5
ENDMDL
MODEL 4
REMARK VINA RESULT:    -7.802      3.130      4.216
REMARK INTER + INTRA:         -10.321
REMARK INTER:                  -8.984
REMARK INTRA:                  -1.337
REMARK UNBOUND:                -0.239
REMARK  Name = 
REMARK  5 active torsions:
REMARK  status: ('A' for Active; 'I' for Inactive)
REMARK    1  A    between atoms: C_2  and  C_18
REMARK    2  A    between atoms: N_3  and  C_4
REMARK    3  A    between atoms: C_4  and  C_5
REMARK    4  A    between atoms: C_8  and  C_9
REMARK    5  A    between atoms: C_9  and  C_10
REMARK                            x       y       z     vdW  Elec       q    Type
REMARK                         _______ _______ _______ _____ _____    ______ ____
ROOT
ATOM      1  O   UNL     1      50.143   7.176  15.335  0.00  0.00    +0.000 OA
ATOM      2  C   UNL     1      49.166   7.438  16.017  0.00  0.00    +0.000 C 
ATOM      3  N   UNL     1      48.259   8.447  15.729  0.00  0.00    +0.000 N 
ATOM      4  H   UNL     1      47.357   8.416  16.196  0.00  0.00    +0.000 HD
ENDROOT
BRANCH   2   5
ATOM      5  C   UNL     1      48.668   6.605  17.099  0.00  0.00    +0.000 A 
ATOM      6  C   UNL     1      48.825   6.947  18.429  0.00  0.00    +0.000 A 
ATOM      7  S   UNL     1      48.778   5.555  19.433  0.00  0.00    +0.000 S 
ATOM      8  C   UNL     1      48.375   4.547  18.115  0.00  0.00    +0.000 A 
ATOM      9  N   UNL     1      48.343   3.192  18.208  0.00  0.00    +0.000 NA
ATOM     10  C   UNL     1      47.959   2.597  17.124  0.00  0.00    +0.000 A 
ATOM     11  N   UNL     1      47.551   3.233  15.976  0.00  0.00    +0.000 N 
ATOM     12  C   UNL     1      47.565   4.600  15.836  0.00  0.00    +0.000 A 
ATOM     13  O   UNL     1      47.133   5.157  14.835  0.00  0.00    +0.000 OA
ATOM     14  C   UNL     1      48.120   5.290  16.983  0.00  0.00    +0.000 A 
ATOM     15  H   UNL     1      47.168   2.711  15.200  0.00  0.00    +0.000 HD
ENDBRANCH   2   5
BRANCH   3  16
ATOM     16  C   UNL     1      48.277   9.157  14.484  0.00  0.00    +0.000 C 
BRANCH  16  17
ATOM     17  C   UNL     1      47.591   8.342  13.419  0.00  0.00    +0.000 A 
ATOM     18  C   UNL     1      48.349   7.618  12.492  0.00  0.00    +0.000 A 
ATOM     19  C   UNL     1      47.728   6.844  11.509  0.00  0.00    +0.000 A 
ATOM     20  C   UNL     1      46.330   6.792  11.421  0.00  0.00    +0.000 A 
ATOM     21  C   UNL     1      45.570   7.554  12.320  0.00  0.00    +0.000 A 
ATOM     22  C   UNL     1      46.195   8.329  13.303  0.00  0.00    +0.000 A 
BRANCH  20  23
ATOM     23  C   UNL     1      45.657   5.885  10.415  0.00  0.00    +0.000 C 
BRANCH  23  24
ATOM     24  C   UNL     1      44.912   4.754  11.058  0.00  0.00    +0.000 A 
ATOM     25  C   UNL     1      43.613   4.428  10.717  0.00  0.00    +0.000 A 
ATOM     26  N   UNL     1      42.892   3.469  11.328  0.00  0.00    +0.000 NA
ATOM     27  C   UNL     1      43.513   2.823  12.326  0.00  0.00    +0.000 A 
ATOM     28  N   UNL     1      44.775   3.027  12.733  0.00  0.00    +0.000 NA
ATOM     29  C   UNL     1      45.447   3.998  12.083  0.00  0.00    +0.000 A 
ENDBRANCH  23  24
ENDBRANCH  20  23
ENDBRANCH  16  17
ENDBRANCH   3  16
TORSDOF 5
ENDMDL
MODEL 5
REMARK VINA RESULT:    -7.545      2.942      3.598
REMARK INTER + INTRA:          -9.989
REMARK INTER:                  -9.914
REMARK INTRA:                  -0.075
REMARK UNBOUND:                -0.239
REMARK  Name = 
REMARK  5 active torsions:
REMARK  status: ('A' for Active; 'I' for Inactive)
REMARK    1  A    between atoms: C_2  and  C_18
REMARK    2  A    between atoms: N_3  and  C_4
REMARK    3  A    between atoms: C_4  and  C_5
REMARK    4  A    between atoms: C_8  and  C_9
REMARK    5  A    between atoms: C_9  and  C_10
REMARK                            x       y       z     vdW  Elec       q    Type
REMARK                         _______ _______ _______ _____ _____    ______ ____
ROOT
ATOM      1  O   UNL     1      48.204   5.727  13.211  0.00  0.00    +0.000 OA
ATOM      2  C   UNL     1      47.915   6.834  12.787  0.00  0.00    +0.000 C 
ATOM      3  N   UNL     1      46.622   7.252  12.510  0.00  0.00    +0.000 N 
ATOM      4  H   UNL     1      46.460   8.250  12.418  0.00  0.00    +0.000 HD
ENDROOT
BRANCH   2   5
ATOM      5  C   UNL     1      48.834   7.958  12.723  0.00  0.00    +0.000 A 
ATOM      6  C   UNL     1      48.747   8.929  11.744  0.00  0.00    +0.000 A 
ATOM      7  S   UNL     1      50.265   9.694  11.497  0.00  0.00    +0.000 S 
ATOM      8  C   UNL     1      50.966   8.852  12.807  0.00  0.00    +0.000 A 
ATOM      9  N   UNL     1      52.297   8.888  13.076  0.00  0.00    +0.000 NA
ATOM     10  C   UNL     1      52.639   8.238  14.143  0.00  0.00    +0.000 A 
ATOM     11  N   UNL     1      51.766   7.606  14.994  0.00  0.00    +0.000 N 
ATOM     12  C   UNL     1      50.413   7.545  14.765  0.00  0.00    +0.000 A 
ATOM     13  O   UNL     1      49.637   7.038  15.567  0.00  0.00    +0.000 OA
ATOM     14  C   UNL     1      50.015   8.144  13.507  0.00  0.00    +0.000 A 
ATOM     15  H   UNL     1      52.088   7.202  15.863  0.00  0.00    +0.000 HD
ENDBRANCH   2   5
BRANCH   3  16
ATOM     16  C   UNL     1      45.475   6.479  12.883  0.00  0.00    +0.000 C 
BRANCH  16  17
ATOM     17  C   UNL     1      45.266   5.359  11.897  0.00  0.00    +0.000 A 
ATOM     18  C   UNL     1      45.228   5.630  10.525  0.00  0.00    +0.000 A 
ATOM     19  C   UNL     1      45.052   4.600   9.598  0.00  0.00    +0.000 A 
ATOM     20  C   UNL     1      44.893   3.275  10.026  0.00  0.00    +0.000 A 
ATOM     21  C   UNL     1      44.886   3.009  11.403  0.00  0.00    +0.000 A 
ATOM     22  C   UNL     1      45.061   4.042  12.329  0.00  0.00    +0.000 A 
BRANCH  20  23
ATOM     23  C   UNL     1      44.794   2.150   9.020  0.00  0.00    +0.000 C 
BRANCH  23  24
ATOM     24  C   UNL     1      45.861   2.212   7.969  0.00  0.00    +0.000 A 
ATOM     25  C   UNL     1      45.922   3.223   7.029  0.00  0.00    +0.000 A 
ATOM     26  N   UNL     1      46.821   3.266   6.027  0.00  0.00    +0.000 NA
ATOM     27  C   UNL     1      47.684   2.240   5.976  0.00  0.00    +0.000 A 
ATOM     28  N   UNL     1      47.745   1.218   6.841  0.00  0.00    +0.000 NA
ATOM     29  C   UNL     1      46.821   1.230   7.823  0.00  0.00    +0.000 A 
ENDBRANCH  23  24
ENDBRANCH  20  23
ENDBRANCH  16  17
ENDBRANCH   3  16
TORSDOF 5
ENDMDL
MODEL 6
REMARK VINA RESULT:    -7.325      2.165      2.804
REMARK INTER + INTRA:          -9.705
REMARK INTER:                  -9.155
REMARK INTRA:                  -0.551
REMARK UNBOUND:                -0.239
REMARK  Name = 
REMARK  5 active torsions:
REMARK  status: ('A' for Active; 'I' for Inactive)
REMARK    1  A    between atoms: C_2  and  C_18
REMARK    2  A    between atoms: N_3  and  C_4
REMARK    3  A    between atoms: C_4  and  C_5
REMARK    4  A    between atoms: C_8  and  C_9
REMARK    5  A    between atoms: C_9  and  C_10
REMARK                            x       y       z     vdW  Elec       q    Type
REMARK                         _______ _______ _______ _____ _____    ______ ____
ROOT
ATOM      1  O   UNL     1      49.331   6.693  13.688  0.00  0.00    +0.000 OA
ATOM      2  C   UNL     1      48.443   6.682  14.525  0.00  0.00    +0.000 C 
ATOM      3  N   UNL     1      47.233   7.347  14.390  0.00  0.00    +0.000 N 
ATOM      4  H   UNL     1      46.472   7.068  15.001  0.00  0.00    +0.000 HD
ENDROOT
BRANCH   2   5
ATOM      5  C   UNL     1      48.408   5.800  15.678  0.00  0.00    +0.000 A 
ATOM      6  C   UNL     1      47.605   4.676  15.726  0.00  0.00    +0.000 A 
ATOM      7  S   UNL     1      47.249   4.240  17.348  0.00  0.00    +0.000 S 
ATOM      8  C   UNL     1      48.304   5.435  17.961  0.00  0.00    +0.000 A 
ATOM      9  N   UNL     1      48.374   5.747  19.281  0.00  0.00    +0.000 NA
ATOM     10  C   UNL     1      49.272   6.635  19.568  0.00  0.00    +0.000 A 
ATOM     11  N   UNL     1      50.142   7.196  18.665  0.00  0.00    +0.000 N 
ATOM     12  C   UNL     1      50.110   6.911  17.321  0.00  0.00    +0.000 A 
ATOM     13  O   UNL     1      50.936   7.364  16.538  0.00  0.00    +0.000 OA
ATOM     14  C   UNL     1      49.026   6.025  16.948  0.00  0.00    +0.000 A 
ATOM     15  H   UNL     1      50.885   7.809  18.971  0.00  0.00    +0.000 HD
ENDBRANCH   2   5
BRANCH   3  16
ATOM     16  C   UNL     1      46.832   7.956  13.156  0.00  0.00    +0.000 C 
BRANCH  16  17
ATOM     17  C   UNL     1      46.153   6.938  12.277  0.00  0.00    +0.000 A 
ATOM     18  C   UNL     1      45.081   6.188  12.772  0.00  0.00    +0.000 A 
ATOM     19  C   UNL     1      44.431   5.252  11.964  0.00  0.00    +0.000 A 
ATOM     20  C   UNL     1      44.852   5.034  10.645  0.00  0.00    +0.000 A 
ATOM     21  C   UNL     1      45.955   5.753  10.163  0.00  0.00    +0.000 A 
ATOM     22  C   UNL     1      46.605   6.688  10.974  0.00  0.00    +0.000 A 
BRANCH  20  23
ATOM     23  C   UNL     1      44.091   4.088   9.742  0.00  0.00    +0.000 C 
BRANCH  23  24
ATOM     24  C   UNL     1      44.991   3.276   8.860  0.00  0.00    +0.000 A 
ATOM     25  C   UNL     1      45.277   1.947   9.108  0.00  0.00    +0.000 A 
ATOM     26  N   UNL     1      46.139   1.213   8.379  0.00  0.00    +0.000 NA
ATOM     27  C   UNL     1      46.736   1.856   7.365  0.00  0.00    +0.000 A 
ATOM     28  N   UNL     1      46.525   3.131   7.006  0.00  0.00    +0.000 NA
ATOM     29  C   UNL     1      45.651   3.814   7.772  0.00  0.00    +0.000 A 
ENDBRANCH  23  24
ENDBRANCH  20  23
ENDBRANCH  16  17
ENDBRANCH   3  16
TORSDOF 5
ENDMDL
MODEL 7
REMARK VINA RESULT:    -7.279      2.306      3.241
REMARK INTER + INTRA:          -9.645
REMARK INTER:                  -8.791
REMARK INTRA:                  -0.854
REMARK UNBOUND:                -0.239
REMARK  Name = 
REMARK  5 active torsions:
REMARK  status: ('A' for Active; 'I' for Inactive)
REMARK    1  A    between atoms: C_2  and  C_18
REMARK    2  A    between atoms: N_3  and  C_4
REMARK    3  A    between atoms: C_4  and  C_5
REMARK    4  A    between atoms: C_8  and  C_9
REMARK    5  A    between atoms: C_9  and  C_10
REMARK                            x       y       z     vdW  Elec       q    Type
REMARK                         _______ _______ _______ _____ _____    ______ ____
ROOT
ATOM      1  O   UNL     1      50.158   6.301  15.978  0.00  0.00    +0.000 OA
ATOM      2  C   UNL     1      49.149   6.936  16.242  0.00  0.00    +0.000 C 
ATOM      3  N   UNL     1      48.389   7.620  15.305  0.00  0.00    +0.000 N 
ATOM      4  H   UNL     1      47.446   7.888  15.571  0.00  0.00    +0.000 HD
ENDROOT
BRANCH   2   5
ATOM      5  C   UNL     1      48.458   6.893  17.519  0.00  0.00    +0.000 A 
ATOM      6  C   UNL     1      48.052   8.036  18.180  0.00  0.00    +0.000 A 
ATOM      7  S   UNL     1      47.905   7.755  19.867  0.00  0.00    +0.000 S 
ATOM      8  C   UNL     1      48.209   6.086  19.673  0.00  0.00    +0.000 A 
ATOM      9  N   UNL     1      48.402   5.247  20.724  0.00  0.00    +0.000 NA
ATOM     10  C   UNL     1      48.560   4.006  20.388  0.00  0.00    +0.000 A 
ATOM     11  N   UNL     1      48.487   3.521  19.105  0.00  0.00    +0.000 N 
ATOM     12  C   UNL     1      48.293   4.331  18.012  0.00  0.00    +0.000 A 
ATOM     13  O   UNL     1      48.160   3.879  16.881  0.00  0.00    +0.000 OA
ATOM     14  C   UNL     1      48.249   5.741  18.341  0.00  0.00    +0.000 A 
ATOM     15  H   UNL     1      48.520   2.528  18.921  0.00  0.00    +0.000 HD
ENDBRANCH   2   5
BRANCH   3  16
ATOM     16  C   UNL     1      48.610   7.481  13.896  0.00  0.00    +0.000 C 
BRANCH  16  17
ATOM     17  C   UNL     1      47.430   6.797  13.256  0.00  0.00    +0.000 A 
ATOM     18  C   UNL     1      46.507   7.540  12.512  0.00  0.00    +0.000 A 
ATOM     19  C   UNL     1      45.417   6.918  11.898  0.00  0.00    +0.000 A 
ATOM     20  C   UNL     1      45.217   5.537  12.031  0.00  0.00    +0.000 A 
ATOM     21  C   UNL     1      46.117   4.799  12.814  0.00  0.00    +0.000 A 
ATOM     22  C   UNL     1      47.206   5.425  13.428  0.00  0.00    +0.000 A 
BRANCH  20  23
ATOM     23  C   UNL     1      44.090   4.849  11.292  0.00  0.00    +0.000 C 
BRANCH  23  24
ATOM     24  C   UNL     1      44.561   4.086  10.091  0.00  0.00    +0.000 A 
ATOM     25  C   UNL     1      44.456   2.712   9.994  0.00  0.00    +0.000 A 
ATOM     26  N   UNL     1      44.938   1.991   8.963  0.00  0.00    +0.000 NA
ATOM     27  C   UNL     1      45.553   2.694   8.000  0.00  0.00    +0.000 A 
ATOM     28  N   UNL     1      45.695   4.027   7.965  0.00  0.00    +0.000 NA
ATOM     29  C   UNL     1      45.192   4.694   9.023  0.00  0.00    +0.000 A 
ENDBRANCH  23  24
ENDBRANCH  20  23
ENDBRANCH  16  17
ENDBRANCH   3  16
TORSDOF 5
ENDMDL
MODEL 8
REMARK VINA RESULT:    -6.848      3.348      8.896
REMARK INTER + INTRA:          -9.089
REMARK INTER:                  -7.972
REMARK INTRA:                  -1.117
REMARK UNBOUND:                -0.239
REMARK  Name = 
REMARK  5 active torsions:
REMARK  status: ('A' for Active; 'I' for Inactive)
REMARK    1  A    between atoms: C_2  and  C_18
REMARK    2  A    between atoms: N_3  and  C_4
REMARK    3  A    between atoms: C_4  and  C_5
REMARK    4  A    between atoms: C_8  and  C_9
REMARK    5  A    between atoms: C_9  and  C_10
REMARK                            x       y       z     vdW  Elec       q    Type
REMARK                         _______ _______ _______ _____ _____    ______ ____
ROOT
ATOM      1  O   UNL     1      44.585   7.893  11.234  0.00  0.00    +0.000 OA
ATOM      2  C   UNL     1      45.546   7.140  11.230  0.00  0.00    +0.000 C 
ATOM      3  N   UNL     1      46.728   7.377  11.914  0.00  0.00    +0.000 N 
ATOM      4  H   UNL     1      47.351   6.589  12.063  0.00  0.00    +0.000 HD
ENDROOT
BRANCH   2   5
ATOM      5  C   UNL     1      45.528   5.785  10.707  0.00  0.00    +0.000 A 
ATOM      6  C   UNL     1      45.875   5.490   9.402  0.00  0.00    +0.000 A 
ATOM      7  S   UNL     1      45.143   4.026   8.884  0.00  0.00    +0.000 S 
ATOM      8  C   UNL     1      44.526   3.716  10.445  0.00  0.00    +0.000 A 
ATOM      9  N   UNL     1      43.651   2.709  10.704  0.00  0.00    +0.000 NA
ATOM     10  C   UNL     1      43.339   2.587  11.955  0.00  0.00    +0.000 A 
ATOM     11  N   UNL     1      43.862   3.343  12.975  0.00  0.00    +0.000 N 
ATOM     12  C   UNL     1      44.750   4.371  12.763  0.00  0.00    +0.000 A 
ATOM     13  O   UNL     1      45.263   4.991  13.686  0.00  0.00    +0.000 OA
ATOM     14  C   UNL     1      45.014   4.621  11.361  0.00  0.00    +0.000 A 
ATOM     15  H   UNL     1      43.652   3.131  13.941  0.00  0.00    +0.000 HD
ENDBRANCH   2   5
BRANCH   3  16
ATOM     16  C   UNL     1      46.862   8.447  12.858  0.00  0.00    +0.000 C 
BRANCH  16  17
ATOM     17  C   UNL     1      47.694   7.998  14.031  0.00  0.00    +0.000 A 
ATOM     18  C   UNL     1      48.091   8.920  15.004  0.00  0.00    +0.000 A 
ATOM     19  C   UNL     1      48.849   8.515  16.106  0.00  0.00    +0.000 A 
ATOM     20  C   UNL     1      49.240   7.177  16.249  0.00  0.00    +0.000 A 
ATOM     21  C   UNL     1      48.880   6.260  15.250  0.00  0.00    +0.000 A 
ATOM     22  C   UNL     1      48.123   6.668  14.148  0.00  0.00    +0.000 A 
BRANCH  20  23
ATOM     23  C   UNL     1      49.981   6.721  17.486  0.00  0.00    +0.000 C 
BRANCH  23  24
ATOM     24  C   UNL     1      49.118   6.710  18.712  0.00  0.00    +0.000 A 
ATOM     25  C   UNL     1      47.990   5.919  18.821  0.00  0.00    +0.000 A 
ATOM     26  N   UNL     1      47.153   5.943  19.876  0.00  0.00    +0.000 NA
ATOM     27  C   UNL     1      47.473   6.807  20.851  0.00  0.00    +0.000 A 
ATOM     28  N   UNL     1      48.549   7.606  20.875  0.00  0.00    +0.000 NA
ATOM     29  C   UNL     1      49.350   7.537  19.793  0.00  0.00    +0.000 A 
ENDBRANCH  23  24
ENDBRANCH  20  23
ENDBRANCH  16  17
ENDBRANCH   3  16
TORSDOF 5
ENDMDL
MODEL 9
REMARK VINA RESULT:    -6.814      3.028      9.298
REMARK INTER + INTRA:          -9.044
REMARK INTER:                  -8.463
REMARK INTRA:                  -0.581
REMARK UNBOUND:                -0.239
REMARK  Name = 
REMARK  5 active torsions:
REMARK  status: ('A' for Active; 'I' for Inactive)
REMARK    1  A    between atoms: C_2  and  C_18
REMARK    2  A    between atoms: N_3  and  C_4
REMARK    3  A    between atoms: C_4  and  C_5
REMARK    4  A    between atoms: C_8  and  C_9
REMARK    5  A    between atoms: C_9  and  C_10
REMARK                            x       y       z     vdW  Elec       q    Type
REMARK                         _______ _______ _______ _____ _____    ______ ____
ROOT
ATOM      1  O   UNL     1      45.984   7.715  11.277  0.00  0.00    +0.000 OA
ATOM      2  C   UNL     1      45.955   6.517  11.503  0.00  0.00    +0.000 C 
ATOM      3  N   UNL     1      46.887   5.845  12.279  0.00  0.00    +0.000 N 
ATOM      4  H   UNL     1      46.637   4.922  12.621  0.00  0.00    +0.000 HD
ENDROOT
BRANCH   2   5
ATOM      5  C   UNL     1      44.833   5.646  11.196  0.00  0.00    +0.000 A 
ATOM      6  C   UNL     1      43.710   5.576  11.998  0.00  0.00    +0.000 A 
ATOM      7  S   UNL     1      42.908   4.070  11.807  0.00  0.00    +0.000 S 
ATOM      8  C   UNL     1      43.957   3.607  10.541  0.00  0.00    +0.000 A 
ATOM      9  N   UNL     1      43.962   2.357  10.011  0.00  0.00    +0.000 NA
ATOM     10  C   UNL     1      44.781   2.206   9.019  0.00  0.00    +0.000 A 
ATOM     11  N   UNL     1      45.553   3.205   8.475  0.00  0.00    +0.000 N 
ATOM     12  C   UNL     1      45.580   4.484   8.977  0.00  0.00    +0.000 A 
ATOM     13  O   UNL     1      46.218   5.382   8.441  0.00  0.00    +0.000 OA
ATOM     14  C   UNL     1      44.777   4.650  10.172  0.00  0.00    +0.000 A 
ATOM     15  H   UNL     1      46.097   3.045   7.639  0.00  0.00    +0.000 HD
ENDBRANCH   2   5
BRANCH   3  16
ATOM     16  C   UNL     1      47.873   6.537  13.057  0.00  0.00    +0.000 C 
BRANCH  16  17
ATOM     17  C   UNL     1      47.949   5.940  14.438  0.00  0.00    +0.000 A 
ATOM     18  C   UNL     1      47.191   4.808  14.756  0.00  0.00    +0.000 A 
ATOM     19  C   UNL     1      47.264   4.233  16.028  0.00  0.00    +0.000 A 
ATOM     20  C   UNL     1      48.086   4.792  17.016  0.00  0.00    +0.000 A 
ATOM     21  C   UNL     1      48.810   5.954  16.712  0.00  0.00    +0.000 A 
ATOM     22  C   UNL     1      48.735   6.527  15.439  0.00  0.00    +0.000 A 
BRANCH  20  23
ATOM     23  C   UNL     1      48.234   4.118  18.363  0.00  0.00    +0.000 C 
BRANCH  23  24
ATOM     24  C   UNL     1      49.162   4.853  19.283  0.00  0.00    +0.000 A 
ATOM     25  C   UNL     1      48.722   5.816  20.170  0.00  0.00    +0.000 A 
ATOM     26  N   UNL     1      49.539   6.547  20.954  0.00  0.00    +0.000 NA
ATOM     27  C   UNL     1      50.849   6.291  20.825  0.00  0.00    +0.000 A 
ATOM     28  N   UNL     1      51.397   5.367  20.023  0.00  0.00    +0.000 NA
ATOM     29  C   UNL     1      50.530   4.667  19.264  0.00  0.00    +0.000 A 
ENDBRANCH  23  24
ENDBRANCH  20  23
ENDBRANCH  16  17
ENDBRANCH   3  16
TORSDOF 5
ENDMDL
