MODEL 1
REMARK VINA RESULT:    -7.826      0.000      0.000
REMARK INTER + INTRA:         -11.300
REMARK INTER:                 -10.571
REMARK INTRA:                  -0.730
REMARK UNBOUND:                -0.730
REMARK  Name = 
REMARK  8 active torsions:
REMARK  status: ('A' for Active; 'I' for Inactive)
REMARK    1  A    between atoms: C_1  and  N_2
REMARK    2  A    between atoms: N_2  and  C_3
REMARK    3  A    between atoms: N_2  and  C_4
REMARK    4  A    between atoms: C_8  and  C_9
REMARK    5  A    between atoms: C_9  and  C_10
REMARK    6  A    between atoms: C_10  and  O_11
REMARK    7  A    between atoms: O_11  and  C_12
REMARK    8  A    between atoms: C_15  and  C_16
REMARK                            x       y       z     vdW  Elec       q    Type
REMARK                         _______ _______ _______ _____ _____    ______ ____
ROOT
ATOM      1  O   UNL     1      43.638   4.526  10.075  0.00  0.00    +0.000 OA
ENDROOT
BRANCH   1   2
ATOM      2  C   UNL     1      44.576   3.860   9.307  0.00  0.00    +0.000 A 
ATOM      3  C   UNL     1      44.678   2.487   9.461  0.00  0.00    +0.000 A 
ATOM      4  C   UNL     1      45.612   1.800   8.676  0.00  0.00    +0.000 A 
ATOM      5  C   UNL     1      46.410   2.503   7.766  0.00  0.00    +0.000 A 
ATOM      6  C   UNL     1      46.233   3.874   7.696  0.00  0.00    +0.000 A 
ATOM      7  N   UNL     1      45.339   4.566   8.443  0.00  0.00    +0.000 NA
BRANCH   5   8
ATOM      8  C   UNL     1      47.391   1.772   6.930  0.00  0.00    +0.000 C 
ATOM      9  N   UNL     1      48.488   2.436   6.453  0.00  0.00    +0.000 N 
ATOM     10  O   UNL     1      47.226   0.589   6.655  0.00  0.00    +0.000 OA
ATOM     11  H   UNL     1      48.709   3.409   6.599  0.00  0.00    +0.000 HD
ATOM     12  H   UNL     1      49.124   1.900   5.875  0.00  0.00    +0.000 HD
ENDBRANCH   5   8
ENDBRANCH   1   2
BRANCH   1  13
ATOM     13  C   UNL     1      43.285   3.773  11.244  0.00  0.00    +0.000 C 
BRANCH  13  14
ATOM     14  C   UNL     1      43.262   4.678  12.474  0.00  0.00    +0.000 C 
BRANCH  14  19
ATOM     15  C   UNL     1      46.092   7.246  12.906  0.00  0.00    +0.000 A 
ATOM     16  C   UNL     1      47.120   6.383  13.321  0.00  0.00    +0.000 A 
ATOM     17  C   UNL     1      46.916   5.006  13.474  0.00  0.00    +0.000 A 
ATOM     18  C   UNL     1      45.674   4.442  13.195  0.00  0.00    +0.000 A 
ATOM     19  C   UNL     1      44.633   5.254  12.744  0.00  0.00    +0.000 A 
ATOM     20  C   UNL     1      44.858   6.636  12.606  0.00  0.00    +0.000 A 
BRANCH  15  22
ATOM     21  C   UNL     1      45.162   9.476  12.366  0.00  0.00    +0.000 C 
ATOM     22  N   UNL     1      46.274   8.627  12.779  0.00  0.00    +0.000 N 
ATOM     23  C   UNL     1      47.617   9.118  12.478  0.00  0.00    +0.000 C 
ENDBRANCH  15  22
ENDBRANCH  14  19
ENDBRANCH  13  14
ENDBRANCH   1  13
TORSDOF 6
ENDMDL
MODEL 2
REMARK VINA RESULT:    -7.478      1.376      2.254
REMARK INTER + INTRA:         -10.831
REMARK INTER:                 -10.043
REMARK INTRA:                  -0.788
REMARK UNBOUND:                -0.730
REMARK  Name = 
REMARK  8 active torsions:
REMARK  status: ('A' for Active; 'I' for Inactive)
REMARK    1  A    between atoms: C_1  and  N_2
REMARK    2  A    between atoms: N_2  and  C_3
REMARK    3  A    between atoms: N_2  and  C_4
REMARK    4  A    between atoms: C_8  and  C_9
REMARK    5  A    between atoms: C_9  and  C_10
REMARK    6  A    between atoms: C_10  and  O_11
REMARK    7  A    between atoms: O_11  and  C_12
REMARK    8  A    between atoms: C_15  and  C_16
REMARK                            x       y       z     vdW  Elec       q    Type
REMARK                         _______ _______ _______ _____ _____    ______ ____
ROOT
ATOM      1  O   UNL     1      43.497   3.377  10.504  0.00  0.00    +0.000 OA
ENDROOT
BRANCH   1   2
ATOM      2  C   UNL     1      44.455   3.111   9.543  0.00  0.00    +0.000 A 
ATOM      3  C   UNL     1      44.985   4.185   8.846  0.00  0.00    +0.000 A 
ATOM      4  C   UNL     1      45.969   3.929   7.883  0.00  0.00    +0.000 A 
ATOM      5  C   UNL     1      46.390   2.614   7.648  0.00  0.00    +0.000 A 
ATOM      6  C   UNL     1      45.789   1.615   8.394  0.00  0.00    +0.000 A 
ATOM      7  N   UNL     1      44.836   1.831   9.331  0.00  0.00    +0.000 NA
BRANCH   5   8
ATOM      8  C   UNL     1      47.438   2.348   6.635  0.00  0.00    +0.000 C 
ATOM      9  N   UNL     1      47.418   3.043   5.456  0.00  0.00    +0.000 N 
ATOM     10  O   UNL     1      48.310   1.511   6.836  0.00  0.00    +0.000 OA
ATOM     11  H   UNL     1      46.738   3.734   5.181  0.00  0.00    +0.000 HD
ATOM     12  H   UNL     1      48.147   2.818   4.788  0.00  0.00    +0.000 HD
ENDBRANCH   5   8
ENDBRANCH   1   2
BRANCH   1  13
ATOM     13  C   UNL     1      43.973   3.066  11.822  0.00  0.00    +0.000 C 
BRANCH  13  14
ATOM     14  C   UNL     1      43.596   4.178  12.799  0.00  0.00    +0.000 C 
BRANCH  14  19
ATOM     15  C   UNL     1      46.573   6.609  12.941  0.00  0.00    +0.000 A 
ATOM     16  C   UNL     1      46.083   7.617  12.096  0.00  0.00    +0.000 A 
ATOM     17  C   UNL     1      44.829   7.523  11.479  0.00  0.00    +0.000 A 
ATOM     18  C   UNL     1      44.013   6.420  11.705  0.00  0.00    +0.000 A 
ATOM     19  C   UNL     1      44.441   5.409  12.567  0.00  0.00    +0.000 A 
ATOM     20  C   UNL     1      45.708   5.520  13.170  0.00  0.00    +0.000 A 
BRANCH  15  22
ATOM     21  C   UNL     1      49.026   6.868  12.718  0.00  0.00    +0.000 C 
ATOM     22  N   UNL     1      47.835   6.676  13.540  0.00  0.00    +0.000 N 
ATOM     23  C   UNL     1      48.027   5.992  14.817  0.00  0.00    +0.000 C 
ENDBRANCH  15  22
ENDBRANCH  14  19
ENDBRANCH  13  14
ENDBRANCH   1  13
TORSDOF 6
ENDMDL
MODEL 3
REMARK VINA RESULT:    -6.819      1.291      2.268
REMARK INTER + INTRA:          -9.940
REMARK INTER:                  -9.435
REMARK INTRA:                  -0.505
REMARK UNBOUND:                -0.730
REMARK  Name = 
REMARK  8 active torsions:
REMARK  status: ('A' for Active; 'I' for Inactive)
REMARK    1  A    between atoms: C_1  and  N_2
REMARK    2  A    between atoms: N_2  and  C_3
REMARK    3  A    between atoms: N_2  and  C_4
REMARK    4  A    between atoms: C_8  and  C_9
REMARK    5  A    between atoms: C_9  and  C_10
REMARK    6  A    between atoms: C_10  and  O_11
REMARK    7  A    between atoms: O_11  and  C_12
REMARK    8  A    between atoms: C_15  and  C_16
REMARK                            x       y       z     vdW  Elec       q    Type
REMARK                         _______ _______ _______ _____ _____    ______ ____
ROOT
ATOM      1  O   UNL     1      43.821   4.091  10.183  0.00  0.00    +0.000 OA
ENDROOT
BRANCH   1   2
ATOM      2  C   UNL     1      44.773   3.653   9.280  0.00  0.00    +0.000 A 
ATOM      3  C   UNL     1      45.039   2.293   9.233  0.00  0.00    +0.000 A 
ATOM      4  C   UNL     1      45.988   1.836   8.310  0.00  0.00    +0.000 A 
ATOM      5  C   UNL     1      46.638   2.748   7.468  0.00  0.00    +0.000 A 
ATOM      6  C   UNL     1      46.303   4.084   7.604  0.00  0.00    +0.000 A 
ATOM      7  N   UNL     1      45.390   4.555   8.486  0.00  0.00    +0.000 NA
BRANCH   5   8
ATOM      8  C   UNL     1      47.634   2.260   6.486  0.00  0.00    +0.000 C 
ATOM      9  N   UNL     1      47.824   2.958   5.325  0.00  0.00    +0.000 N 
ATOM     10  O   UNL     1      48.280   1.240   6.698  0.00  0.00    +0.000 OA
ATOM     11  H   UNL     1      47.335   3.794   5.042  0.00  0.00    +0.000 HD
ATOM     12  H   UNL     1      48.507   2.581   4.678  0.00  0.00    +0.000 HD
ENDBRANCH   5   8
ENDBRANCH   1   2
BRANCH   1  13
ATOM     13  C   UNL     1      44.415   4.849  11.247  0.00  0.00    +0.000 C 
BRANCH  13  14
ATOM     14  C   UNL     1      43.802   6.247  11.311  0.00  0.00    +0.000 C 
BRANCH  14  19
ATOM     15  C   UNL     1      47.087   7.750  12.631  0.00  0.00    +0.000 A 
ATOM     16  C   UNL     1      46.817   9.111  12.412  0.00  0.00    +0.000 A 
ATOM     17  C   UNL     1      45.615   9.547  11.841  0.00  0.00    +0.000 A 
ATOM     18  C   UNL     1      44.629   8.630  11.489  0.00  0.00    +0.000 A 
ATOM     19  C   UNL     1      44.836   7.270  11.721  0.00  0.00    +0.000 A 
ATOM     20  C   UNL     1      46.055   6.853  12.288  0.00  0.00    +0.000 A 
BRANCH  15  22
ATOM     21  C   UNL     1      48.308   6.595  14.450  0.00  0.00    +0.000 C 
ATOM     22  N   UNL     1      48.295   7.300  13.172  0.00  0.00    +0.000 N 
ATOM     23  C   UNL     1      49.518   8.010  12.807  0.00  0.00    +0.000 C 
ENDBRANCH  15  22
ENDBRANCH  14  19
ENDBRANCH  13  14
ENDBRANCH   1  13
TORSDOF 6
ENDMDL
MODEL 4
REMARK VINA RESULT:    -6.552      1.916      2.859
REMARK INTER + INTRA:          -9.579
REMARK INTER:                  -9.162
REMARK INTRA:                  -0.418
REMARK UNBOUND:                -0.730
REMARK  Name = 
REMARK  8 active torsions:
REMARK  status: ('A' for Active; 'I' for Inactive)
REMARK    1  A    between atoms: C_1  and  N_2
REMARK    2  A    between atoms: N_2  and  C_3
REMARK    3  A    between atoms: N_2  and  C_4
REMARK    4  A    between atoms: C_8  and  C_9
REMARK    5  A    between atoms: C_9  and  C_10
REMARK    6  A    between atoms: C_10  and  O_11
REMARK    7  A    between atoms: O_11  and  C_12
REMARK    8  A    between atoms: C_15  and  C_16
REMARK                            x       y       z     vdW  Elec       q    Type
REMARK                         _______ _______ _______ _____ _____    ______ ____
ROOT
ATOM      1  O   UNL     1      43.601   4.800   9.773  0.00  0.00    +0.000 OA
ENDROOT
BRANCH   1   2
ATOM      2  C   UNL     1      44.434   3.865   9.187  0.00  0.00    +0.000 A 
ATOM      3  C   UNL     1      45.361   4.318   8.262  0.00  0.00    +0.000 A 
ATOM      4  C   UNL     1      46.222   3.383   7.675  0.00  0.00    +0.000 A 
ATOM      5  C   UNL     1      46.130   2.031   8.030  0.00  0.00    +0.000 A 
ATOM      6  C   UNL     1      45.164   1.685   8.959  0.00  0.00    +0.000 A 
ATOM      7  N   UNL     1      44.318   2.566   9.542  0.00  0.00    +0.000 NA
BRANCH   5   8
ATOM      8  C   UNL     1      47.049   1.045   7.414  0.00  0.00    +0.000 C 
ATOM      9  N   UNL     1      46.800  -0.291   7.576  0.00  0.00    +0.000 N 
ATOM     10  O   UNL     1      48.027   1.410   6.773  0.00  0.00    +0.000 OA
ATOM     11  H   UNL     1      46.040  -0.699   8.099  0.00  0.00    +0.000 HD
ATOM     12  H   UNL     1      47.462  -0.928   7.149  0.00  0.00    +0.000 HD
ENDBRANCH   5   8
ENDBRANCH   1   2
BRANCH   1  13
ATOM     13  C   UNL     1      43.856   4.924  11.180  0.00  0.00    +0.000 C 
BRANCH  13  14
ATOM     14  C   UNL     1      45.248   5.506  11.419  0.00  0.00    +0.000 C 
BRANCH  14  19
ATOM     15  C   UNL     1      44.162   9.188  11.183  0.00  0.00    +0.000 A 
ATOM     16  C   UNL     1      44.918   9.716  12.242  0.00  0.00    +0.000 A 
ATOM     17  C   UNL     1      45.752   8.913  13.030  0.00  0.00    +0.000 A 
ATOM     18  C   UNL     1      45.873   7.552  12.768  0.00  0.00    +0.000 A 
ATOM     19  C   UNL     1      45.170   6.988  11.702  0.00  0.00    +0.000 A 
ATOM     20  C   UNL     1      44.332   7.812  10.929  0.00  0.00    +0.000 A 
BRANCH  15  22
ATOM     21  C   UNL     1      43.841  10.826   9.353  0.00  0.00    +0.000 C 
ATOM     22  N   UNL     1      43.303   9.973  10.407  0.00  0.00    +0.000 N 
ATOM     23  C   UNL     1      42.032  10.388  10.997  0.00  0.00    +0.000 C 
ENDBRANCH  15  22
ENDBRANCH  14  19
ENDBRANCH  13  14
ENDBRANCH   1  13
TORSDOF 6
ENDMDL
MODEL 5
REMARK VINA RESULT:    -6.520      1.689      2.403
REMARK INTER + INTRA:          -9.537
REMARK INTER:                  -9.019
REMARK INTRA:                  -0.517
REMARK UNBOUND:                -0.730
REMARK  Name = 
REMARK  8 active torsions:
REMARK  status: ('A' for Active; 'I' for Inactive)
REMARK    1  A    between atoms: C_1  and  N_2
REMARK    2  A    between atoms: N_2  and  C_3
REMARK    3  A    between atoms: N_2  and  C_4
REMARK    4  A    between atoms: C_8  and  C_9
REMARK    5  A    between atoms: C_9  and  C_10
REMARK    6  A    between atoms: C_10  and  O_11
REMARK    7  A    between atoms: O_11  and  C_12
REMARK    8  A    between atoms: C_15  and  C_16
REMARK                            x       y       z     vdW  Elec       q    Type
REMARK                         _______ _______ _______ _____ _____    ______ ____
ROOT
ATOM      1  O   UNL     1      43.829   4.917  10.028  0.00  0.00    +0.000 OA
ENDROOT
BRANCH   1   2
ATOM      2  C   UNL     1      44.623   4.002   9.360  0.00  0.00    +0.000 A 
ATOM      3  C   UNL     1      45.472   4.482   8.375  0.00  0.00    +0.000 A 
ATOM      4  C   UNL     1      46.292   3.567   7.705  0.00  0.00    +0.000 A 
ATOM      5  C   UNL     1      46.239   2.207   8.037  0.00  0.00    +0.000 A 
ATOM      6  C   UNL     1      45.350   1.834   9.030  0.00  0.00    +0.000 A 
ATOM      7  N   UNL     1      44.544   2.695   9.695  0.00  0.00    +0.000 NA
BRANCH   5   8
ATOM      8  C   UNL     1      47.115   1.243   7.332  0.00  0.00    +0.000 C 
ATOM      9  N   UNL     1      48.200   1.709   6.641  0.00  0.00    +0.000 N 
ATOM     10  O   UNL     1      46.875   0.041   7.355  0.00  0.00    +0.000 OA
ATOM     11  H   UNL     1      48.476   2.673   6.540  0.00  0.00    +0.000 HD
ATOM     12  H   UNL     1      48.763   1.014   6.164  0.00  0.00    +0.000 HD
ENDBRANCH   5   8
ENDBRANCH   1   2
BRANCH   1  13
ATOM     13  C   UNL     1      44.228   5.057  11.399  0.00  0.00    +0.000 C 
BRANCH  13  14
ATOM     14  C   UNL     1      45.451   5.966  11.507  0.00  0.00    +0.000 C 
BRANCH  14  19
ATOM     15  C   UNL     1      47.967   6.318  14.394  0.00  0.00    +0.000 A 
ATOM     16  C   UNL     1      47.729   5.100  15.052  0.00  0.00    +0.000 A 
ATOM     17  C   UNL     1      46.775   4.183  14.594  0.00  0.00    +0.000 A 
ATOM     18  C   UNL     1      46.038   4.449  13.444  0.00  0.00    +0.000 A 
ATOM     19  C   UNL     1      46.265   5.629  12.735  0.00  0.00    +0.000 A 
ATOM     20  C   UNL     1      47.223   6.540  13.218  0.00  0.00    +0.000 A 
BRANCH  15  22
ATOM     21  C   UNL     1      50.131   7.491  14.118  0.00  0.00    +0.000 C 
ATOM     22  N   UNL     1      48.895   7.255  14.858  0.00  0.00    +0.000 N 
ATOM     23  C   UNL     1      48.931   7.536  16.291  0.00  0.00    +0.000 C 
ENDBRANCH  15  22
ENDBRANCH  14  19
ENDBRANCH  13  14
ENDBRANCH   1  13
TORSDOF 6
ENDMDL
MODEL 6
REMARK VINA RESULT:    -6.089      5.268      7.407
REMARK INTER + INTRA:          -8.954
REMARK INTER:                  -8.524
REMARK INTRA:                  -0.431
REMARK UNBOUND:                -0.730
REMARK  Name = 
REMARK  8 active torsions:
REMARK  status: ('A' for Active; 'I' for Inactive)
REMARK    1  A    between atoms: C_1  and  N_2
REMARK    2  A    between atoms: N_2  and  C_3
REMARK    3  A    between atoms: N_2  and  C_4
REMARK    4  A    between atoms: C_8  and  C_9
REMARK    5  A    between atoms: C_9  and  C_10
REMARK    6  A    between atoms: C_10  and  O_11
REMARK    7  A    between atoms: O_11  and  C_12
REMARK    8  A    between atoms: C_15  and  C_16
REMARK                            x       y       z     vdW  Elec       q    Type
REMARK                         _______ _______ _______ _____ _____    ______ ____
ROOT
ATOM      1  O   UNL     1      47.562   3.518  14.440  0.00  0.00    +0.000 OA
ENDROOT
BRANCH   1   2
ATOM      2  C   UNL     1      46.508   3.940  13.650  0.00  0.00    +0.000 A 
ATOM      3  C   UNL     1      46.181   5.287  13.677  0.00  0.00    +0.000 A 
ATOM      4  C   UNL     1      45.126   5.728  12.868  0.00  0.00    +0.000 A 
ATOM      5  C   UNL     1      44.435   4.814  12.062  0.00  0.00    +0.000 A 
ATOM      6  C   UNL     1      44.839   3.491  12.117  0.00  0.00    +0.000 A 
ATOM      7  N   UNL     1      45.854   3.035  12.889  0.00  0.00    +0.000 NA
BRANCH   5   8
ATOM      8  C   UNL     1      43.326   5.286  11.200  0.00  0.00    +0.000 C 
ATOM      9  N   UNL     1      42.340   6.061  11.747  0.00  0.00    +0.000 N 
ATOM     10  O   UNL     1      43.279   4.984  10.013  0.00  0.00    +0.000 OA
ATOM     11  H   UNL     1      42.271   6.350  12.710  0.00  0.00    +0.000 HD
ATOM     12  H   UNL     1      41.596   6.350  11.123  0.00  0.00    +0.000 HD
ENDBRANCH   5   8
ENDBRANCH   1   2
BRANCH   1  13
ATOM     13  C   UNL     1      47.371   3.886  15.813  0.00  0.00    +0.000 C 
BRANCH  13  14
ATOM     14  C   UNL     1      48.070   2.889  16.734  0.00  0.00    +0.000 C 
BRANCH  14  19
ATOM     15  C   UNL     1      51.774   2.970  17.765  0.00  0.00    +0.000 A 
ATOM     16  C   UNL     1      51.933   4.356  17.929  0.00  0.00    +0.000 A 
ATOM     17  C   UNL     1      50.883   5.255  17.703  0.00  0.00    +0.000 A 
ATOM     18  C   UNL     1      49.627   4.791  17.325  0.00  0.00    +0.000 A 
ATOM     19  C   UNL     1      49.410   3.420  17.185  0.00  0.00    +0.000 A 
ATOM     20  C   UNL     1      50.482   2.535  17.409  0.00  0.00    +0.000 A 
BRANCH  15  22
ATOM     21  C   UNL     1      52.603   0.637  17.745  0.00  0.00    +0.000 C 
ATOM     22  N   UNL     1      52.822   2.064  17.957  0.00  0.00    +0.000 N 
ATOM     23  C   UNL     1      53.883   2.429  18.893  0.00  0.00    +0.000 C 
ENDBRANCH  15  22
ENDBRANCH  14  19
ENDBRANCH  13  14
ENDBRANCH   1  13
TORSDOF 6
ENDMDL
MODEL 7
REMARK VINA RESULT:    -6.000      3.616      7.217
REMARK INTER + INTRA:          -8.834
REMARK INTER:                  -8.079
REMARK INTRA:                  -0.754
REMARK UNBOUND:                -0.730
REMARK  Name = 
REMARK  8 active torsions:
REMARK  status: ('A' for Active; 'I' for Inactive)
REMARK    1  A    between atoms: C_1  and  N_2
REMARK    2  A    between atoms: N_2  and  C_3
REMARK    3  A    between atoms: N_2  and  C_4
REMARK    4  A    between atoms: C_8  and  C_9
REMARK    5  A    between atoms: C_9  and  C_10
REMARK    6  A    between atoms: C_10  and  O_11
REMARK    7  A    between atoms: O_11  and  C_12
REMARK    8  A    between atoms: C_15  and  C_16
REMARK                            x       y       z     vdW  Elec       q    Type
REMARK                         _______ _______ _______ _____ _____    ______ ____
ROOT
ATOM      1  O   UNL     1      48.343   7.044  13.624  0.00  0.00    +0.000 OA
ENDROOT
BRANCH   1   2
ATOM      2  C   UNL     1      48.153   6.128  14.643  0.00  0.00    +0.000 A 
ATOM      3  C   UNL     1      47.236   5.110  14.433  0.00  0.00    +0.000 A 
ATOM      4  C   UNL     1      47.048   4.167  15.451  0.00  0.00    +0.000 A 
ATOM      5  C   UNL     1      47.780   4.270  16.641  0.00  0.00    +0.000 A 
ATOM      6  C   UNL     1      48.664   5.330  16.750  0.00  0.00    +0.000 A 
ATOM      7  N   UNL     1      48.866   6.257  15.784  0.00  0.00    +0.000 NA
BRANCH   5   8
ATOM      8  C   UNL     1      47.586   3.265  17.712  0.00  0.00    +0.000 C 
ATOM      9  N   UNL     1      48.474   3.220  18.753  0.00  0.00    +0.000 N 
ATOM     10  O   UNL     1      46.651   2.474  17.672  0.00  0.00    +0.000 OA
ATOM     11  H   UNL     1      49.285   3.806  18.873  0.00  0.00    +0.000 HD
ATOM     12  H   UNL     1      48.309   2.508  19.455  0.00  0.00    +0.000 HD
ENDBRANCH   5   8
ENDBRANCH   1   2
BRANCH   1  13
ATOM     13  C   UNL     1      47.096   7.588  13.167  0.00  0.00    +0.000 C 
BRANCH  13  14
ATOM     14  C   UNL     1      46.930   7.350  11.667  0.00  0.00    +0.000 C 
BRANCH  14  19
ATOM     15  C   UNL     1      44.808   4.581  10.050  0.00  0.00    +0.000 A 
ATOM     16  C   UNL     1      43.690   4.626  10.900  0.00  0.00    +0.000 A 
ATOM     17  C   UNL     1      43.615   5.515  11.980  0.00  0.00    +0.000 A 
ATOM     18  C   UNL     1      44.653   6.406  12.232  0.00  0.00    +0.000 A 
ATOM     19  C   UNL     1      45.768   6.424  11.394  0.00  0.00    +0.000 A 
ATOM     20  C   UNL     1      45.827   5.517  10.319  0.00  0.00    +0.000 A 
BRANCH  15  22
ATOM     21  C   UNL     1      44.543   2.278   9.178  0.00  0.00    +0.000 C 
ATOM     22  N   UNL     1      44.909   3.678   8.987  0.00  0.00    +0.000 N 
ATOM     23  C   UNL     1      45.886   3.959   7.937  0.00  0.00    +0.000 C 
ENDBRANCH  15  22
ENDBRANCH  14  19
ENDBRANCH  13  14
ENDBRANCH   1  13
TORSDOF 6
ENDMDL
MODEL 8
REMARK VINA RESULT:    -5.985      4.974      6.936
REMARK INTER + INTRA:          -8.814
REMARK INTER:                  -8.381
REMARK INTRA:                  -0.433
REMARK UNBOUND:                -0.730
REMARK  Name = 
REMARK  8 active torsions:
REMARK  status: ('A' for Active; 'I' for Inactive)
REMARK    1  A    between atoms: C_1  and  N_2
REMARK    2  A    between atoms: N_2  and  C_3
REMARK    3  A    between atoms: N_2  and  C_4
REMARK    4  A    between atoms: C_8  and  C_9
REMARK    5  A    between atoms: C_9  and  C_10
REMARK    6  A    between atoms: C_10  and  O_11
REMARK    7  A    between atoms: O_11  and  C_12
REMARK    8  A    between atoms: C_15  and  C_16
REMARK                            x       y       z     vdW  Elec       q    Type
REMARK                         _______ _______ _______ _____ _____    ______ ____
ROOT
ATOM      1  O   UNL     1      47.550   3.684  14.471  0.00  0.00    +0.000 OA
ENDROOT
BRANCH   1   2
ATOM      2  C   UNL     1      46.489   4.065  13.670  0.00  0.00    +0.000 A 
ATOM      3  C   UNL     1      46.106   5.397  13.698  0.00  0.00    +0.000 A 
ATOM      4  C   UNL     1      45.044   5.798  12.879  0.00  0.00    +0.000 A 
ATOM      5  C   UNL     1      44.401   4.860  12.061  0.00  0.00    +0.000 A 
ATOM      6  C   UNL     1      44.857   3.554  12.116  0.00  0.00    +0.000 A 
ATOM      7  N   UNL     1      45.881   3.137  12.898  0.00  0.00    +0.000 NA
BRANCH   5   8
ATOM      8  C   UNL     1      43.283   5.289  11.188  0.00  0.00    +0.000 C 
ATOM      9  N   UNL     1      42.238   5.983  11.734  0.00  0.00    +0.000 N 
ATOM     10  O   UNL     1      43.280   5.022   9.992  0.00  0.00    +0.000 OA
ATOM     11  H   UNL     1      42.130   6.235  12.705  0.00  0.00    +0.000 HD
ATOM     12  H   UNL     1      41.491   6.244  11.102  0.00  0.00    +0.000 HD
ENDBRANCH   5   8
ENDBRANCH   1   2
BRANCH   1  13
ATOM     13  C   UNL     1      47.371   4.121  15.826  0.00  0.00    +0.000 C 
BRANCH  13  14
ATOM     14  C   UNL     1      47.737   3.003  16.799  0.00  0.00    +0.000 C 
BRANCH  14  19
ATOM     15  C   UNL     1      51.016   4.370  18.271  0.00  0.00    +0.000 A 
ATOM     16  C   UNL     1      51.849   3.265  18.034  0.00  0.00    +0.000 A 
ATOM     17  C   UNL     1      51.375   2.095  17.426  0.00  0.00    +0.000 A 
ATOM     18  C   UNL     1      50.050   2.002  17.015  0.00  0.00    +0.000 A 
ATOM     19  C   UNL     1      49.192   3.089  17.196  0.00  0.00    +0.000 A 
ATOM     20  C   UNL     1      49.687   4.250  17.816  0.00  0.00    +0.000 A 
BRANCH  15  22
ATOM     21  C   UNL     1      52.891   5.712  19.174  0.00  0.00    +0.000 C 
ATOM     22  N   UNL     1      51.468   5.532  18.905  0.00  0.00    +0.000 N 
ATOM     23  C   UNL     1      50.543   6.237  19.788  0.00  0.00    +0.000 C 
ENDBRANCH  15  22
ENDBRANCH  14  19
ENDBRANCH  13  14
ENDBRANCH   1  13
TORSDOF 6
ENDMDL
MODEL 9
REMARK VINA RESULT:    -5.864      4.482      8.021
REMARK INTER + INTRA:          -8.650
REMARK INTER:                  -8.148
REMARK INTRA:                  -0.502
REMARK UNBOUND:                -0.730
REMARK  Name = 
REMARK  8 active torsions:
REMARK  status: ('A' for Active; 'I' for Inactive)
REMARK    1  A    between atoms: C_1  and  N_2
REMARK    2  A    between atoms: N_2  and  C_3
REMARK    3  A    between atoms: N_2  and  C_4
REMARK    4  A    between atoms: C_8  and  C_9
REMARK    5  A    between atoms: C_9  and  C_10
REMARK    6  A    between atoms: C_10  and  O_11
REMARK    7  A    between atoms: O_11  and  C_12
REMARK    8  A    between atoms: C_15  and  C_16
REMARK                            x       y       z     vdW  Elec       q    Type
REMARK                         _______ _______ _______ _____ _____    ______ ____
ROOT
ATOM      1  O   UNL     1      46.704   4.589  14.405  0.00  0.00    +0.000 OA
ENDROOT
BRANCH   1   2
ATOM      2  C   UNL     1      47.315   4.511  15.644  0.00  0.00    +0.000 A 
ATOM      3  C   UNL     1      48.226   5.500  15.978  0.00  0.00    +0.000 A 
ATOM      4  C   UNL     1      48.838   5.440  17.235  0.00  0.00    +0.000 A 
ATOM      5  C   UNL     1      48.521   4.398  18.116  0.00  0.00    +0.000 A 
ATOM      6  C   UNL     1      47.604   3.457  17.680  0.00  0.00    +0.000 A 
ATOM      7  N   UNL     1      46.997   3.489  16.469  0.00  0.00    +0.000 NA
BRANCH   5   8
ATOM      8  C   UNL     1      49.163   4.342  19.451  0.00  0.00    +0.000 C 
ATOM      9  N   UNL     1      48.484   3.774  20.494  0.00  0.00    +0.000 N 
ATOM     10  O   UNL     1      50.284   4.803  19.630  0.00  0.00    +0.000 OA
ATOM     11  H   UNL     1      47.554   3.386  20.463  0.00  0.00    +0.000 HD
ATOM     12  H   UNL     1      48.957   3.770  21.391  0.00  0.00    +0.000 HD
ENDBRANCH   5   8
ENDBRANCH   1   2
BRANCH   1  13
ATOM     13  C   UNL     1      47.290   5.618  13.594  0.00  0.00    +0.000 C 
BRANCH  13  14
ATOM     14  C   UNL     1      46.206   6.541  13.040  0.00  0.00    +0.000 C 
BRANCH  14  19
ATOM     15  C   UNL     1      44.549   4.168  10.508  0.00  0.00    +0.000 A 
ATOM     16  C   UNL     1      43.234   4.194  11.001  0.00  0.00    +0.000 A 
ATOM     17  C   UNL     1      42.879   4.944  12.129  0.00  0.00    +0.000 A 
ATOM     18  C   UNL     1      43.830   5.713  12.792  0.00  0.00    +0.000 A 
ATOM     19  C   UNL     1      45.142   5.749  12.318  0.00  0.00    +0.000 A 
ATOM     20  C   UNL     1      45.479   4.982  11.187  0.00  0.00    +0.000 A 
BRANCH  15  22
ATOM     21  C   UNL     1      45.142   4.039   8.107  0.00  0.00    +0.000 C 
ATOM     22  N   UNL     1      44.924   3.400   9.401  0.00  0.00    +0.000 N 
ATOM     23  C   UNL     1      44.530   1.994   9.376  0.00  0.00    +0.000 C 
ENDBRANCH  15  22
ENDBRANCH  14  19
ENDBRANCH  13  14
ENDBRANCH   1  13
TORSDOF 6
ENDMDL
