MODEL 1
REMARK VINA RESULT:    -8.491      0.000      0.000
REMARK INTER + INTRA:         -13.178
REMARK INTER:                 -11.966
REMARK INTRA:                  -1.213
REMARK UNBOUND:                -1.213
REMARK  Name = 
REMARK  7 active torsions:
REMARK  status: ('A' for Active; 'I' for Inactive)
REMARK    1  A    between atoms: C_2  and  C_21
REMARK    2  A    between atoms: N_3  and  C_4
REMARK    3  A    between atoms: C_4  and  C_5
REMARK    4  A    between atoms: C_8  and  C_9
REMARK    5  A    between atoms: C_9  and  N_10
REMARK    6  A    between atoms: N_10  and  C_11
REMARK    7  A    between atoms: C_11  and  C_12
REMARK                            x       y       z     vdW  Elec       q    Type
REMARK                         _______ _______ _______ _____ _____    ______ ____
ROOT
ATOM      1  C   UNL     1      45.855   6.363  12.428  0.00  0.00    +0.000 A 
ATOM      2  C   UNL     1      45.274   5.416  13.280  0.00  0.00    +0.000 A 
ATOM      3  C   UNL     1      44.587   4.321  12.754  0.00  0.00    +0.000 A 
ATOM      4  C   UNL     1      44.469   4.144  11.369  0.00  0.00    +0.000 A 
ATOM      5  C   UNL     1      45.069   5.082  10.517  0.00  0.00    +0.000 A 
ATOM      6  C   UNL     1      45.761   6.178  11.043  0.00  0.00    +0.000 A 
ENDROOT
BRANCH   1   7
ATOM      7  C   UNL     1      46.607   7.534  13.004  0.00  0.00    +0.000 C 
BRANCH   7  10
ATOM      8  O   UNL     1      49.208   6.497  13.337  0.00  0.00    +0.000 OA
ATOM      9  C   UNL     1      48.530   6.744  14.332  0.00  0.00    +0.000 C 
ATOM     10  N   UNL     1      47.236   7.184  14.252  0.00  0.00    +0.000 N 
ATOM     11  H   UNL     1      46.795   7.562  15.084  0.00  0.00    +0.000 HD
BRANCH   9  12
ATOM     12  C   UNL     1      49.050   6.517  15.686  0.00  0.00    +0.000 A 
ATOM     13  C   UNL     1      50.050   7.339  16.187  0.00  0.00    +0.000 A 
ATOM     14  S   UNL     1      50.569   6.906  17.753  0.00  0.00    +0.000 S 
ATOM     15  C   UNL     1      49.441   5.635  17.836  0.00  0.00    +0.000 A 
ATOM     16  N   UNL     1      49.345   4.855  18.945  0.00  0.00    +0.000 NA
ATOM     17  C   UNL     1      48.415   3.960  18.887  0.00  0.00    +0.000 A 
ATOM     18  N   UNL     1      47.579   3.769  17.822  0.00  0.00    +0.000 N 
ATOM     19  C   UNL     1      47.688   4.485  16.654  0.00  0.00    +0.000 A 
ATOM     20  O   UNL     1      47.000   4.202  15.676  0.00  0.00    +0.000 OA
ATOM     21  C   UNL     1      48.691   5.531  16.677  0.00  0.00    +0.000 A 
ATOM     22  H   UNL     1      46.886   3.034  17.834  0.00  0.00    +0.000 HD
ENDBRANCH   9  12
ENDBRANCH   7  10
ENDBRANCH   1   7
BRANCH   4  23
ATOM     23  C   UNL     1      43.710   2.959  10.813  0.00  0.00    +0.000 C 
BRANCH  23  24
ATOM     24  N   UNL     1      43.981   2.809   9.387  0.00  0.00    +0.000 NA
ATOM     25  H   UNL     1      44.368   3.685   9.036  0.00  0.00    +0.000 HD
BRANCH  24  26
ATOM     26  C   UNL     1      44.929   1.727   9.109  0.00  0.00    +0.000 C 
BRANCH  26  27
ATOM     27  C   UNL     1      45.941   2.122   8.051  0.00  0.00    +0.000 A 
ATOM     28  C   UNL     1      46.035   3.465   7.633  0.00  0.00    +0.000 A 
ATOM     29  C   UNL     1      46.983   3.869   6.691  0.00  0.00    +0.000 A 
ATOM     30  C   UNL     1      47.839   2.932   6.124  0.00  0.00    +0.000 A 
ATOM     31  C   UNL     1      47.727   1.589   6.481  0.00  0.00    +0.000 A 
ATOM     32  C   UNL     1      46.778   1.182   7.427  0.00  0.00    +0.000 A 
ATOM     33 CL   UNL     1      46.681  -0.508   7.774  0.00  0.00    +0.000 Cl
ENDBRANCH  26  27
ENDBRANCH  24  26
ENDBRANCH  23  24
ENDBRANCH   4  23
TORSDOF 7
ENDMDL
MODEL 2
REMARK VINA RESULT:    -8.064      1.962      2.351
REMARK INTER + INTRA:         -12.577
REMARK INTER:                 -11.603
REMARK INTRA:                  -0.973
REMARK UNBOUND:                -1.213
REMARK  Name = 
REMARK  7 active torsions:
REMARK  status: ('A' for Active; 'I' for Inactive)
REMARK    1  A    between atoms: C_2  and  C_21
REMARK    2  A    between atoms: N_3  and  C_4
REMARK    3  A    between atoms: C_4  and  C_5
REMARK    4  A    between atoms: C_8  and  C_9
REMARK    5  A    between atoms: C_9  and  N_10
REMARK    6  A    between atoms: N_10  and  C_11
REMARK    7  A    between atoms: C_11  and  C_12
REMARK                            x       y       z     vdW  Elec       q    Type
REMARK                         _______ _______ _______ _____ _____    ______ ____
ROOT
ATOM      1  C   UNL     1      47.279   6.059  13.270  0.00  0.00    +0.000 A 
ATOM      2  C   UNL     1      47.050   4.739  13.676  0.00  0.00    +0.000 A 
ATOM      3  C   UNL     1      46.070   3.968  13.047  0.00  0.00    +0.000 A 
ATOM      4  C   UNL     1      45.304   4.494  11.998  0.00  0.00    +0.000 A 
ATOM      5  C   UNL     1      45.550   5.809  11.579  0.00  0.00    +0.000 A 
ATOM      6  C   UNL     1      46.533   6.582  12.206  0.00  0.00    +0.000 A 
ENDROOT
BRANCH   1   7
ATOM      7  C   UNL     1      48.347   6.880  13.944  0.00  0.00    +0.000 C 
BRANCH   7  10
ATOM      8  O   UNL     1      50.179   6.153  15.961  0.00  0.00    +0.000 OA
ATOM      9  C   UNL     1      49.095   6.637  16.282  0.00  0.00    +0.000 C 
ATOM     10  N   UNL     1      48.127   6.951  15.366  0.00  0.00    +0.000 N 
ATOM     11  H   UNL     1      47.345   7.526  15.658  0.00  0.00    +0.000 HD
BRANCH   9  12
ATOM     12  C   UNL     1      48.741   6.850  17.691  0.00  0.00    +0.000 A 
ATOM     13  C   UNL     1      48.372   8.115  18.125  0.00  0.00    +0.000 A 
ATOM     14  S   UNL     1      48.040   8.194  19.797  0.00  0.00    +0.000 S 
ATOM     15  C   UNL     1      48.330   6.528  19.989  0.00  0.00    +0.000 A 
ATOM     16  N   UNL     1      48.199   5.930  21.203  0.00  0.00    +0.000 NA
ATOM     17  C   UNL     1      48.404   4.655  21.192  0.00  0.00    +0.000 A 
ATOM     18  N   UNL     1      48.733   3.925  20.084  0.00  0.00    +0.000 N 
ATOM     19  C   UNL     1      48.946   4.498  18.853  0.00  0.00    +0.000 A 
ATOM     20  O   UNL     1      49.360   3.828  17.910  0.00  0.00    +0.000 OA
ATOM     21  C   UNL     1      48.693   5.924  18.798  0.00  0.00    +0.000 A 
ATOM     22  H   UNL     1      48.902   2.931  20.150  0.00  0.00    +0.000 HD
ENDBRANCH   9  12
ENDBRANCH   7  10
ENDBRANCH   1   7
BRANCH   4  23
ATOM     23  C   UNL     1      44.238   3.651  11.334  0.00  0.00    +0.000 C 
BRANCH  23  24
ATOM     24  N   UNL     1      44.831   2.451  10.754  0.00  0.00    +0.000 NA
ATOM     25  H   UNL     1      44.540   1.645  11.308  0.00  0.00    +0.000 HD
BRANCH  24  26
ATOM     26  C   UNL     1      44.423   2.242   9.363  0.00  0.00    +0.000 C 
BRANCH  26  27
ATOM     27  C   UNL     1      45.616   2.196   8.428  0.00  0.00    +0.000 A 
ATOM     28  C   UNL     1      46.196   0.959   8.084  0.00  0.00    +0.000 A 
ATOM     29  C   UNL     1      47.269   0.879   7.195  0.00  0.00    +0.000 A 
ATOM     30  C   UNL     1      47.805   2.040   6.650  0.00  0.00    +0.000 A 
ATOM     31  C   UNL     1      47.284   3.280   7.018  0.00  0.00    +0.000 A 
ATOM     32  C   UNL     1      46.207   3.361   7.910  0.00  0.00    +0.000 A 
ATOM     33 CL   UNL     1      45.656   4.942   8.343  0.00  0.00    +0.000 Cl
ENDBRANCH  26  27
ENDBRANCH  24  26
ENDBRANCH  23  24
ENDBRANCH   4  23
TORSDOF 7
ENDMDL
MODEL 3
REMARK VINA RESULT:    -7.469      2.582      3.555
REMARK INTER + INTRA:         -11.738
REMARK INTER:                 -10.583
REMARK INTRA:                  -1.155
REMARK UNBOUND:                -1.213
REMARK  Name = 
REMARK  7 active torsions:
REMARK  status: ('A' for Active; 'I' for Inactive)
REMARK    1  A    between atoms: C_2  and  C_21
REMARK    2  A    between atoms: N_3  and  C_4
REMARK    3  A    between atoms: C_4  and  C_5
REMARK    4  A    between atoms: C_8  and  C_9
REMARK    5  A    between atoms: C_9  and  N_10
REMARK    6  A    between atoms: N_10  and  C_11
REMARK    7  A    between atoms: C_11  and  C_12
REMARK                            x       y       z     vdW  Elec       q    Type
REMARK                         _______ _______ _______ _____ _____    ______ ____
ROOT
ATOM      1  C   UNL     1      46.942   4.562  14.362  0.00  0.00    +0.000 A 
ATOM      2  C   UNL     1      46.344   3.530  13.629  0.00  0.00    +0.000 A 
ATOM      3  C   UNL     1      45.643   3.813  12.455  0.00  0.00    +0.000 A 
ATOM      4  C   UNL     1      45.528   5.129  11.986  0.00  0.00    +0.000 A 
ATOM      5  C   UNL     1      46.145   6.158  12.710  0.00  0.00    +0.000 A 
ATOM      6  C   UNL     1      46.851   5.876  13.884  0.00  0.00    +0.000 A 
ENDROOT
BRANCH   1   7
ATOM      7  C   UNL     1      47.709   4.246  15.620  0.00  0.00    +0.000 C 
BRANCH   7  10
ATOM      8  O   UNL     1      49.629   5.129  17.486  0.00  0.00    +0.000 OA
ATOM      9  C   UNL     1      48.537   5.690  17.441  0.00  0.00    +0.000 C 
ATOM     10  N   UNL     1      47.529   5.276  16.610  0.00  0.00    +0.000 N 
ATOM     11  H   UNL     1      46.733   5.887  16.465  0.00  0.00    +0.000 HD
BRANCH   9  12
ATOM     12  C   UNL     1      48.216   6.812  18.331  0.00  0.00    +0.000 A 
ATOM     13  C   UNL     1      48.018   6.583  19.686  0.00  0.00    +0.000 A 
ATOM     14  S   UNL     1      47.607   7.987  20.563  0.00  0.00    +0.000 S 
ATOM     15  C   UNL     1      47.729   8.959  19.172  0.00  0.00    +0.000 A 
ATOM     16  N   UNL     1      47.513  10.300  19.233  0.00  0.00    +0.000 NA
ATOM     17  C   UNL     1      47.685  10.918  18.112  0.00  0.00    +0.000 A 
ATOM     18  N   UNL     1      48.046  10.321  16.937  0.00  0.00    +0.000 N 
ATOM     19  C   UNL     1      48.204   8.961  16.813  0.00  0.00    +0.000 A 
ATOM     20  O   UNL     1      48.408   8.449  15.714  0.00  0.00    +0.000 OA
ATOM     21  C   UNL     1      48.060   8.220  18.050  0.00  0.00    +0.000 A 
ATOM     22  H   UNL     1      48.141  10.862  16.089  0.00  0.00    +0.000 HD
ENDBRANCH   9  12
ENDBRANCH   7  10
ENDBRANCH   1   7
BRANCH   4  23
ATOM     23  C   UNL     1      44.755   5.423  10.720  0.00  0.00    +0.000 C 
BRANCH  23  24
ATOM     24  N   UNL     1      45.613   5.256   9.552  0.00  0.00    +0.000 NA
ATOM     25  H   UNL     1      46.455   4.755   9.837  0.00  0.00    +0.000 HD
BRANCH  24  26
ATOM     26  C   UNL     1      44.956   4.507   8.478  0.00  0.00    +0.000 C 
BRANCH  26  27
ATOM     27  C   UNL     1      45.813   3.355   7.990  0.00  0.00    +0.000 A 
ATOM     28  C   UNL     1      46.820   3.581   7.030  0.00  0.00    +0.000 A 
ATOM     29  C   UNL     1      47.652   2.550   6.591  0.00  0.00    +0.000 A 
ATOM     30  C   UNL     1      47.476   1.261   7.081  0.00  0.00    +0.000 A 
ATOM     31  C   UNL     1      46.450   1.002   7.989  0.00  0.00    +0.000 A 
ATOM     32  C   UNL     1      45.615   2.035   8.431  0.00  0.00    +0.000 A 
ATOM     33 CL   UNL     1      44.343   1.612   9.522  0.00  0.00    +0.000 Cl
ENDBRANCH  26  27
ENDBRANCH  24  26
ENDBRANCH  23  24
ENDBRANCH   4  23
TORSDOF 7
ENDMDL
MODEL 4
REMARK VINA RESULT:    -7.424      3.268      4.635
REMARK INTER + INTRA:         -11.674
REMARK INTER:                 -10.555
REMARK INTRA:                  -1.119
REMARK UNBOUND:                -1.213
REMARK  Name = 
REMARK  7 active torsions:
REMARK  status: ('A' for Active; 'I' for Inactive)
REMARK    1  A    between atoms: C_2  and  C_21
REMARK    2  A    between atoms: N_3  and  C_4
REMARK    3  A    between atoms: C_4  and  C_5
REMARK    4  A    between atoms: C_8  and  C_9
REMARK    5  A    between atoms: C_9  and  N_10
REMARK    6  A    between atoms: N_10  and  C_11
REMARK    7  A    between atoms: C_11  and  C_12
REMARK                            x       y       z     vdW  Elec       q    Type
REMARK                         _______ _______ _______ _____ _____    ______ ____
ROOT
ATOM      1  C   UNL     1      48.543   5.796  16.366  0.00  0.00    +0.000 A 
ATOM      2  C   UNL     1      48.534   6.564  15.195  0.00  0.00    +0.000 A 
ATOM      3  C   UNL     1      47.771   6.166  14.096  0.00  0.00    +0.000 A 
ATOM      4  C   UNL     1      46.997   4.999  14.143  0.00  0.00    +0.000 A 
ATOM      5  C   UNL     1      46.990   4.243  15.323  0.00  0.00    +0.000 A 
ATOM      6  C   UNL     1      47.751   4.642  16.427  0.00  0.00    +0.000 A 
ENDROOT
BRANCH   1   7
ATOM      7  C   UNL     1      49.358   6.240  17.552  0.00  0.00    +0.000 C 
BRANCH   7  10
ATOM      8  O   UNL     1      51.973   6.064  16.515  0.00  0.00    +0.000 OA
ATOM      9  C   UNL     1      51.624   5.278  17.392  0.00  0.00    +0.000 C 
ATOM     10  N   UNL     1      50.351   5.256  17.898  0.00  0.00    +0.000 N 
ATOM     11  H   UNL     1      50.171   4.735  18.749  0.00  0.00    +0.000 HD
BRANCH   9  12
ATOM     12  C   UNL     1      52.541   4.257  17.915  0.00  0.00    +0.000 A 
ATOM     13  C   UNL     1      53.718   4.644  18.540  0.00  0.00    +0.000 A 
ATOM     14  S   UNL     1      54.687   3.333  19.042  0.00  0.00    +0.000 S 
ATOM     15  C   UNL     1      53.543   2.203  18.487  0.00  0.00    +0.000 A 
ATOM     16  N   UNL     1      53.751   0.867  18.630  0.00  0.00    +0.000 NA
ATOM     17  C   UNL     1      52.780   0.129  18.206  0.00  0.00    +0.000 A 
ATOM     18  N   UNL     1      51.624   0.601  17.648  0.00  0.00    +0.000 N 
ATOM     19  C   UNL     1      51.403   1.938  17.418  0.00  0.00    +0.000 A 
ATOM     20  O   UNL     1      50.408   2.314  16.803  0.00  0.00    +0.000 OA
ATOM     21  C   UNL     1      52.445   2.817  17.909  0.00  0.00    +0.000 A 
ATOM     22  H   UNL     1      50.913  -0.034  17.316  0.00  0.00    +0.000 HD
ENDBRANCH   9  12
ENDBRANCH   7  10
ENDBRANCH   1   7
BRANCH   4  23
ATOM     23  C   UNL     1      46.184   4.573  12.940  0.00  0.00    +0.000 C 
BRANCH  23  24
ATOM     24  N   UNL     1      45.826   5.736  12.135  0.00  0.00    +0.000 NA
ATOM     25  H   UNL     1      46.604   5.952  11.513  0.00  0.00    +0.000 HD
BRANCH  24  26
ATOM     26  C   UNL     1      44.623   5.509  11.330  0.00  0.00    +0.000 C 
BRANCH  26  27
ATOM     27  C   UNL     1      44.871   4.506  10.219  0.00  0.00    +0.000 A 
ATOM     28  C   UNL     1      45.610   4.884   9.079  0.00  0.00    +0.000 A 
ATOM     29  C   UNL     1      45.890   3.973   8.059  0.00  0.00    +0.000 A 
ATOM     30  C   UNL     1      45.412   2.671   8.141  0.00  0.00    +0.000 A 
ATOM     31  C   UNL     1      44.631   2.290   9.232  0.00  0.00    +0.000 A 
ATOM     32  C   UNL     1      44.351   3.201  10.257  0.00  0.00    +0.000 A 
ATOM     33 CL   UNL     1      43.338   2.654  11.547  0.00  0.00    +0.000 Cl
ENDBRANCH  26  27
ENDBRANCH  24  26
ENDBRANCH  23  24
ENDBRANCH   4  23
TORSDOF 7
ENDMDL
MODEL 5
REMARK VINA RESULT:    -7.370      4.016      8.354
REMARK INTER + INTRA:         -11.599
REMARK INTER:                  -9.908
REMARK INTRA:                  -1.691
REMARK UNBOUND:                -1.213
REMARK  Name = 
REMARK  7 active torsions:
REMARK  status: ('A' for Active; 'I' for Inactive)
REMARK    1  A    between atoms: C_2  and  C_21
REMARK    2  A    between atoms: N_3  and  C_4
REMARK    3  A    between atoms: C_4  and  C_5
REMARK    4  A    between atoms: C_8  and  C_9
REMARK    5  A    between atoms: C_9  and  N_10
REMARK    6  A    between atoms: N_10  and  C_11
REMARK    7  A    between atoms: C_11  and  C_12
REMARK                            x       y       z     vdW  Elec       q    Type
REMARK                         _______ _______ _______ _____ _____    ______ ____
ROOT
ATOM      1  C   UNL     1      48.506   7.991  13.504  0.00  0.00    +0.000 A 
ATOM      2  C   UNL     1      48.067   9.075  14.272  0.00  0.00    +0.000 A 
ATOM      3  C   UNL     1      48.180   9.047  15.664  0.00  0.00    +0.000 A 
ATOM      4  C   UNL     1      48.739   7.939  16.316  0.00  0.00    +0.000 A 
ATOM      5  C   UNL     1      49.197   6.863  15.544  0.00  0.00    +0.000 A 
ATOM      6  C   UNL     1      49.088   6.892  14.150  0.00  0.00    +0.000 A 
ENDROOT
BRANCH   1   7
ATOM      7  C   UNL     1      48.394   8.036  12.003  0.00  0.00    +0.000 C 
BRANCH   7  10
ATOM      8  O   UNL     1      45.584   7.838  11.874  0.00  0.00    +0.000 OA
ATOM      9  C   UNL     1      46.270   6.925  11.418  0.00  0.00    +0.000 C 
ATOM     10  N   UNL     1      47.637   6.917  11.505  0.00  0.00    +0.000 N 
ATOM     11  H   UNL     1      48.158   6.252  10.943  0.00  0.00    +0.000 HD
BRANCH   9  12
ATOM     12  C   UNL     1      45.657   5.741  10.803  0.00  0.00    +0.000 A 
ATOM     13  C   UNL     1      45.838   5.496   9.449  0.00  0.00    +0.000 A 
ATOM     14  S   UNL     1      45.017   4.108   8.892  0.00  0.00    +0.000 S 
ATOM     15  C   UNL     1      44.433   3.759  10.451  0.00  0.00    +0.000 A 
ATOM     16  N   UNL     1      43.660   2.664  10.680  0.00  0.00    +0.000 NA
ATOM     17  C   UNL     1      43.327   2.498  11.917  0.00  0.00    +0.000 A 
ATOM     18  N   UNL     1      43.689   3.326  12.943  0.00  0.00    +0.000 N 
ATOM     19  C   UNL     1      44.408   4.480  12.746  0.00  0.00    +0.000 A 
ATOM     20  O   UNL     1      44.609   5.262  13.673  0.00  0.00    +0.000 OA
ATOM     21  C   UNL     1      44.842   4.698  11.381  0.00  0.00    +0.000 A 
ATOM     22  H   UNL     1      43.374   3.149  13.886  0.00  0.00    +0.000 HD
ENDBRANCH   9  12
ENDBRANCH   7  10
ENDBRANCH   1   7
BRANCH   4  23
ATOM     23  C   UNL     1      48.844   7.916  17.825  0.00  0.00    +0.000 C 
BRANCH  23  24
ATOM     24  N   UNL     1      47.669   7.273  18.405  0.00  0.00    +0.000 NA
ATOM     25  H   UNL     1      47.071   6.947  17.646  0.00  0.00    +0.000 HD
BRANCH  24  26
ATOM     26  C   UNL     1      48.019   6.134  19.257  0.00  0.00    +0.000 C 
BRANCH  26  27
ATOM     27  C   UNL     1      48.331   4.895  18.440  0.00  0.00    +0.000 A 
ATOM     28  C   UNL     1      47.313   4.264  17.698  0.00  0.00    +0.000 A 
ATOM     29  C   UNL     1      47.576   3.147  16.904  0.00  0.00    +0.000 A 
ATOM     30  C   UNL     1      48.859   2.617  16.857  0.00  0.00    +0.000 A 
ATOM     31  C   UNL     1      49.871   3.189  17.627  0.00  0.00    +0.000 A 
ATOM     32  C   UNL     1      49.609   4.311  18.423  0.00  0.00    +0.000 A 
ATOM     33 CL   UNL     1      50.913   4.926  19.377  0.00  0.00    +0.000 Cl
ENDBRANCH  26  27
ENDBRANCH  24  26
ENDBRANCH  23  24
ENDBRANCH   4  23
TORSDOF 7
ENDMDL
MODEL 6
REMARK VINA RESULT:    -7.196      3.728      8.761
REMARK INTER + INTRA:         -11.353
REMARK INTER:                  -9.495
REMARK INTRA:                  -1.858
REMARK UNBOUND:                -1.213
REMARK  Name = 
REMARK  7 active torsions:
REMARK  status: ('A' for Active; 'I' for Inactive)
REMARK    1  A    between atoms: C_2  and  C_21
REMARK    2  A    between atoms: N_3  and  C_4
REMARK    3  A    between atoms: C_4  and  C_5
REMARK    4  A    between atoms: C_8  and  C_9
REMARK    5  A    between atoms: C_9  and  N_10
REMARK    6  A    between atoms: N_10  and  C_11
REMARK    7  A    between atoms: C_11  and  C_12
REMARK                            x       y       z     vdW  Elec       q    Type
REMARK                         _______ _______ _______ _____ _____    ______ ____
ROOT
ATOM      1  C   UNL     1      48.276   7.822  13.698  0.00  0.00    +0.000 A 
ATOM      2  C   UNL     1      49.137   6.846  14.213  0.00  0.00    +0.000 A 
ATOM      3  C   UNL     1      49.572   6.916  15.538  0.00  0.00    +0.000 A 
ATOM      4  C   UNL     1      49.152   7.957  16.378  0.00  0.00    +0.000 A 
ATOM      5  C   UNL     1      48.273   8.921  15.867  0.00  0.00    +0.000 A 
ATOM      6  C   UNL     1      47.834   8.850  14.541  0.00  0.00    +0.000 A 
ENDROOT
BRANCH   1   7
ATOM      7  C   UNL     1      47.801   7.731  12.272  0.00  0.00    +0.000 C 
BRANCH   7  10
ATOM      8  O   UNL     1      45.001   7.485  12.498  0.00  0.00    +0.000 OA
ATOM      9  C   UNL     1      45.658   6.515  12.127  0.00  0.00    +0.000 C 
ATOM     10  N   UNL     1      47.026   6.535  12.058  0.00  0.00    +0.000 N 
ATOM     11  H   UNL     1      47.501   5.790  11.560  0.00  0.00    +0.000 HD
BRANCH   9  12
ATOM     12  C   UNL     1      45.016   5.238  11.794  0.00  0.00    +0.000 A 
ATOM     13  C   UNL     1      44.291   4.557  12.762  0.00  0.00    +0.000 A 
ATOM     14  S   UNL     1      43.654   3.071  12.219  0.00  0.00    +0.000 S 
ATOM     15  C   UNL     1      44.282   3.309  10.656  0.00  0.00    +0.000 A 
ATOM     16  N   UNL     1      44.076   2.395   9.671  0.00  0.00    +0.000 NA
ATOM     17  C   UNL     1      44.569   2.728   8.525  0.00  0.00    +0.000 A 
ATOM     18  N   UNL     1      45.253   3.885   8.273  0.00  0.00    +0.000 N 
ATOM     19  C   UNL     1      45.546   4.802   9.254  0.00  0.00    +0.000 A 
ATOM     20  O   UNL     1      46.268   5.768   9.016  0.00  0.00    +0.000 OA
ATOM     21  C   UNL     1      44.984   4.498  10.554  0.00  0.00    +0.000 A 
ATOM     22  H   UNL     1      45.632   4.073   7.356  0.00  0.00    +0.000 HD
ENDBRANCH   9  12
ENDBRANCH   7  10
ENDBRANCH   1   7
BRANCH   4  23
ATOM     23  C   UNL     1      49.641   8.027  17.808  0.00  0.00    +0.000 C 
BRANCH  23  24
ATOM     24  N   UNL     1      48.554   7.716  18.730  0.00  0.00    +0.000 NA
ATOM     25  H   UNL     1      47.692   7.616  18.194  0.00  0.00    +0.000 HD
BRANCH  24  26
ATOM     26  C   UNL     1      48.793   6.481  19.480  0.00  0.00    +0.000 C 
BRANCH  26  27
ATOM     27  C   UNL     1      48.602   5.250  18.614  0.00  0.00    +0.000 A 
ATOM     28  C   UNL     1      47.333   4.959  18.073  0.00  0.00    +0.000 A 
ATOM     29  C   UNL     1      47.133   3.858  17.239  0.00  0.00    +0.000 A 
ATOM     30  C   UNL     1      48.192   3.006  16.950  0.00  0.00    +0.000 A 
ATOM     31  C   UNL     1      49.443   3.242  17.519  0.00  0.00    +0.000 A 
ATOM     32  C   UNL     1      49.646   4.347  18.354  0.00  0.00    +0.000 A 
ATOM     33 CL   UNL     1      51.218   4.535  19.049  0.00  0.00    +0.000 Cl
ENDBRANCH  26  27
ENDBRANCH  24  26
ENDBRANCH  23  24
ENDBRANCH   4  23
TORSDOF 7
ENDMDL
MODEL 7
REMARK VINA RESULT:    -7.129      3.802      4.582
REMARK INTER + INTRA:         -11.259
REMARK INTER:                 -10.277
REMARK INTRA:                  -0.982
REMARK UNBOUND:                -1.213
REMARK  Name = 
REMARK  7 active torsions:
REMARK  status: ('A' for Active; 'I' for Inactive)
REMARK    1  A    between atoms: C_2  and  C_21
REMARK    2  A    between atoms: N_3  and  C_4
REMARK    3  A    between atoms: C_4  and  C_5
REMARK    4  A    between atoms: C_8  and  C_9
REMARK    5  A    between atoms: C_9  and  N_10
REMARK    6  A    between atoms: N_10  and  C_11
REMARK    7  A    between atoms: C_11  and  C_12
REMARK                            x       y       z     vdW  Elec       q    Type
REMARK                         _______ _______ _______ _____ _____    ______ ____
ROOT
ATOM      1  C   UNL     1      45.281   7.127  12.433  0.00  0.00    +0.000 A 
ATOM      2  C   UNL     1      44.422   6.270  13.131  0.00  0.00    +0.000 A 
ATOM      3  C   UNL     1      44.013   5.063  12.561  0.00  0.00    +0.000 A 
ATOM      4  C   UNL     1      44.456   4.683  11.287  0.00  0.00    +0.000 A 
ATOM      5  C   UNL     1      45.333   5.532  10.598  0.00  0.00    +0.000 A 
ATOM      6  C   UNL     1      45.746   6.740  11.169  0.00  0.00    +0.000 A 
ENDROOT
BRANCH   1   7
ATOM      7  C   UNL     1      45.729   8.420  13.061  0.00  0.00    +0.000 C 
BRANCH   7  10
ATOM      8  O   UNL     1      46.433  10.642  11.474  0.00  0.00    +0.000 OA
ATOM      9  C   UNL     1      47.321   9.911  11.908  0.00  0.00    +0.000 C 
ATOM     10  N   UNL     1      47.056   8.776  12.627  0.00  0.00    +0.000 N 
ATOM     11  H   UNL     1      47.815   8.326  13.128  0.00  0.00    +0.000 HD
BRANCH   9  12
ATOM     12  C   UNL     1      48.736  10.176  11.622  0.00  0.00    +0.000 A 
ATOM     13  C   UNL     1      49.185  11.485  11.518  0.00  0.00    +0.000 A 
ATOM     14  S   UNL     1      50.843  11.610  11.136  0.00  0.00    +0.000 S 
ATOM     15  C   UNL     1      51.030   9.920  11.146  0.00  0.00    +0.000 A 
ATOM     16  N   UNL     1      52.239   9.347  10.906  0.00  0.00    +0.000 NA
ATOM     17  C   UNL     1      52.244   8.058  10.992  0.00  0.00    +0.000 A 
ATOM     18  N   UNL     1      51.153   7.290  11.288  0.00  0.00    +0.000 N 
ATOM     19  C   UNL     1      49.897   7.820  11.466  0.00  0.00    +0.000 A 
ATOM     20  O   UNL     1      48.920   7.089  11.608  0.00  0.00    +0.000 OA
ATOM     21  C   UNL     1      49.840   9.268  11.419  0.00  0.00    +0.000 A 
ATOM     22  H   UNL     1      51.221   6.283  11.317  0.00  0.00    +0.000 HD
ENDBRANCH   9  12
ENDBRANCH   7  10
ENDBRANCH   1   7
BRANCH   4  23
ATOM     23  C   UNL     1      43.994   3.378  10.676  0.00  0.00    +0.000 C 
BRANCH  23  24
ATOM     24  N   UNL     1      45.143   2.550  10.325  0.00  0.00    +0.000 NA
ATOM     25  H   UNL     1      45.322   1.901  11.091  0.00  0.00    +0.000 HD
BRANCH  24  26
ATOM     26  C   UNL     1      44.924   1.785   9.095  0.00  0.00    +0.000 C 
BRANCH  26  27
ATOM     27  C   UNL     1      45.921   2.160   8.014  0.00  0.00    +0.000 A 
ATOM     28  C   UNL     1      45.997   3.490   7.557  0.00  0.00    +0.000 A 
ATOM     29  C   UNL     1      46.931   3.876   6.593  0.00  0.00    +0.000 A 
ATOM     30  C   UNL     1      47.790   2.932   6.044  0.00  0.00    +0.000 A 
ATOM     31  C   UNL     1      47.696   1.598   6.440  0.00  0.00    +0.000 A 
ATOM     32  C   UNL     1      46.760   1.210   7.408  0.00  0.00    +0.000 A 
ATOM     33 CL   UNL     1      46.684  -0.471   7.804  0.00  0.00    +0.000 Cl
ENDBRANCH  26  27
ENDBRANCH  24  26
ENDBRANCH  23  24
ENDBRANCH   4  23
TORSDOF 7
ENDMDL
MODEL 8
REMARK VINA RESULT:    -6.898      4.579      9.435
REMARK INTER + INTRA:         -10.933
REMARK INTER:                  -9.208
REMARK INTRA:                  -1.724
REMARK UNBOUND:                -1.213
REMARK  Name = 
REMARK  7 active torsions:
REMARK  status: ('A' for Active; 'I' for Inactive)
REMARK    1  A    between atoms: C_2  and  C_21
REMARK    2  A    between atoms: N_3  and  C_4
REMARK    3  A    between atoms: C_4  and  C_5
REMARK    4  A    between atoms: C_8  and  C_9
REMARK    5  A    between atoms: C_9  and  N_10
REMARK    6  A    between atoms: N_10  and  C_11
REMARK    7  A    between atoms: C_11  and  C_12
REMARK                            x       y       z     vdW  Elec       q    Type
REMARK                         _______ _______ _______ _____ _____    ______ ____
ROOT
ATOM      1  C   UNL     1      47.736   4.404  18.021  0.00  0.00    +0.000 A 
ATOM      2  C   UNL     1      48.885   4.030  18.730  0.00  0.00    +0.000 A 
ATOM      3  C   UNL     1      49.220   4.677  19.921  0.00  0.00    +0.000 A 
ATOM      4  C   UNL     1      48.416   5.704  20.433  0.00  0.00    +0.000 A 
ATOM      5  C   UNL     1      47.255   6.062  19.733  0.00  0.00    +0.000 A 
ATOM      6  C   UNL     1      46.916   5.413  18.542  0.00  0.00    +0.000 A 
ENDROOT
BRANCH   1   7
ATOM      7  C   UNL     1      47.374   3.691  16.745  0.00  0.00    +0.000 C 
BRANCH   7  10
ATOM      8  O   UNL     1      47.222   3.196  13.973  0.00  0.00    +0.000 OA
ATOM      9  C   UNL     1      46.849   4.284  14.408  0.00  0.00    +0.000 C 
ATOM     10  N   UNL     1      46.955   4.624  15.730  0.00  0.00    +0.000 N 
ATOM     11  H   UNL     1      46.455   5.440  16.067  0.00  0.00    +0.000 HD
BRANCH   9  12
ATOM     12  C   UNL     1      46.321   5.323  13.516  0.00  0.00    +0.000 A 
ATOM     13  C   UNL     1      47.103   6.427  13.205  0.00  0.00    +0.000 A 
ATOM     14  S   UNL     1      46.317   7.558  12.198  0.00  0.00    +0.000 S 
ATOM     15  C   UNL     1      44.924   6.587  12.101  0.00  0.00    +0.000 A 
ATOM     16  N   UNL     1      43.851   6.974  11.361  0.00  0.00    +0.000 NA
ATOM     17  C   UNL     1      42.883   6.119  11.340  0.00  0.00    +0.000 A 
ATOM     18  N   UNL     1      42.885   4.919  11.995  0.00  0.00    +0.000 N 
ATOM     19  C   UNL     1      43.917   4.520  12.812  0.00  0.00    +0.000 A 
ATOM     20  O   UNL     1      43.829   3.493  13.480  0.00  0.00    +0.000 OA
ATOM     21  C   UNL     1      45.048   5.425  12.842  0.00  0.00    +0.000 A 
ATOM     22  H   UNL     1      42.084   4.306  11.954  0.00  0.00    +0.000 HD
ENDBRANCH   9  12
ENDBRANCH   7  10
ENDBRANCH   1   7
BRANCH   4  23
ATOM     23  C   UNL     1      48.798   6.404  21.718  0.00  0.00    +0.000 C 
BRANCH  23  24
ATOM     24  N   UNL     1      48.763   7.851  21.536  0.00  0.00    +0.000 NA
ATOM     25  H   UNL     1      48.862   8.296  22.448  0.00  0.00    +0.000 HD
BRANCH  24  26
ATOM     26  C   UNL     1      49.833   8.329  20.656  0.00  0.00    +0.000 C 
BRANCH  26  27
ATOM     27  C   UNL     1      49.301   8.744  19.298  0.00  0.00    +0.000 A 
ATOM     28  C   UNL     1      48.215   9.638  19.209  0.00  0.00    +0.000 A 
ATOM     29  C   UNL     1      47.728  10.072  17.975  0.00  0.00    +0.000 A 
ATOM     30  C   UNL     1      48.299   9.598  16.800  0.00  0.00    +0.000 A 
ATOM     31  C   UNL     1      49.338   8.670  16.862  0.00  0.00    +0.000 A 
ATOM     32  C   UNL     1      49.828   8.235  18.099  0.00  0.00    +0.000 A 
ATOM     33 CL   UNL     1      51.087   7.050  18.079  0.00  0.00    +0.000 Cl
ENDBRANCH  26  27
ENDBRANCH  24  26
ENDBRANCH  23  24
ENDBRANCH   4  23
TORSDOF 7
ENDMDL
MODEL 9
REMARK VINA RESULT:    -6.730      4.733      9.074
REMARK INTER + INTRA:         -10.696
REMARK INTER:                  -8.741
REMARK INTRA:                  -1.955
REMARK UNBOUND:                -1.213
REMARK  Name = 
REMARK  7 active torsions:
REMARK  status: ('A' for Active; 'I' for Inactive)
REMARK    1  A    between atoms: C_2  and  C_21
REMARK    2  A    between atoms: N_3  and  C_4
REMARK    3  A    between atoms: C_4  and  C_5
REMARK    4  A    between atoms: C_8  and  C_9
REMARK    5  A    between atoms: C_9  and  N_10
REMARK    6  A    between atoms: N_10  and  C_11
REMARK    7  A    between atoms: C_11  and  C_12
REMARK                            x       y       z     vdW  Elec       q    Type
REMARK                         _______ _______ _______ _____ _____    ______ ____
ROOT
ATOM      1  C   UNL     1      48.180   4.015  17.632  0.00  0.00    +0.000 A 
ATOM      2  C   UNL     1      47.954   4.979  18.622  0.00  0.00    +0.000 A 
ATOM      3  C   UNL     1      49.015   5.470  19.386  0.00  0.00    +0.000 A 
ATOM      4  C   UNL     1      50.323   5.015  19.174  0.00  0.00    +0.000 A 
ATOM      5  C   UNL     1      50.552   4.066  18.168  0.00  0.00    +0.000 A 
ATOM      6  C   UNL     1      49.490   3.575  17.401  0.00  0.00    +0.000 A 
ENDROOT
BRANCH   1   7
ATOM      7  C   UNL     1      47.032   3.501  16.804  0.00  0.00    +0.000 C 
BRANCH   7  10
ATOM      8  O   UNL     1      47.302   3.120  14.023  0.00  0.00    +0.000 OA
ATOM      9  C   UNL     1      46.780   4.153  14.438  0.00  0.00    +0.000 C 
ATOM     10  N   UNL     1      46.675   4.441  15.773  0.00  0.00    +0.000 N 
ATOM     11  H   UNL     1      46.063   5.197  16.063  0.00  0.00    +0.000 HD
BRANCH   9  12
ATOM     12  C   UNL     1      46.288   5.184  13.516  0.00  0.00    +0.000 A 
ATOM     13  C   UNL     1      47.114   6.242  13.162  0.00  0.00    +0.000 A 
ATOM     14  S   UNL     1      46.368   7.372  12.124  0.00  0.00    +0.000 S 
ATOM     15  C   UNL     1      44.933   6.460  12.071  0.00  0.00    +0.000 A 
ATOM     16  N   UNL     1      43.871   6.868  11.327  0.00  0.00    +0.000 NA
ATOM     17  C   UNL     1      42.867   6.055  11.343  0.00  0.00    +0.000 A 
ATOM     18  N   UNL     1      42.824   4.879  12.038  0.00  0.00    +0.000 N 
ATOM     19  C   UNL     1      43.844   4.463  12.859  0.00  0.00    +0.000 A 
ATOM     20  O   UNL     1      43.719   3.463  13.562  0.00  0.00    +0.000 OA
ATOM     21  C   UNL     1      45.014   5.319  12.850  0.00  0.00    +0.000 A 
ATOM     22  H   UNL     1      41.996   4.300  12.025  0.00  0.00    +0.000 HD
ENDBRANCH   9  12
ENDBRANCH   7  10
ENDBRANCH   1   7
BRANCH   4  23
ATOM     23  C   UNL     1      51.462   5.547  20.017  0.00  0.00    +0.000 C 
BRANCH  23  24
ATOM     24  N   UNL     1      52.443   6.221  19.174  0.00  0.00    +0.000 NA
ATOM     25  H   UNL     1      52.498   5.729  18.283  0.00  0.00    +0.000 HD
BRANCH  24  26
ATOM     26  C   UNL     1      52.094   7.622  18.922  0.00  0.00    +0.000 C 
BRANCH  26  27
ATOM     27  C   UNL     1      51.167   7.766  17.730  0.00  0.00    +0.000 A 
ATOM     28  C   UNL     1      51.517   7.191  16.492  0.00  0.00    +0.000 A 
ATOM     29  C   UNL     1      50.667   7.270  15.387  0.00  0.00    +0.000 A 
ATOM     30  C   UNL     1      49.461   7.952  15.488  0.00  0.00    +0.000 A 
ATOM     31  C   UNL     1      49.119   8.577  16.687  0.00  0.00    +0.000 A 
ATOM     32  C   UNL     1      49.969   8.497  17.797  0.00  0.00    +0.000 A 
ATOM     33 CL   UNL     1      49.485   9.340  19.227  0.00  0.00    +0.000 Cl
ENDBRANCH  26  27
ENDBRANCH  24  26
ENDBRANCH  23  24
ENDBRANCH   4  23
TORSDOF 7
ENDMDL
