MODEL 1
REMARK VINA RESULT:    -7.801      0.000      0.000
REMARK INTER + INTRA:         -11.368
REMARK INTER:                 -10.537
REMARK INTRA:                  -0.832
REMARK UNBOUND:                -0.832
REMARK  Name = 
REMARK  6 active torsions:
REMARK  status: ('A' for Active; 'I' for Inactive)
REMARK    1  A    between atoms: C_2  and  C_4
REMARK    2  A    between atoms: C_8  and  O_9
REMARK    3  A    between atoms: O_9  and  C_10
REMARK    4  A    between atoms: C_10  and  C_11
REMARK    5  A    between atoms: C_12  and  C_13
REMARK    6  A    between atoms: C_17  and  C_18
REMARK                            x       y       z     vdW  Elec       q    Type
REMARK                         _______ _______ _______ _____ _____    ______ ____
ROOT
ATOM      1  C   UNL     1      45.792   5.846  11.807  0.00  0.00    +0.000 C 
ATOM      2  C   UNL     1      46.122   5.045  12.831  0.00  0.00    +0.000 C 
ENDROOT
BRANCH   2   3
ATOM      3  C   UNL     1      47.078   5.443  13.863  0.00  0.00    +0.000 A 
ATOM      4  C   UNL     1      47.792   6.637  13.731  0.00  0.00    +0.000 A 
ATOM      5  C   UNL     1      48.669   7.042  14.725  0.00  0.00    +0.000 A 
ATOM      6  C   UNL     1      48.795   6.291  15.883  0.00  0.00    +0.000 A 
ATOM      7  C   UNL     1      48.032   5.133  16.091  0.00  0.00    +0.000 A 
ATOM      8  C   UNL     1      47.204   4.695  15.041  0.00  0.00    +0.000 A 
BRANCH   7   9
ATOM      9  C   UNL     1      48.049   4.370  17.413  0.00  0.00    +0.000 C 
ATOM     10  C   UNL     1      49.310   4.685  18.243  0.00  0.00    +0.000 C 
ATOM     11  C   UNL     1      50.546   3.925  17.762  0.00  0.00    +0.000 C 
ATOM     12  N   UNL     1      50.327   2.479  17.681  0.00  0.00    +0.000 NA
ATOM     13  C   UNL     1      49.175   2.130  16.859  0.00  0.00    +0.000 C 
ATOM     14  C   UNL     1      47.889   2.843  17.295  0.00  0.00    +0.000 C 
ATOM     15  H   UNL     1      50.195   2.112  18.611  0.00  0.00    +0.000 HD
ENDBRANCH   7   9
ENDBRANCH   2   3
BRANCH   1  16
ATOM     16  C   UNL     1      44.714   5.521  10.837  0.00  0.00    +0.000 C 
BRANCH  16  17
ATOM     17  O   UNL     1      45.295   5.380   9.546  0.00  0.00    +0.000 OA
BRANCH  17  22
ATOM     18  C   UNL     1      46.502   2.623   7.525  0.00  0.00    +0.000 A 
ATOM     19  C   UNL     1      45.830   1.523   8.071  0.00  0.00    +0.000 A 
ATOM     20  C   UNL     1      44.937   1.712   9.124  0.00  0.00    +0.000 A 
ATOM     21  C   UNL     1      44.720   2.993   9.632  0.00  0.00    +0.000 A 
ATOM     22  C   UNL     1      45.400   4.091   9.097  0.00  0.00    +0.000 A 
ATOM     23  C   UNL     1      46.277   3.906   8.033  0.00  0.00    +0.000 A 
BRANCH  18  25
ATOM     24  N   UNL     1      47.278   3.159   5.289  0.00  0.00    +0.000 N 
ATOM     25  C   UNL     1      47.475   2.421   6.426  0.00  0.00    +0.000 C 
ATOM     26  O   UNL     1      48.419   1.652   6.534  0.00  0.00    +0.000 OA
ATOM     27  H   UNL     1      47.982   3.081   4.568  0.00  0.00    +0.000 HD
ATOM     28  H   UNL     1      46.660   3.956   5.264  0.00  0.00    +0.000 HD
ENDBRANCH  18  25
ENDBRANCH  17  22
ENDBRANCH  16  17
ENDBRANCH   1  16
TORSDOF 6
ENDMDL
MODEL 2
REMARK VINA RESULT:    -7.393      3.606      8.793
REMARK INTER + INTRA:         -10.818
REMARK INTER:                 -10.490
REMARK INTRA:                  -0.328
REMARK UNBOUND:                -0.832
REMARK  Name = 
REMARK  6 active torsions:
REMARK  status: ('A' for Active; 'I' for Inactive)
REMARK    1  A    between atoms: C_2  and  C_4
REMARK    2  A    between atoms: C_8  and  O_9
REMARK    3  A    between atoms: O_9  and  C_10
REMARK    4  A    between atoms: C_10  and  C_11
REMARK    5  A    between atoms: C_12  and  C_13
REMARK    6  A    between atoms: C_17  and  C_18
REMARK                            x       y       z     vdW  Elec       q    Type
REMARK                         _______ _______ _______ _____ _____    ______ ____
ROOT
ATOM      1  C   UNL     1      47.340   4.235  15.952  0.00  0.00    +0.000 C 
ATOM      2  C   UNL     1      47.117   3.860  14.683  0.00  0.00    +0.000 C 
ENDROOT
BRANCH   2   3
ATOM      3  C   UNL     1      46.757   4.814  13.635  0.00  0.00    +0.000 A 
ATOM      4  C   UNL     1      47.571   5.921  13.387  0.00  0.00    +0.000 A 
ATOM      5  C   UNL     1      47.258   6.807  12.368  0.00  0.00    +0.000 A 
ATOM      6  C   UNL     1      46.166   6.561  11.551  0.00  0.00    +0.000 A 
ATOM      7  C   UNL     1      45.374   5.417  11.713  0.00  0.00    +0.000 A 
ATOM      8  C   UNL     1      45.660   4.568  12.799  0.00  0.00    +0.000 A 
BRANCH   7   9
ATOM      9  C   UNL     1      44.255   5.053  10.741  0.00  0.00    +0.000 C 
ATOM     10  C   UNL     1      43.084   4.343  11.451  0.00  0.00    +0.000 C 
ATOM     11  C   UNL     1      43.359   2.865  11.725  0.00  0.00    +0.000 C 
ATOM     12  N   UNL     1      43.756   2.130  10.522  0.00  0.00    +0.000 NA
ATOM     13  C   UNL     1      44.897   2.734   9.845  0.00  0.00    +0.000 C 
ATOM     14  C   UNL     1      44.686   4.217   9.521  0.00  0.00    +0.000 C 
ATOM     15  H   UNL     1      42.974   2.090   9.885  0.00  0.00    +0.000 HD
ENDBRANCH   7   9
ENDBRANCH   2   3
BRANCH   1  16
ATOM     16  C   UNL     1      47.854   3.307  16.993  0.00  0.00    +0.000 C 
BRANCH  16  17
ATOM     17  O   UNL     1      48.943   2.573  16.448  0.00  0.00    +0.000 OA
BRANCH  17  22
ATOM     18  C   UNL     1      52.236   1.711  17.695  0.00  0.00    +0.000 A 
ATOM     19  C   UNL     1      52.664   2.904  18.288  0.00  0.00    +0.000 A 
ATOM     20  C   UNL     1      51.822   4.015  18.290  0.00  0.00    +0.000 A 
ATOM     21  C   UNL     1      50.562   3.935  17.697  0.00  0.00    +0.000 A 
ATOM     22  C   UNL     1      50.138   2.748  17.093  0.00  0.00    +0.000 A 
ATOM     23  C   UNL     1      50.969   1.633  17.108  0.00  0.00    +0.000 A 
BRANCH  18  25
ATOM     24  N   UNL     1      52.811  -0.513  18.480  0.00  0.00    +0.000 N 
ATOM     25  C   UNL     1      53.140   0.537  17.664  0.00  0.00    +0.000 C 
ATOM     26  O   UNL     1      54.119   0.497  16.933  0.00  0.00    +0.000 OA
ATOM     27  H   UNL     1      53.381  -1.344  18.406  0.00  0.00    +0.000 HD
ATOM     28  H   UNL     1      51.901  -0.599  18.907  0.00  0.00    +0.000 HD
ENDBRANCH  18  25
ENDBRANCH  17  22
ENDBRANCH  16  17
ENDBRANCH   1  16
TORSDOF 6
ENDMDL
MODEL 3
REMARK VINA RESULT:    -7.246      2.463      3.956
REMARK INTER + INTRA:         -10.619
REMARK INTER:                  -9.627
REMARK INTRA:                  -0.991
REMARK UNBOUND:                -0.832
REMARK  Name = 
REMARK  6 active torsions:
REMARK  status: ('A' for Active; 'I' for Inactive)
REMARK    1  A    between atoms: C_2  and  C_4
REMARK    2  A    between atoms: C_8  and  O_9
REMARK    3  A    between atoms: O_9  and  C_10
REMARK    4  A    between atoms: C_10  and  C_11
REMARK    5  A    between atoms: C_12  and  C_13
REMARK    6  A    between atoms: C_17  and  C_18
REMARK                            x       y       z     vdW  Elec       q    Type
REMARK                         _______ _______ _______ _____ _____    ______ ____
ROOT
ATOM      1  C   UNL     1      44.666   3.463  12.229  0.00  0.00    +0.000 C 
ATOM      2  C   UNL     1      45.981   3.437  12.492  0.00  0.00    +0.000 C 
ENDROOT
BRANCH   2   3
ATOM      3  C   UNL     1      46.619   4.392  13.398  0.00  0.00    +0.000 A 
ATOM      4  C   UNL     1      47.039   3.980  14.665  0.00  0.00    +0.000 A 
ATOM      5  C   UNL     1      47.682   4.868  15.513  0.00  0.00    +0.000 A 
ATOM      6  C   UNL     1      47.963   6.155  15.081  0.00  0.00    +0.000 A 
ATOM      7  C   UNL     1      47.634   6.580  13.787  0.00  0.00    +0.000 A 
ATOM      8  C   UNL     1      46.915   5.691  12.966  0.00  0.00    +0.000 A 
BRANCH   7   9
ATOM      9  C   UNL     1      48.058   7.941  13.242  0.00  0.00    +0.000 C 
ATOM     10  C   UNL     1      48.520   7.854  11.772  0.00  0.00    +0.000 C 
ATOM     11  C   UNL     1      49.945   7.324  11.625  0.00  0.00    +0.000 C 
ATOM     12  N   UNL     1      50.915   8.072  12.428  0.00  0.00    +0.000 NA
ATOM     13  C   UNL     1      50.548   8.135  13.838  0.00  0.00    +0.000 C 
ATOM     14  C   UNL     1      49.132   8.677  14.065  0.00  0.00    +0.000 C 
ATOM     15  H   UNL     1      50.993   9.010  12.063  0.00  0.00    +0.000 HD
ENDBRANCH   7   9
ENDBRANCH   2   3
BRANCH   1  16
ATOM     16  C   UNL     1      43.978   2.413  11.433  0.00  0.00    +0.000 C 
BRANCH  16  17
ATOM     17  O   UNL     1      43.606   2.968  10.178  0.00  0.00    +0.000 OA
BRANCH  17  22
ATOM     18  C   UNL     1      46.360   2.296   7.918  0.00  0.00    +0.000 A 
ATOM     19  C   UNL     1      46.764   3.580   7.534  0.00  0.00    +0.000 A 
ATOM     20  C   UNL     1      46.115   4.695   8.061  0.00  0.00    +0.000 A 
ATOM     21  C   UNL     1      45.064   4.528   8.963  0.00  0.00    +0.000 A 
ATOM     22  C   UNL     1      44.649   3.246   9.337  0.00  0.00    +0.000 A 
ATOM     23  C   UNL     1      45.310   2.133   8.827  0.00  0.00    +0.000 A 
BRANCH  18  25
ATOM     24  N   UNL     1      46.595  -0.115   7.776  0.00  0.00    +0.000 N 
ATOM     25  C   UNL     1      47.027   1.108   7.336  0.00  0.00    +0.000 C 
ATOM     26  O   UNL     1      47.905   1.211   6.492  0.00  0.00    +0.000 OA
ATOM     27  H   UNL     1      46.993  -0.928   7.326  0.00  0.00    +0.000 HD
ATOM     28  H   UNL     1      45.730  -0.230   8.283  0.00  0.00    +0.000 HD
ENDBRANCH  18  25
ENDBRANCH  17  22
ENDBRANCH  16  17
ENDBRANCH   1  16
TORSDOF 6
ENDMDL
MODEL 4
REMARK VINA RESULT:    -7.080      3.570      4.540
REMARK INTER + INTRA:         -10.395
REMARK INTER:                 -10.339
REMARK INTRA:                  -0.055
REMARK UNBOUND:                -0.832
REMARK  Name = 
REMARK  6 active torsions:
REMARK  status: ('A' for Active; 'I' for Inactive)
REMARK    1  A    between atoms: C_2  and  C_4
REMARK    2  A    between atoms: C_8  and  O_9
REMARK    3  A    between atoms: O_9  and  C_10
REMARK    4  A    between atoms: C_10  and  C_11
REMARK    5  A    between atoms: C_12  and  C_13
REMARK    6  A    between atoms: C_17  and  C_18
REMARK                            x       y       z     vdW  Elec       q    Type
REMARK                         _______ _______ _______ _____ _____    ______ ____
ROOT
ATOM      1  C   UNL     1      44.568   4.645  11.674  0.00  0.00    +0.000 C 
ATOM      2  C   UNL     1      45.512   5.168  12.470  0.00  0.00    +0.000 C 
ENDROOT
BRANCH   2   3
ATOM      3  C   UNL     1      45.940   6.564  12.370  0.00  0.00    +0.000 A 
ATOM      4  C   UNL     1      45.095   7.586  12.808  0.00  0.00    +0.000 A 
ATOM      5  C   UNL     1      45.510   8.908  12.755  0.00  0.00    +0.000 A 
ATOM      6  C   UNL     1      46.790   9.213  12.321  0.00  0.00    +0.000 A 
ATOM      7  C   UNL     1      47.696   8.209  11.954  0.00  0.00    +0.000 A 
ATOM      8  C   UNL     1      47.235   6.880  11.942  0.00  0.00    +0.000 A 
BRANCH   7   9
ATOM      9  C   UNL     1      49.153   8.510  11.609  0.00  0.00    +0.000 C 
ATOM     10  C   UNL     1      50.127   7.596  12.381  0.00  0.00    +0.000 C 
ATOM     11  C   UNL     1      50.351   8.046  13.824  0.00  0.00    +0.000 C 
ATOM     12  N   UNL     1      50.767   9.446  13.924  0.00  0.00    +0.000 NA
ATOM     13  C   UNL     1      49.845  10.356  13.254  0.00  0.00    +0.000 C 
ATOM     14  C   UNL     1      49.585   9.976  11.791  0.00  0.00    +0.000 C 
ATOM     15  H   UNL     1      51.686   9.548  13.520  0.00  0.00    +0.000 HD
ENDBRANCH   7   9
ENDBRANCH   2   3
BRANCH   1  16
ATOM     16  C   UNL     1      44.016   3.278  11.861  0.00  0.00    +0.000 C 
BRANCH  16  17
ATOM     17  O   UNL     1      43.687   2.746  10.584  0.00  0.00    +0.000 OA
BRANCH  17  22
ATOM     18  C   UNL     1      46.233   2.205   8.059  0.00  0.00    +0.000 A 
ATOM     19  C   UNL     1      46.367   3.472   7.480  0.00  0.00    +0.000 A 
ATOM     20  C   UNL     1      45.606   4.536   7.962  0.00  0.00    +0.000 A 
ATOM     21  C   UNL     1      44.711   4.332   9.012  0.00  0.00    +0.000 A 
ATOM     22  C   UNL     1      44.564   3.065   9.582  0.00  0.00    +0.000 A 
ATOM     23  C   UNL     1      45.338   2.007   9.116  0.00  0.00    +0.000 A 
BRANCH  18  25
ATOM     24  N   UNL     1      48.069   1.373   6.708  0.00  0.00    +0.000 N 
ATOM     25  C   UNL     1      47.018   1.065   7.530  0.00  0.00    +0.000 C 
ATOM     26  O   UNL     1      46.755  -0.091   7.826  0.00  0.00    +0.000 OA
ATOM     27  H   UNL     1      48.653   0.605   6.407  0.00  0.00    +0.000 HD
ATOM     28  H   UNL     1      48.444   2.308   6.639  0.00  0.00    +0.000 HD
ENDBRANCH  18  25
ENDBRANCH  17  22
ENDBRANCH  16  17
ENDBRANCH   1  16
TORSDOF 6
ENDMDL
MODEL 5
REMARK VINA RESULT:    -6.995      4.236      6.523
REMARK INTER + INTRA:         -10.280
REMARK INTER:                  -9.679
REMARK INTRA:                  -0.600
REMARK UNBOUND:                -0.832
REMARK  Name = 
REMARK  6 active torsions:
REMARK  status: ('A' for Active; 'I' for Inactive)
REMARK    1  A    between atoms: C_2  and  C_4
REMARK    2  A    between atoms: C_8  and  O_9
REMARK    3  A    between atoms: O_9  and  C_10
REMARK    4  A    between atoms: C_10  and  C_11
REMARK    5  A    between atoms: C_12  and  C_13
REMARK    6  A    between atoms: C_17  and  C_18
REMARK                            x       y       z     vdW  Elec       q    Type
REMARK                         _______ _______ _______ _____ _____    ______ ____
ROOT
ATOM      1  C   UNL     1      44.971   4.409  12.059  0.00  0.00    +0.000 C 
ATOM      2  C   UNL     1      44.193   5.485  12.247  0.00  0.00    +0.000 C 
ENDROOT
BRANCH   2   3
ATOM      3  C   UNL     1      44.723   6.849  12.230  0.00  0.00    +0.000 A 
ATOM      4  C   UNL     1      45.897   7.151  12.924  0.00  0.00    +0.000 A 
ATOM      5  C   UNL     1      46.428   8.431  12.878  0.00  0.00    +0.000 A 
ATOM      6  C   UNL     1      45.825   9.400  12.092  0.00  0.00    +0.000 A 
ATOM      7  C   UNL     1      44.695   9.114  11.314  0.00  0.00    +0.000 A 
ATOM      8  C   UNL     1      44.125   7.832  11.431  0.00  0.00    +0.000 A 
BRANCH   7   9
ATOM      9  C   UNL     1      44.099  10.122  10.335  0.00  0.00    +0.000 C 
ATOM     10  C   UNL     1      44.787  11.499  10.439  0.00  0.00    +0.000 C 
ATOM     11  C   UNL     1      44.294  12.325  11.626  0.00  0.00    +0.000 C 
ATOM     12  N   UNL     1      42.837  12.471  11.650  0.00  0.00    +0.000 NA
ATOM     13  C   UNL     1      42.142  11.190  11.609  0.00  0.00    +0.000 C 
ATOM     14  C   UNL     1      42.574  10.311  10.429  0.00  0.00    +0.000 C 
ATOM     15  H   UNL     1      42.548  13.031  10.862  0.00  0.00    +0.000 HD
ENDBRANCH   7   9
ENDBRANCH   2   3
BRANCH   1  16
ATOM     16  C   UNL     1      44.430   3.031  11.922  0.00  0.00    +0.000 C 
BRANCH  16  17
ATOM     17  O   UNL     1      43.806   2.915  10.650  0.00  0.00    +0.000 OA
BRANCH  17  22
ATOM     18  C   UNL     1      46.216   2.146   8.052  0.00  0.00    +0.000 A 
ATOM     19  C   UNL     1      46.321   3.358   7.360  0.00  0.00    +0.000 A 
ATOM     20  C   UNL     1      45.587   4.463   7.787  0.00  0.00    +0.000 A 
ATOM     21  C   UNL     1      44.747   4.356   8.896  0.00  0.00    +0.000 A 
ATOM     22  C   UNL     1      44.630   3.142   9.580  0.00  0.00    +0.000 A 
ATOM     23  C   UNL     1      45.378   2.044   9.167  0.00  0.00    +0.000 A 
BRANCH  18  25
ATOM     24  N   UNL     1      48.099   1.204   6.845  0.00  0.00    +0.000 N 
ATOM     25  C   UNL     1      46.971   0.961   7.583  0.00  0.00    +0.000 C 
ATOM     26  O   UNL     1      46.619  -0.177   7.856  0.00  0.00    +0.000 OA
ATOM     27  H   UNL     1      48.658   0.402   6.589  0.00  0.00    +0.000 HD
ATOM     28  H   UNL     1      48.532   2.116   6.807  0.00  0.00    +0.000 HD
ENDBRANCH  18  25
ENDBRANCH  17  22
ENDBRANCH  16  17
ENDBRANCH   1  16
TORSDOF 6
ENDMDL
MODEL 6
REMARK VINA RESULT:    -6.800      2.309      3.431
REMARK INTER + INTRA:         -10.017
REMARK INTER:                  -9.290
REMARK INTRA:                  -0.727
REMARK UNBOUND:                -0.832
REMARK  Name = 
REMARK  6 active torsions:
REMARK  status: ('A' for Active; 'I' for Inactive)
REMARK    1  A    between atoms: C_2  and  C_4
REMARK    2  A    between atoms: C_8  and  O_9
REMARK    3  A    between atoms: O_9  and  C_10
REMARK    4  A    between atoms: C_10  and  C_11
REMARK    5  A    between atoms: C_12  and  C_13
REMARK    6  A    between atoms: C_17  and  C_18
REMARK                            x       y       z     vdW  Elec       q    Type
REMARK                         _______ _______ _______ _____ _____    ______ ____
ROOT
ATOM      1  C   UNL     1      45.201   3.881  12.089  0.00  0.00    +0.000 C 
ATOM      2  C   UNL     1      44.636   5.012  12.537  0.00  0.00    +0.000 C 
ENDROOT
BRANCH   2   3
ATOM      3  C   UNL     1      45.396   6.246  12.732  0.00  0.00    +0.000 A 
ATOM      4  C   UNL     1      44.802   7.482  12.465  0.00  0.00    +0.000 A 
ATOM      5  C   UNL     1      45.502   8.658  12.688  0.00  0.00    +0.000 A 
ATOM      6  C   UNL     1      46.775   8.611  13.233  0.00  0.00    +0.000 A 
ATOM      7  C   UNL     1      47.372   7.395  13.593  0.00  0.00    +0.000 A 
ATOM      8  C   UNL     1      46.679   6.208  13.292  0.00  0.00    +0.000 A 
BRANCH   7   9
ATOM      9  C   UNL     1      48.711   7.327  14.323  0.00  0.00    +0.000 C 
ATOM     10  C   UNL     1      48.787   6.115  15.273  0.00  0.00    +0.000 C 
ATOM     11  C   UNL     1      48.052   6.343  16.593  0.00  0.00    +0.000 C 
ATOM     12  N   UNL     1      48.481   7.564  17.278  0.00  0.00    +0.000 NA
ATOM     13  C   UNL     1      48.375   8.749  16.435  0.00  0.00    +0.000 C 
ATOM     14  C   UNL     1      49.107   8.599  15.096  0.00  0.00    +0.000 C 
ATOM     15  H   UNL     1      49.438   7.455  17.579  0.00  0.00    +0.000 HD
ENDBRANCH   7   9
ENDBRANCH   2   3
BRANCH   1  16
ATOM     16  C   UNL     1      44.420   2.666  11.742  0.00  0.00    +0.000 C 
BRANCH  16  17
ATOM     17  O   UNL     1      43.865   2.841  10.445  0.00  0.00    +0.000 OA
BRANCH  17  22
ATOM     18  C   UNL     1      46.384   2.206   7.916  0.00  0.00    +0.000 A 
ATOM     19  C   UNL     1      46.621   3.482   7.390  0.00  0.00    +0.000 A 
ATOM     20  C   UNL     1      45.939   4.581   7.910  0.00  0.00    +0.000 A 
ATOM     21  C   UNL     1      45.022   4.405   8.945  0.00  0.00    +0.000 A 
ATOM     22  C   UNL     1      44.773   3.131   9.462  0.00  0.00    +0.000 A 
ATOM     23  C   UNL     1      45.468   2.036   8.958  0.00  0.00    +0.000 A 
BRANCH  18  25
ATOM     24  N   UNL     1      46.605  -0.201   7.703  0.00  0.00    +0.000 N 
ATOM     25  C   UNL     1      47.084   1.032   7.346  0.00  0.00    +0.000 C 
ATOM     26  O   UNL     1      48.030   1.153   6.581  0.00  0.00    +0.000 OA
ATOM     27  H   UNL     1      47.030  -1.002   7.257  0.00  0.00    +0.000 HD
ATOM     28  H   UNL     1      45.701  -0.323   8.134  0.00  0.00    +0.000 HD
ENDBRANCH  18  25
ENDBRANCH  17  22
ENDBRANCH  16  17
ENDBRANCH   1  16
TORSDOF 6
ENDMDL
MODEL 7
REMARK VINA RESULT:    -6.799      3.818      9.322
REMARK INTER + INTRA:         -10.015
REMARK INTER:                  -9.328
REMARK INTRA:                  -0.687
REMARK UNBOUND:                -0.832
REMARK  Name = 
REMARK  6 active torsions:
REMARK  status: ('A' for Active; 'I' for Inactive)
REMARK    1  A    between atoms: C_2  and  C_4
REMARK    2  A    between atoms: C_8  and  O_9
REMARK    3  A    between atoms: O_9  and  C_10
REMARK    4  A    between atoms: C_10  and  C_11
REMARK    5  A    between atoms: C_12  and  C_13
REMARK    6  A    between atoms: C_17  and  C_18
REMARK                            x       y       z     vdW  Elec       q    Type
REMARK                         _______ _______ _______ _____ _____    ______ ____
ROOT
ATOM      1  C   UNL     1      47.332   3.689  15.241  0.00  0.00    +0.000 C 
ATOM      2  C   UNL     1      47.434   4.996  14.960  0.00  0.00    +0.000 C 
ENDROOT
BRANCH   2   3
ATOM      3  C   UNL     1      46.956   5.568  13.701  0.00  0.00    +0.000 A 
ATOM      4  C   UNL     1      47.826   6.306  12.894  0.00  0.00    +0.000 A 
ATOM      5  C   UNL     1      47.392   6.816  11.680  0.00  0.00    +0.000 A 
ATOM      6  C   UNL     1      46.108   6.543  11.236  0.00  0.00    +0.000 A 
ATOM      7  C   UNL     1      45.234   5.736  11.977  0.00  0.00    +0.000 A 
ATOM      8  C   UNL     1      45.663   5.289  13.240  0.00  0.00    +0.000 A 
BRANCH   7   9
ATOM      9  C   UNL     1      43.869   5.306  11.444  0.00  0.00    +0.000 C 
ATOM     10  C   UNL     1      43.121   4.400  12.444  0.00  0.00    +0.000 C 
ATOM     11  C   UNL     1      43.612   2.953  12.422  0.00  0.00    +0.000 C 
ATOM     12  N   UNL     1      43.593   2.368  11.079  0.00  0.00    +0.000 NA
ATOM     13  C   UNL     1      44.336   3.163  10.109  0.00  0.00    +0.000 C 
ATOM     14  C   UNL     1      43.884   4.628  10.062  0.00  0.00    +0.000 C 
ATOM     15  H   UNL     1      42.636   2.277  10.771  0.00  0.00    +0.000 HD
ENDBRANCH   7   9
ENDBRANCH   2   3
BRANCH   1  16
ATOM     16  C   UNL     1      47.671   3.116  16.569  0.00  0.00    +0.000 C 
BRANCH  16  17
ATOM     17  O   UNL     1      49.086   3.012  16.668  0.00  0.00    +0.000 OA
BRANCH  17  22
ATOM     18  C   UNL     1      49.220   4.701  19.873  0.00  0.00    +0.000 A 
ATOM     19  C   UNL     1      50.578   5.010  20.003  0.00  0.00    +0.000 A 
ATOM     20  C   UNL     1      51.465   4.666  18.984  0.00  0.00    +0.000 A 
ATOM     21  C   UNL     1      50.997   4.011  17.845  0.00  0.00    +0.000 A 
ATOM     22  C   UNL     1      49.643   3.689  17.720  0.00  0.00    +0.000 A 
ATOM     23  C   UNL     1      48.754   4.050  18.727  0.00  0.00    +0.000 A 
BRANCH  18  25
ATOM     24  N   UNL     1      47.177   5.777  20.624  0.00  0.00    +0.000 N 
ATOM     25  C   UNL     1      48.279   5.039  20.967  0.00  0.00    +0.000 C 
ATOM     26  O   UNL     1      48.464   4.662  22.115  0.00  0.00    +0.000 OA
ATOM     27  H   UNL     1      46.495   5.943  21.351  0.00  0.00    +0.000 HD
ATOM     28  H   UNL     1      46.886   5.896  19.664  0.00  0.00    +0.000 HD
ENDBRANCH  18  25
ENDBRANCH  17  22
ENDBRANCH  16  17
ENDBRANCH   1  16
TORSDOF 6
ENDMDL
MODEL 8
REMARK VINA RESULT:    -6.787      3.782      8.046
REMARK INTER + INTRA:          -9.999
REMARK INTER:                  -9.148
REMARK INTRA:                  -0.851
REMARK UNBOUND:                -0.832
REMARK  Name = 
REMARK  6 active torsions:
REMARK  status: ('A' for Active; 'I' for Inactive)
REMARK    1  A    between atoms: C_2  and  C_4
REMARK    2  A    between atoms: C_8  and  O_9
REMARK    3  A    between atoms: O_9  and  C_10
REMARK    4  A    between atoms: C_10  and  C_11
REMARK    5  A    between atoms: C_12  and  C_13
REMARK    6  A    between atoms: C_17  and  C_18
REMARK                            x       y       z     vdW  Elec       q    Type
REMARK                         _______ _______ _______ _____ _____    ______ ____
ROOT
ATOM      1  C   UNL     1      48.922   7.622  15.073  0.00  0.00    +0.000 C 
ATOM      2  C   UNL     1      48.420   6.908  14.055  0.00  0.00    +0.000 C 
ENDROOT
BRANCH   2   3
ATOM      3  C   UNL     1      47.206   7.305  13.341  0.00  0.00    +0.000 A 
ATOM      4  C   UNL     1      46.904   8.658  13.176  0.00  0.00    +0.000 A 
ATOM      5  C   UNL     1      45.777   9.042  12.464  0.00  0.00    +0.000 A 
ATOM      6  C   UNL     1      44.980   8.082  11.863  0.00  0.00    +0.000 A 
ATOM      7  C   UNL     1      45.297   6.718  11.934  0.00  0.00    +0.000 A 
ATOM      8  C   UNL     1      46.400   6.341  12.722  0.00  0.00    +0.000 A 
BRANCH   7   9
ATOM      9  C   UNL     1      44.516   5.656  11.165  0.00  0.00    +0.000 C 
ATOM     10  C   UNL     1      43.090   5.474  11.723  0.00  0.00    +0.000 C 
ATOM     11  C   UNL     1      43.049   4.620  12.989  0.00  0.00    +0.000 C 
ATOM     12  N   UNL     1      43.708   3.323  12.821  0.00  0.00    +0.000 NA
ATOM     13  C   UNL     1      45.081   3.448  12.346  0.00  0.00    +0.000 C 
ATOM     14  C   UNL     1      45.198   4.279  11.063  0.00  0.00    +0.000 C 
ATOM     15  H   UNL     1      43.179   2.766  12.166  0.00  0.00    +0.000 HD
ENDBRANCH   7   9
ENDBRANCH   2   3
BRANCH   1  16
ATOM     16  C   UNL     1      50.230   7.319  15.709  0.00  0.00    +0.000 C 
BRANCH  16  17
ATOM     17  O   UNL     1      50.023   7.130  17.103  0.00  0.00    +0.000 OA
BRANCH  17  22
ATOM     18  C   UNL     1      49.306   3.587  17.388  0.00  0.00    +0.000 A 
ATOM     19  C   UNL     1      48.092   3.573  18.083  0.00  0.00    +0.000 A 
ATOM     20  C   UNL     1      47.488   4.777  18.444  0.00  0.00    +0.000 A 
ATOM     21  C   UNL     1      48.099   5.988  18.117  0.00  0.00    +0.000 A 
ATOM     22  C   UNL     1      49.319   6.004  17.435  0.00  0.00    +0.000 A 
ATOM     23  C   UNL     1      49.911   4.804  17.056  0.00  0.00    +0.000 A 
BRANCH  18  25
ATOM     24  N   UNL     1      50.991   1.900  17.840  0.00  0.00    +0.000 N 
ATOM     25  C   UNL     1      49.966   2.310  17.029  0.00  0.00    +0.000 C 
ATOM     26  O   UNL     1      49.603   1.645  16.071  0.00  0.00    +0.000 OA
ATOM     27  H   UNL     1      51.392   0.993  17.645  0.00  0.00    +0.000 HD
ATOM     28  H   UNL     1      51.150   2.302  18.753  0.00  0.00    +0.000 HD
ENDBRANCH  18  25
ENDBRANCH  17  22
ENDBRANCH  16  17
ENDBRANCH   1  16
TORSDOF 6
ENDMDL
MODEL 9
REMARK VINA RESULT:    -6.694      1.715      2.367
REMARK INTER + INTRA:          -9.874
REMARK INTER:                  -8.909
REMARK INTRA:                  -0.965
REMARK UNBOUND:                -0.832
REMARK  Name = 
REMARK  6 active torsions:
REMARK  status: ('A' for Active; 'I' for Inactive)
REMARK    1  A    between atoms: C_2  and  C_4
REMARK    2  A    between atoms: C_8  and  O_9
REMARK    3  A    between atoms: O_9  and  C_10
REMARK    4  A    between atoms: C_10  and  C_11
REMARK    5  A    between atoms: C_12  and  C_13
REMARK    6  A    between atoms: C_17  and  C_18
REMARK                            x       y       z     vdW  Elec       q    Type
REMARK                         _______ _______ _______ _____ _____    ______ ____
ROOT
ATOM      1  C   UNL     1      46.402   7.394  12.606  0.00  0.00    +0.000 C 
ATOM      2  C   UNL     1      47.408   6.520  12.751  0.00  0.00    +0.000 C 
ENDROOT
BRANCH   2   3
ATOM      3  C   UNL     1      48.354   6.589  13.865  0.00  0.00    +0.000 A 
ATOM      4  C   UNL     1      49.485   7.404  13.771  0.00  0.00    +0.000 A 
ATOM      5  C   UNL     1      50.364   7.508  14.839  0.00  0.00    +0.000 A 
ATOM      6  C   UNL     1      50.089   6.847  16.025  0.00  0.00    +0.000 A 
ATOM      7  C   UNL     1      48.921   6.089  16.187  0.00  0.00    +0.000 A 
ATOM      8  C   UNL     1      48.079   5.933  15.071  0.00  0.00    +0.000 A 
BRANCH   7   9
ATOM      9  C   UNL     1      48.528   5.470  17.526  0.00  0.00    +0.000 C 
ATOM     10  C   UNL     1      49.761   5.124  18.385  0.00  0.00    +0.000 C 
ATOM     11  C   UNL     1      50.441   3.824  17.957  0.00  0.00    +0.000 C 
ATOM     12  N   UNL     1      49.515   2.691  17.902  0.00  0.00    +0.000 NA
ATOM     13  C   UNL     1      48.357   2.952  17.056  0.00  0.00    +0.000 C 
ATOM     14  C   UNL     1      47.611   4.236  17.439  0.00  0.00    +0.000 C 
ATOM     15  H   UNL     1      49.202   2.474  18.837  0.00  0.00    +0.000 HD
ENDBRANCH   7   9
ENDBRANCH   2   3
BRANCH   1  16
ATOM     16  C   UNL     1      45.345   7.250  11.570  0.00  0.00    +0.000 C 
BRANCH  16  17
ATOM     17  O   UNL     1      44.264   6.513  12.127  0.00  0.00    +0.000 OA
BRANCH  17  22
ATOM     18  C   UNL     1      44.730   3.721   9.862  0.00  0.00    +0.000 A 
ATOM     19  C   UNL     1      44.013   2.694  10.487  0.00  0.00    +0.000 A 
ATOM     20  C   UNL     1      43.340   2.949  11.681  0.00  0.00    +0.000 A 
ATOM     21  C   UNL     1      43.388   4.221  12.250  0.00  0.00    +0.000 A 
ATOM     22  C   UNL     1      44.115   5.245  11.635  0.00  0.00    +0.000 A 
ATOM     23  C   UNL     1      44.771   4.997  10.433  0.00  0.00    +0.000 A 
BRANCH  18  25
ATOM     24  N   UNL     1      45.835   2.145   8.384  0.00  0.00    +0.000 N 
ATOM     25  C   UNL     1      45.472   3.446   8.610  0.00  0.00    +0.000 C 
ATOM     26  O   UNL     1      45.732   4.331   7.807  0.00  0.00    +0.000 OA
ATOM     27  H   UNL     1      46.274   1.941   7.496  0.00  0.00    +0.000 HD
ATOM     28  H   UNL     1      45.437   1.376   8.903  0.00  0.00    +0.000 HD
ENDBRANCH  18  25
ENDBRANCH  17  22
ENDBRANCH  16  17
ENDBRANCH   1  16
TORSDOF 6
ENDMDL
