MODEL 1
REMARK VINA RESULT:    -7.900      0.000      0.000
REMARK INTER + INTRA:          -9.956
REMARK INTER:                  -9.286
REMARK INTRA:                  -0.670
REMARK UNBOUND:                -0.670
REMARK  Name = 
REMARK  3 active torsions:
REMARK  status: ('A' for Active; 'I' for Inactive)
REMARK    1  A    between atoms: C_4  and  O_5
REMARK    2  A    between atoms: O_5  and  C_6
REMARK    3  A    between atoms: C_10  and  C_11
REMARK                            x       y       z     vdW  Elec       q    Type
REMARK                         _______ _______ _______ _____ _____    ______ ____
ROOT
ATOM      1  C   UNL     1      44.301   4.543  10.277  0.00  0.00    +0.000 A 
ATOM      2  C   UNL     1      43.225   4.340  11.135  0.00  0.00    +0.000 A 
ATOM      3  C   UNL     1      43.312   4.777  12.457  0.00  0.00    +0.000 A 
ATOM      4  C   UNL     1      44.475   5.408  12.915  0.00  0.00    +0.000 A 
ATOM      5  C   UNL     1      45.596   5.572  12.081  0.00  0.00    +0.000 A 
ATOM      6  C   UNL     1      45.491   5.099  10.764  0.00  0.00    +0.000 A 
ENDROOT
BRANCH   5   7
ATOM      7  C   UNL     1      46.844   6.202  12.553  0.00  0.00    +0.000 A 
ATOM      8  C   UNL     1      47.533   7.161  11.795  0.00  0.00    +0.000 A 
ATOM      9  C   UNL     1      48.745   7.689  12.239  0.00  0.00    +0.000 A 
ATOM     10  C   UNL     1      49.240   7.252  13.454  0.00  0.00    +0.000 A 
ATOM     11  N   UNL     1      48.614   6.352  14.236  0.00  0.00    +0.000 NA
ATOM     12  C   UNL     1      47.442   5.850  13.767  0.00  0.00    +0.000 A 
ENDBRANCH   5   7
BRANCH   1  13
ATOM     13  O   UNL     1      44.146   4.160   8.960  0.00  0.00    +0.000 OA
BRANCH  13  17
ATOM     14  C   UNL     1      47.057   1.739   7.211  0.00  0.00    +0.000 A 
ATOM     15  C   UNL     1      46.956   3.091   6.884  0.00  0.00    +0.000 A 
ATOM     16  C   UNL     1      45.984   3.889   7.493  0.00  0.00    +0.000 A 
ATOM     17  C   UNL     1      45.111   3.328   8.428  0.00  0.00    +0.000 A 
ATOM     18  C   UNL     1      45.253   1.985   8.797  0.00  0.00    +0.000 A 
ATOM     19  C   UNL     1      46.210   1.187   8.171  0.00  0.00    +0.000 A 
ENDBRANCH  13  17
ENDBRANCH   1  13
TORSDOF 3
ENDMDL
MODEL 2
REMARK VINA RESULT:    -7.654      1.315      1.427
REMARK INTER + INTRA:          -9.667
REMARK INTER:                  -9.042
REMARK INTRA:                  -0.625
REMARK UNBOUND:                -0.670
REMARK  Name = 
REMARK  3 active torsions:
REMARK  status: ('A' for Active; 'I' for Inactive)
REMARK    1  A    between atoms: C_4  and  O_5
REMARK    2  A    between atoms: O_5  and  C_6
REMARK    3  A    between atoms: C_10  and  C_11
REMARK                            x       y       z     vdW  Elec       q    Type
REMARK                         _______ _______ _______ _____ _____    ______ ____
ROOT
ATOM      1  C   UNL     1      44.453   3.831   9.985  0.00  0.00    +0.000 A 
ATOM      2  C   UNL     1      43.802   3.082  10.960  0.00  0.00    +0.000 A 
ATOM      3  C   UNL     1      43.837   3.507  12.287  0.00  0.00    +0.000 A 
ATOM      4  C   UNL     1      44.528   4.674  12.635  0.00  0.00    +0.000 A 
ATOM      5  C   UNL     1      45.241   5.417  11.676  0.00  0.00    +0.000 A 
ATOM      6  C   UNL     1      45.211   4.951  10.352  0.00  0.00    +0.000 A 
ENDROOT
BRANCH   5   7
ATOM      7  C   UNL     1      46.005   6.630  12.026  0.00  0.00    +0.000 A 
ATOM      8  C   UNL     1      47.338   6.816  11.629  0.00  0.00    +0.000 A 
ATOM      9  C   UNL     1      48.054   7.943  12.031  0.00  0.00    +0.000 A 
ATOM     10  C   UNL     1      47.408   8.879  12.817  0.00  0.00    +0.000 A 
ATOM     11  N   UNL     1      46.125   8.767  13.210  0.00  0.00    +0.000 NA
ATOM     12  C   UNL     1      45.462   7.651  12.810  0.00  0.00    +0.000 A 
ENDBRANCH   5   7
BRANCH   1  13
ATOM     13  O   UNL     1      44.334   3.413   8.675  0.00  0.00    +0.000 OA
BRANCH  13  17
ATOM     14  C   UNL     1      47.625   1.633   6.834  0.00  0.00    +0.000 A 
ATOM     15  C   UNL     1      47.322   2.977   6.617  0.00  0.00    +0.000 A 
ATOM     16  C   UNL     1      46.224   3.559   7.257  0.00  0.00    +0.000 A 
ATOM     17  C   UNL     1      45.429   2.790   8.110  0.00  0.00    +0.000 A 
ATOM     18  C   UNL     1      45.771   1.458   8.370  0.00  0.00    +0.000 A 
ATOM     19  C   UNL     1      46.855   0.875   7.714  0.00  0.00    +0.000 A 
ENDBRANCH  13  17
ENDBRANCH   1  13
TORSDOF 3
ENDMDL
MODEL 3
REMARK VINA RESULT:    -7.307      1.454      2.023
REMARK INTER + INTRA:          -9.259
REMARK INTER:                  -8.742
REMARK INTRA:                  -0.517
REMARK UNBOUND:                -0.670
REMARK  Name = 
REMARK  3 active torsions:
REMARK  status: ('A' for Active; 'I' for Inactive)
REMARK    1  A    between atoms: C_4  and  O_5
REMARK    2  A    between atoms: O_5  and  C_6
REMARK    3  A    between atoms: C_10  and  C_11
REMARK                            x       y       z     vdW  Elec       q    Type
REMARK                         _______ _______ _______ _____ _____    ______ ____
ROOT
ATOM      1  C   UNL     1      45.005   4.443  10.282  0.00  0.00    +0.000 A 
ATOM      2  C   UNL     1      44.694   3.656  11.386  0.00  0.00    +0.000 A 
ATOM      3  C   UNL     1      45.023   4.108  12.663  0.00  0.00    +0.000 A 
ATOM      4  C   UNL     1      45.667   5.340  12.831  0.00  0.00    +0.000 A 
ATOM      5  C   UNL     1      46.042   6.126  11.726  0.00  0.00    +0.000 A 
ATOM      6  C   UNL     1      45.722   5.635  10.450  0.00  0.00    +0.000 A 
ENDROOT
BRANCH   5   7
ATOM      7  C   UNL     1      46.752   7.411  11.877  0.00  0.00    +0.000 A 
ATOM      8  C   UNL     1      48.148   7.512  11.772  0.00  0.00    +0.000 A 
ATOM      9  C   UNL     1      48.795   8.728  11.984  0.00  0.00    +0.000 A 
ATOM     10  C   UNL     1      48.022   9.834  12.285  0.00  0.00    +0.000 A 
ATOM     11  N   UNL     1      46.679   9.804  12.377  0.00  0.00    +0.000 NA
ATOM     12  C   UNL     1      46.083   8.600  12.175  0.00  0.00    +0.000 A 
ENDBRANCH   5   7
BRANCH   1  13
ATOM     13  O   UNL     1      44.599   3.991   9.043  0.00  0.00    +0.000 OA
BRANCH  13  17
ATOM     14  C   UNL     1      47.306   1.539   7.031  0.00  0.00    +0.000 A 
ATOM     15  C   UNL     1      46.451   1.018   8.002  0.00  0.00    +0.000 A 
ATOM     16  C   UNL     1      45.540   1.854   8.653  0.00  0.00    +0.000 A 
ATOM     17  C   UNL     1      45.490   3.212   8.332  0.00  0.00    +0.000 A 
ATOM     18  C   UNL     1      46.310   3.719   7.316  0.00  0.00    +0.000 A 
ATOM     19  C   UNL     1      47.233   2.887   6.684  0.00  0.00    +0.000 A 
ENDBRANCH  13  17
ENDBRANCH   1  13
TORSDOF 3
ENDMDL
MODEL 4
REMARK VINA RESULT:    -7.253      1.241      2.160
REMARK INTER + INTRA:          -9.196
REMARK INTER:                  -8.565
REMARK INTRA:                  -0.630
REMARK UNBOUND:                -0.670
REMARK  Name = 
REMARK  3 active torsions:
REMARK  status: ('A' for Active; 'I' for Inactive)
REMARK    1  A    between atoms: C_4  and  O_5
REMARK    2  A    between atoms: O_5  and  C_6
REMARK    3  A    between atoms: C_10  and  C_11
REMARK                            x       y       z     vdW  Elec       q    Type
REMARK                         _______ _______ _______ _____ _____    ______ ____
ROOT
ATOM      1  C   UNL     1      44.289   3.821  10.946  0.00  0.00    +0.000 A 
ATOM      2  C   UNL     1      43.263   4.760  10.898  0.00  0.00    +0.000 A 
ATOM      3  C   UNL     1      43.292   5.851  11.765  0.00  0.00    +0.000 A 
ATOM      4  C   UNL     1      44.341   5.995  12.681  0.00  0.00    +0.000 A 
ATOM      5  C   UNL     1      45.358   5.030  12.787  0.00  0.00    +0.000 A 
ATOM      6  C   UNL     1      45.291   3.927  11.920  0.00  0.00    +0.000 A 
ENDROOT
BRANCH   5   7
ATOM      7  C   UNL     1      46.454   5.143  13.769  0.00  0.00    +0.000 A 
ATOM      8  C   UNL     1      46.537   4.313  14.898  0.00  0.00    +0.000 A 
ATOM      9  C   UNL     1      47.549   4.489  15.842  0.00  0.00    +0.000 A 
ATOM     10  C   UNL     1      48.475   5.491  15.625  0.00  0.00    +0.000 A 
ATOM     11  N   UNL     1      48.461   6.303  14.551  0.00  0.00    +0.000 NA
ATOM     12  C   UNL     1      47.455   6.111  13.658  0.00  0.00    +0.000 A 
ENDBRANCH   5   7
BRANCH   1  13
ATOM     13  O   UNL     1      44.259   2.796  10.023  0.00  0.00    +0.000 OA
BRANCH  13  17
ATOM     14  C   UNL     1      47.132   2.801   7.000  0.00  0.00    +0.000 A 
ATOM     15  C   UNL     1      46.739   1.612   7.615  0.00  0.00    +0.000 A 
ATOM     16  C   UNL     1      45.763   1.630   8.615  0.00  0.00    +0.000 A 
ATOM     17  C   UNL     1      45.184   2.842   8.999  0.00  0.00    +0.000 A 
ATOM     18  C   UNL     1      45.539   4.025   8.339  0.00  0.00    +0.000 A 
ATOM     19  C   UNL     1      46.529   4.006   7.358  0.00  0.00    +0.000 A 
ENDBRANCH  13  17
ENDBRANCH   1  13
TORSDOF 3
ENDMDL
MODEL 5
REMARK VINA RESULT:    -6.991      2.358      5.945
REMARK INTER + INTRA:          -8.888
REMARK INTER:                  -8.125
REMARK INTRA:                  -0.763
REMARK UNBOUND:                -0.670
REMARK  Name = 
REMARK  3 active torsions:
REMARK  status: ('A' for Active; 'I' for Inactive)
REMARK    1  A    between atoms: C_4  and  O_5
REMARK    2  A    between atoms: O_5  and  C_6
REMARK    3  A    between atoms: C_10  and  C_11
REMARK                            x       y       z     vdW  Elec       q    Type
REMARK                         _______ _______ _______ _____ _____    ______ ____
ROOT
ATOM      1  C   UNL     1      44.359   4.941  11.317  0.00  0.00    +0.000 A 
ATOM      2  C   UNL     1      43.468   4.078  11.946  0.00  0.00    +0.000 A 
ATOM      3  C   UNL     1      43.318   2.778  11.465  0.00  0.00    +0.000 A 
ATOM      4  C   UNL     1      44.053   2.349  10.353  0.00  0.00    +0.000 A 
ATOM      5  C   UNL     1      44.918   3.222   9.666  0.00  0.00    +0.000 A 
ATOM      6  C   UNL     1      45.030   4.533  10.157  0.00  0.00    +0.000 A 
ENDROOT
BRANCH   5   7
ATOM      7  C   UNL     1      45.676   2.802   8.472  0.00  0.00    +0.000 A 
ATOM      8  C   UNL     1      46.153   1.493   8.309  0.00  0.00    +0.000 A 
ATOM      9  C   UNL     1      46.922   1.145   7.199  0.00  0.00    +0.000 A 
ATOM     10  C   UNL     1      47.188   2.121   6.258  0.00  0.00    +0.000 A 
ATOM     11  N   UNL     1      46.739   3.388   6.348  0.00  0.00    +0.000 NA
ATOM     12  C   UNL     1      46.003   3.694   7.447  0.00  0.00    +0.000 A 
ENDBRANCH   5   7
BRANCH   1  13
ATOM     13  O   UNL     1      44.529   6.195  11.868  0.00  0.00    +0.000 OA
BRANCH  13  17
ATOM     14  C   UNL     1      48.365   7.225  13.139  0.00  0.00    +0.000 A 
ATOM     15  C   UNL     1      47.670   8.025  12.231  0.00  0.00    +0.000 A 
ATOM     16  C   UNL     1      46.379   7.671  11.831  0.00  0.00    +0.000 A 
ATOM     17  C   UNL     1      45.788   6.512  12.338  0.00  0.00    +0.000 A 
ATOM     18  C   UNL     1      46.466   5.743  13.292  0.00  0.00    +0.000 A 
ATOM     19  C   UNL     1      47.762   6.088  13.673  0.00  0.00    +0.000 A 
ENDBRANCH  13  17
ENDBRANCH   1  13
TORSDOF 3
ENDMDL
MODEL 6
REMARK VINA RESULT:    -6.692      1.937      2.894
REMARK INTER + INTRA:          -8.535
REMARK INTER:                  -7.867
REMARK INTRA:                  -0.669
REMARK UNBOUND:                -0.670
REMARK  Name = 
REMARK  3 active torsions:
REMARK  status: ('A' for Active; 'I' for Inactive)
REMARK    1  A    between atoms: C_4  and  O_5
REMARK    2  A    between atoms: O_5  and  C_6
REMARK    3  A    between atoms: C_10  and  C_11
REMARK                            x       y       z     vdW  Elec       q    Type
REMARK                         _______ _______ _______ _____ _____    ______ ____
ROOT
ATOM      1  C   UNL     1      45.097   5.534  11.410  0.00  0.00    +0.000 A 
ATOM      2  C   UNL     1      45.345   6.891  11.239  0.00  0.00    +0.000 A 
ATOM      3  C   UNL     1      46.199   7.549  12.125  0.00  0.00    +0.000 A 
ATOM      4  C   UNL     1      46.793   6.848  13.181  0.00  0.00    +0.000 A 
ATOM      5  C   UNL     1      46.512   5.488  13.407  0.00  0.00    +0.000 A 
ATOM      6  C   UNL     1      45.629   4.858  12.516  0.00  0.00    +0.000 A 
ENDROOT
BRANCH   5   7
ATOM      7  C   UNL     1      47.100   4.738  14.534  0.00  0.00    +0.000 A 
ATOM      8  C   UNL     1      47.513   5.367  15.718  0.00  0.00    +0.000 A 
ATOM      9  C   UNL     1      48.124   4.640  16.739  0.00  0.00    +0.000 A 
ATOM     10  C   UNL     1      48.298   3.281  16.557  0.00  0.00    +0.000 A 
ATOM     11  N   UNL     1      47.902   2.618  15.454  0.00  0.00    +0.000 NA
ATOM     12  C   UNL     1      47.321   3.359  14.475  0.00  0.00    +0.000 A 
ENDBRANCH   5   7
BRANCH   1  13
ATOM     13  O   UNL     1      44.304   4.908  10.471  0.00  0.00    +0.000 OA
BRANCH  13  17
ATOM     14  C   UNL     1      46.170   2.401   7.710  0.00  0.00    +0.000 A 
ATOM     15  C   UNL     1      46.290   3.787   7.616  0.00  0.00    +0.000 A 
ATOM     16  C   UNL     1      45.671   4.609   8.561  0.00  0.00    +0.000 A 
ATOM     17  C   UNL     1      44.927   4.040   9.597  0.00  0.00    +0.000 A 
ATOM     18  C   UNL     1      44.856   2.646   9.720  0.00  0.00    +0.000 A 
ATOM     19  C   UNL     1      45.458   1.830   8.763  0.00  0.00    +0.000 A 
ENDBRANCH  13  17
ENDBRANCH   1  13
TORSDOF 3
ENDMDL
MODEL 7
REMARK VINA RESULT:    -6.634      2.480      6.086
REMARK INTER + INTRA:          -8.468
REMARK INTER:                  -7.783
REMARK INTRA:                  -0.684
REMARK UNBOUND:                -0.670
REMARK  Name = 
REMARK  3 active torsions:
REMARK  status: ('A' for Active; 'I' for Inactive)
REMARK    1  A    between atoms: C_4  and  O_5
REMARK    2  A    between atoms: O_5  and  C_6
REMARK    3  A    between atoms: C_10  and  C_11
REMARK                            x       y       z     vdW  Elec       q    Type
REMARK                         _______ _______ _______ _____ _____    ______ ____
ROOT
ATOM      1  C   UNL     1      45.007   5.700  12.483  0.00  0.00    +0.000 A 
ATOM      2  C   UNL     1      43.650   5.586  12.767  0.00  0.00    +0.000 A 
ATOM      3  C   UNL     1      42.837   4.824  11.929  0.00  0.00    +0.000 A 
ATOM      4  C   UNL     1      43.381   4.187  10.808  0.00  0.00    +0.000 A 
ATOM      5  C   UNL     1      44.739   4.335  10.469  0.00  0.00    +0.000 A 
ATOM      6  C   UNL     1      45.529   5.129  11.315  0.00  0.00    +0.000 A 
ENDROOT
BRANCH   5   7
ATOM      7  C   UNL     1      45.327   3.702   9.273  0.00  0.00    +0.000 A 
ATOM      8  C   UNL     1      45.459   2.310   9.150  0.00  0.00    +0.000 A 
ATOM      9  C   UNL     1      46.079   1.746   8.035  0.00  0.00    +0.000 A 
ATOM     10  C   UNL     1      46.544   2.595   7.049  0.00  0.00    +0.000 A 
ATOM     11  N   UNL     1      46.426   3.935   7.100  0.00  0.00    +0.000 NA
ATOM     12  C   UNL     1      45.827   4.451   8.205  0.00  0.00    +0.000 A 
ENDBRANCH   5   7
BRANCH   1  13
ATOM     13  O   UNL     1      45.788   6.404  13.377  0.00  0.00    +0.000 OA
BRANCH  13  17
ATOM     14  C   UNL     1      47.804   9.700  11.808  0.00  0.00    +0.000 A 
ATOM     15  C   UNL     1      46.452   9.779  12.144  0.00  0.00    +0.000 A 
ATOM     16  C   UNL     1      45.799   8.668  12.684  0.00  0.00    +0.000 A 
ATOM     17  C   UNL     1      46.502   7.477  12.882  0.00  0.00    +0.000 A 
ATOM     18  C   UNL     1      47.872   7.420  12.597  0.00  0.00    +0.000 A 
ATOM     19  C   UNL     1      48.514   8.524  12.039  0.00  0.00    +0.000 A 
ENDBRANCH  13  17
ENDBRANCH   1  13
TORSDOF 3
ENDMDL
MODEL 8
REMARK VINA RESULT:    -6.285      2.840      3.472
REMARK INTER + INTRA:          -8.058
REMARK INTER:                  -7.441
REMARK INTRA:                  -0.617
REMARK UNBOUND:                -0.670
REMARK  Name = 
REMARK  3 active torsions:
REMARK  status: ('A' for Active; 'I' for Inactive)
REMARK    1  A    between atoms: C_4  and  O_5
REMARK    2  A    between atoms: O_5  and  C_6
REMARK    3  A    between atoms: C_10  and  C_11
REMARK                            x       y       z     vdW  Elec       q    Type
REMARK                         _______ _______ _______ _____ _____    ______ ____
ROOT
ATOM      1  C   UNL     1      44.976   5.778  11.521  0.00  0.00    +0.000 A 
ATOM      2  C   UNL     1      45.859   5.195  12.424  0.00  0.00    +0.000 A 
ATOM      3  C   UNL     1      46.665   6.010  13.218  0.00  0.00    +0.000 A 
ATOM      4  C   UNL     1      46.590   7.403  13.101  0.00  0.00    +0.000 A 
ATOM      5  C   UNL     1      45.746   8.014  12.155  0.00  0.00    +0.000 A 
ATOM      6  C   UNL     1      44.965   7.169  11.350  0.00  0.00    +0.000 A 
ENDROOT
BRANCH   5   7
ATOM      7  C   UNL     1      45.677   9.479  11.989  0.00  0.00    +0.000 A 
ATOM      8  C   UNL     1      44.486  10.139  11.650  0.00  0.00    +0.000 A 
ATOM      9  C   UNL     1      44.468  11.517  11.437  0.00  0.00    +0.000 A 
ATOM     10  C   UNL     1      45.651  12.215  11.584  0.00  0.00    +0.000 A 
ATOM     11  N   UNL     1      46.819  11.641  11.930  0.00  0.00    +0.000 NA
ATOM     12  C   UNL     1      46.803  10.296  12.119  0.00  0.00    +0.000 A 
ENDBRANCH   5   7
BRANCH   1  13
ATOM     13  O   UNL     1      44.147   4.938  10.807  0.00  0.00    +0.000 OA
BRANCH  13  17
ATOM     14  C   UNL     1      45.928   2.527   7.907  0.00  0.00    +0.000 A 
ATOM     15  C   UNL     1      46.080   3.914   7.880  0.00  0.00    +0.000 A 
ATOM     16  C   UNL     1      45.488   4.702   8.871  0.00  0.00    +0.000 A 
ATOM     17  C   UNL     1      44.742   4.099   9.885  0.00  0.00    +0.000 A 
ATOM     18  C   UNL     1      44.640   2.704   9.942  0.00  0.00    +0.000 A 
ATOM     19  C   UNL     1      45.214   1.922   8.940  0.00  0.00    +0.000 A 
ENDBRANCH  13  17
ENDBRANCH   1  13
TORSDOF 3
ENDMDL
MODEL 9
REMARK VINA RESULT:    -6.178      1.656      2.799
REMARK INTER + INTRA:          -7.932
REMARK INTER:                  -7.360
REMARK INTRA:                  -0.572
REMARK UNBOUND:                -0.670
REMARK  Name = 
REMARK  3 active torsions:
REMARK  status: ('A' for Active; 'I' for Inactive)
REMARK    1  A    between atoms: C_4  and  O_5
REMARK    2  A    between atoms: O_5  and  C_6
REMARK    3  A    between atoms: C_10  and  C_11
REMARK                            x       y       z     vdW  Elec       q    Type
REMARK                         _______ _______ _______ _____ _____    ______ ____
ROOT
ATOM      1  C   UNL     1      45.592   5.295  12.076  0.00  0.00    +0.000 A 
ATOM      2  C   UNL     1      45.809   4.442  13.153  0.00  0.00    +0.000 A 
ATOM      3  C   UNL     1      46.779   4.768  14.100  0.00  0.00    +0.000 A 
ATOM      4  C   UNL     1      47.532   5.941  13.962  0.00  0.00    +0.000 A 
ATOM      5  C   UNL     1      47.369   6.789  12.852  0.00  0.00    +0.000 A 
ATOM      6  C   UNL     1      46.404   6.423  11.900  0.00  0.00    +0.000 A 
ENDROOT
BRANCH   5   7
ATOM      7  C   UNL     1      48.176   8.011  12.667  0.00  0.00    +0.000 A 
ATOM      8  C   UNL     1      49.095   8.150  11.616  0.00  0.00    +0.000 A 
ATOM      9  C   UNL     1      49.890   9.291  11.507  0.00  0.00    +0.000 A 
ATOM     10  C   UNL     1      49.735  10.286  12.454  0.00  0.00    +0.000 A 
ATOM     11  N   UNL     1      48.855  10.219  13.471  0.00  0.00    +0.000 NA
ATOM     12  C   UNL     1      48.105   9.089  13.553  0.00  0.00    +0.000 A 
ENDBRANCH   5   7
BRANCH   1  13
ATOM     13  O   UNL     1      44.574   4.971  11.202  0.00  0.00    +0.000 OA
BRANCH  13  17
ATOM     14  C   UNL     1      45.606   2.569   7.953  0.00  0.00    +0.000 A 
ATOM     15  C   UNL     1      44.920   2.041   9.047  0.00  0.00    +0.000 A 
ATOM     16  C   UNL     1      44.569   2.866  10.118  0.00  0.00    +0.000 A 
ATOM     17  C   UNL     1      44.911   4.220  10.093  0.00  0.00    +0.000 A 
ATOM     18  C   UNL     1      45.547   4.758   8.968  0.00  0.00    +0.000 A 
ATOM     19  C   UNL     1      45.915   3.927   7.910  0.00  0.00    +0.000 A 
ENDBRANCH  13  17
ENDBRANCH   1  13
TORSDOF 3
ENDMDL
