MODEL 1
REMARK VINA RESULT:    -7.775      0.000      0.000
REMARK INTER + INTRA:         -11.536
REMARK INTER:                 -10.956
REMARK INTRA:                  -0.580
REMARK UNBOUND:                -0.580
REMARK  Name = 
REMARK  8 active torsions:
REMARK  status: ('A' for Active; 'I' for Inactive)
REMARK    1  A    between atoms: N_1  and  C_2
REMARK    2  A    between atoms: C_2  and  C_3
REMARK    3  A    between atoms: C_7  and  C_8
REMARK    4  A    between atoms: C_8  and  C_9
REMARK    5  A    between atoms: C_9  and  N_10
REMARK    6  A    between atoms: N_10  and  C_11
REMARK    7  A    between atoms: CA_14  and  C_15
REMARK    8  A    between atoms: C_15  and  OXT_17
REMARK                            x       y       z     vdW  Elec       q    Type
REMARK                         _______ _______ _______ _____ _____    ______ ____
ROOT
ATOM      1  C   UNL     1      43.261   4.349  10.997  0.00  0.00    +0.000 C 
ENDROOT
BRANCH   1   2
ATOM      2  N   UNL     1      43.642   4.686   9.615  0.00  0.00    +0.000 N 
ATOM      3  H   UNL     1      43.923   5.659   9.517  0.00  0.00    +0.000 HD
BRANCH   2   4
ATOM      4  C   UNL     1      44.536   3.812   8.970  0.00  0.00    +0.000 A 
ATOM      5  C   UNL     1      45.508   4.249   8.063  0.00  0.00    +0.000 A 
ATOM      6  C   UNL     1      46.412   3.354   7.491  0.00  0.00    +0.000 A 
ATOM      7  CA  UNL     1      46.343   2.026   7.870  0.00  0.00    +0.000 A 
ATOM      8  N   UNL     1      45.457   1.536   8.783  0.00  0.00    +0.000 NA
ATOM      9  C   UNL     1      44.601   2.454   9.316  0.00  0.00    +0.000 A 
BRANCH   7  10
ATOM     10  C   UNL     1      47.288   1.037   7.268  0.00  0.00    +0.000 C 
ATOM     11  O   UNL     1      48.181   1.314   6.489  0.00  0.00    +0.000 OA
BRANCH  10  12
ATOM     12  OXT UNL     1      47.010  -0.216   7.702  0.00  0.00    +0.000 OA
ATOM     13  HXT UNL     1      46.466  -0.154   8.520  0.00  0.00    +0.000 HD
ENDBRANCH  10  12
ENDBRANCH   7  10
ENDBRANCH   2   4
ENDBRANCH   1   2
BRANCH   1  14
ATOM     14  C   UNL     1      43.399   5.553  11.938  0.00  0.00    +0.000 C 
BRANCH  14  19
ATOM     15  C   UNL     1      46.612   5.062  13.967  0.00  0.00    +0.000 A 
ATOM     16  C   UNL     1      47.518   5.815  13.208  0.00  0.00    +0.000 A 
ATOM     17  C   UNL     1      47.092   6.503  12.073  0.00  0.00    +0.000 A 
ATOM     18  C   UNL     1      45.756   6.440  11.672  0.00  0.00    +0.000 A 
ATOM     19  C   UNL     1      44.829   5.696  12.413  0.00  0.00    +0.000 A 
ATOM     20  C   UNL     1      45.266   5.021  13.564  0.00  0.00    +0.000 A 
BRANCH  15  21
ATOM     21  C   UNL     1      47.075   4.326  15.198  0.00  0.00    +0.000 C 
BRANCH  21  22
ATOM     22  N   UNL     1      47.727   3.064  14.862  0.00  0.00    +0.000 NA
ATOM     23  H   UNL     1      48.250   3.182  13.996  0.00  0.00    +0.000 HD
ATOM     24  H   UNL     1      47.009   2.367  14.669  0.00  0.00    +0.000 HD
ENDBRANCH  21  22
ENDBRANCH  15  21
ENDBRANCH  14  19
ENDBRANCH   1  14
TORSDOF 8
ENDMDL
MODEL 2
REMARK VINA RESULT:    -7.580      1.501      1.956
REMARK INTER + INTRA:         -11.262
REMARK INTER:                 -10.648
REMARK INTRA:                  -0.613
REMARK UNBOUND:                -0.580
REMARK  Name = 
REMARK  8 active torsions:
REMARK  status: ('A' for Active; 'I' for Inactive)
REMARK    1  A    between atoms: N_1  and  C_2
REMARK    2  A    between atoms: C_2  and  C_3
REMARK    3  A    between atoms: C_7  and  C_8
REMARK    4  A    between atoms: C_8  and  C_9
REMARK    5  A    between atoms: C_9  and  N_10
REMARK    6  A    between atoms: N_10  and  C_11
REMARK    7  A    between atoms: CA_14  and  C_15
REMARK    8  A    between atoms: C_15  and  OXT_17
REMARK                            x       y       z     vdW  Elec       q    Type
REMARK                         _______ _______ _______ _____ _____    ______ ____
ROOT
ATOM      1  C   UNL     1      43.201   4.265  11.079  0.00  0.00    +0.000 C 
ENDROOT
BRANCH   1   2
ATOM      2  N   UNL     1      43.806   4.774   9.836  0.00  0.00    +0.000 N 
ATOM      3  H   UNL     1      44.233   5.689   9.959  0.00  0.00    +0.000 HD
BRANCH   2   4
ATOM      4  C   UNL     1      44.645   3.893   9.130  0.00  0.00    +0.000 A 
ATOM      5  C   UNL     1      45.594   4.327   8.198  0.00  0.00    +0.000 A 
ATOM      6  C   UNL     1      46.445   3.423   7.563  0.00  0.00    +0.000 A 
ATOM      7  CA  UNL     1      46.347   2.086   7.904  0.00  0.00    +0.000 A 
ATOM      8  N   UNL     1      45.483   1.596   8.837  0.00  0.00    +0.000 NA
ATOM      9  C   UNL     1      44.679   2.523   9.431  0.00  0.00    +0.000 A 
BRANCH   7  10
ATOM     10  C   UNL     1      47.235   1.087   7.234  0.00  0.00    +0.000 C 
ATOM     11  O   UNL     1      48.086   1.358   6.408  0.00  0.00    +0.000 OA
BRANCH  10  12
ATOM     12  OXT UNL     1      46.956  -0.166   7.667  0.00  0.00    +0.000 OA
ATOM     13  HXT UNL     1      47.546  -0.377   8.426  0.00  0.00    +0.000 HD
ENDBRANCH  10  12
ENDBRANCH   7  10
ENDBRANCH   2   4
ENDBRANCH   1   2
BRANCH   1  14
ATOM     14  C   UNL     1      43.325   5.273  12.229  0.00  0.00    +0.000 C 
BRANCH  14  19
ATOM     15  C   UNL     1      46.694   6.836  13.173  0.00  0.00    +0.000 A 
ATOM     16  C   UNL     1      47.391   5.706  13.622  0.00  0.00    +0.000 A 
ATOM     17  C   UNL     1      46.794   4.447  13.588  0.00  0.00    +0.000 A 
ATOM     18  C   UNL     1      45.488   4.298  13.117  0.00  0.00    +0.000 A 
ATOM     19  C   UNL     1      44.769   5.412  12.662  0.00  0.00    +0.000 A 
ATOM     20  C   UNL     1      45.386   6.673  12.684  0.00  0.00    +0.000 A 
BRANCH  15  21
ATOM     21  C   UNL     1      47.345   8.196  13.204  0.00  0.00    +0.000 C 
BRANCH  21  22
ATOM     22  N   UNL     1      46.895   8.987  14.345  0.00  0.00    +0.000 NA
ATOM     23  H   UNL     1      46.622   9.912  14.018  0.00  0.00    +0.000 HD
ATOM     24  H   UNL     1      47.684   9.128  14.975  0.00  0.00    +0.000 HD
ENDBRANCH  21  22
ENDBRANCH  15  21
ENDBRANCH  14  19
ENDBRANCH   1  14
TORSDOF 8
ENDMDL
MODEL 3
REMARK VINA RESULT:    -7.250      3.311      6.339
REMARK INTER + INTRA:         -10.797
REMARK INTER:                 -10.074
REMARK INTRA:                  -0.723
REMARK UNBOUND:                -0.580
REMARK  Name = 
REMARK  8 active torsions:
REMARK  status: ('A' for Active; 'I' for Inactive)
REMARK    1  A    between atoms: N_1  and  C_2
REMARK    2  A    between atoms: C_2  and  C_3
REMARK    3  A    between atoms: C_7  and  C_8
REMARK    4  A    between atoms: C_8  and  C_9
REMARK    5  A    between atoms: C_9  and  N_10
REMARK    6  A    between atoms: N_10  and  C_11
REMARK    7  A    between atoms: CA_14  and  C_15
REMARK    8  A    between atoms: C_15  and  OXT_17
REMARK                            x       y       z     vdW  Elec       q    Type
REMARK                         _______ _______ _______ _____ _____    ______ ____
ROOT
ATOM      1  C   UNL     1      43.411   3.637  11.284  0.00  0.00    +0.000 C 
ENDROOT
BRANCH   1   2
ATOM      2  N   UNL     1      43.929   3.735  12.659  0.00  0.00    +0.000 N 
ATOM      3  H   UNL     1      44.042   2.823  13.096  0.00  0.00    +0.000 HD
BRANCH   2   4
ATOM      4  C   UNL     1      45.052   4.558  12.860  0.00  0.00    +0.000 A 
ATOM      5  C   UNL     1      45.010   5.950  12.729  0.00  0.00    +0.000 A 
ATOM      6  C   UNL     1      46.133   6.732  12.994  0.00  0.00    +0.000 A 
ATOM      7  CA  UNL     1      47.285   6.096  13.420  0.00  0.00    +0.000 A 
ATOM      8  N   UNL     1      47.387   4.751  13.617  0.00  0.00    +0.000 NA
ATOM      9  C   UNL     1      46.258   4.035  13.350  0.00  0.00    +0.000 A 
BRANCH   7  10
ATOM     10  C   UNL     1      48.512   6.902  13.701  0.00  0.00    +0.000 C 
ATOM     11  O   UNL     1      48.597   7.765  14.554  0.00  0.00    +0.000 OA
BRANCH  10  12
ATOM     12  OXT UNL     1      49.519   6.545  12.868  0.00  0.00    +0.000 OA
ATOM     13  HXT UNL     1      49.567   5.563  12.831  0.00  0.00    +0.000 HD
ENDBRANCH  10  12
ENDBRANCH   7  10
ENDBRANCH   2   4
ENDBRANCH   1   2
BRANCH   1  14
ATOM     14  C   UNL     1      43.977   2.417  10.545  0.00  0.00    +0.000 C 
BRANCH  14  19
ATOM     15  C   UNL     1      46.477   2.272   7.645  0.00  0.00    +0.000 A 
ATOM     16  C   UNL     1      46.621   3.635   7.354  0.00  0.00    +0.000 A 
ATOM     17  C   UNL     1      45.945   4.595   8.107  0.00  0.00    +0.000 A 
ATOM     18  C   UNL     1      45.108   4.207   9.155  0.00  0.00    +0.000 A 
ATOM     19  C   UNL     1      44.947   2.850   9.467  0.00  0.00    +0.000 A 
ATOM     20  C   UNL     1      45.645   1.893   8.714  0.00  0.00    +0.000 A 
BRANCH  15  21
ATOM     21  C   UNL     1      47.214   1.237   6.833  0.00  0.00    +0.000 C 
BRANCH  21  22
ATOM     22  N   UNL     1      48.354   1.813   6.126  0.00  0.00    +0.000 NA
ATOM     23  H   UNL     1      49.214   1.451   6.536  0.00  0.00    +0.000 HD
ATOM     24  H   UNL     1      48.363   2.819   6.287  0.00  0.00    +0.000 HD
ENDBRANCH  21  22
ENDBRANCH  15  21
ENDBRANCH  14  19
ENDBRANCH   1  14
TORSDOF 8
ENDMDL
MODEL 4
REMARK VINA RESULT:    -6.914      1.664      2.164
REMARK INTER + INTRA:         -10.324
REMARK INTER:                  -9.940
REMARK INTRA:                  -0.384
REMARK UNBOUND:                -0.580
REMARK  Name = 
REMARK  8 active torsions:
REMARK  status: ('A' for Active; 'I' for Inactive)
REMARK    1  A    between atoms: N_1  and  C_2
REMARK    2  A    between atoms: C_2  and  C_3
REMARK    3  A    between atoms: C_7  and  C_8
REMARK    4  A    between atoms: C_8  and  C_9
REMARK    5  A    between atoms: C_9  and  N_10
REMARK    6  A    between atoms: N_10  and  C_11
REMARK    7  A    between atoms: CA_14  and  C_15
REMARK    8  A    between atoms: C_15  and  OXT_17
REMARK                            x       y       z     vdW  Elec       q    Type
REMARK                         _______ _______ _______ _____ _____    ______ ____
ROOT
ATOM      1  C   UNL     1      43.865   5.079  11.152  0.00  0.00    +0.000 C 
ENDROOT
BRANCH   1   2
ATOM      2  N   UNL     1      43.848   4.924   9.687  0.00  0.00    +0.000 N 
ATOM      3  H   UNL     1      43.935   5.815   9.203  0.00  0.00    +0.000 HD
BRANCH   2   4
ATOM      4  C   UNL     1      44.694   3.942   9.141  0.00  0.00    +0.000 A 
ATOM      5  C   UNL     1      44.522   2.574   9.373  0.00  0.00    +0.000 A 
ATOM      6  C   UNL     1      45.350   1.631   8.764  0.00  0.00    +0.000 A 
ATOM      7  CA  UNL     1      46.328   2.085   7.898  0.00  0.00    +0.000 A 
ATOM      8  N   UNL     1      46.523   3.398   7.586  0.00  0.00    +0.000 NA
ATOM      9  C   UNL     1      45.683   4.276   8.203  0.00  0.00    +0.000 A 
BRANCH   7  10
ATOM     10  C   UNL     1      47.241   1.104   7.238  0.00  0.00    +0.000 C 
ATOM     11  O   UNL     1      48.106   1.392   6.432  0.00  0.00    +0.000 OA
BRANCH  10  12
ATOM     12  OXT UNL     1      46.969  -0.157   7.653  0.00  0.00    +0.000 OA
ATOM     13  HXT UNL     1      46.008  -0.225   7.850  0.00  0.00    +0.000 HD
ENDBRANCH  10  12
ENDBRANCH   7  10
ENDBRANCH   2   4
ENDBRANCH   1   2
BRANCH   1  14
ATOM     14  C   UNL     1      45.278   4.920  11.727  0.00  0.00    +0.000 C 
BRANCH  14  19
ATOM     15  C   UNL     1      47.453   7.476  13.577  0.00  0.00    +0.000 A 
ATOM     16  C   UNL     1      46.719   8.650  13.360  0.00  0.00    +0.000 A 
ATOM     17  C   UNL     1      45.517   8.614  12.655  0.00  0.00    +0.000 A 
ATOM     18  C   UNL     1      45.035   7.406  12.146  0.00  0.00    +0.000 A 
ATOM     19  C   UNL     1      45.749   6.218  12.349  0.00  0.00    +0.000 A 
ATOM     20  C   UNL     1      46.949   6.263  13.075  0.00  0.00    +0.000 A 
BRANCH  15  21
ATOM     21  C   UNL     1      48.748   7.518  14.346  0.00  0.00    +0.000 C 
BRANCH  21  22
ATOM     22  N   UNL     1      49.865   7.006  13.558  0.00  0.00    +0.000 NA
ATOM     23  H   UNL     1      50.323   7.786  13.089  0.00  0.00    +0.000 HD
ATOM     24  H   UNL     1      49.495   6.407  12.821  0.00  0.00    +0.000 HD
ENDBRANCH  21  22
ENDBRANCH  15  21
ENDBRANCH  14  19
ENDBRANCH   1  14
TORSDOF 8
ENDMDL
MODEL 5
REMARK VINA RESULT:    -6.862      1.966      3.109
REMARK INTER + INTRA:         -10.251
REMARK INTER:                 -10.060
REMARK INTRA:                  -0.191
REMARK UNBOUND:                -0.580
REMARK  Name = 
REMARK  8 active torsions:
REMARK  status: ('A' for Active; 'I' for Inactive)
REMARK    1  A    between atoms: N_1  and  C_2
REMARK    2  A    between atoms: C_2  and  C_3
REMARK    3  A    between atoms: C_7  and  C_8
REMARK    4  A    between atoms: C_8  and  C_9
REMARK    5  A    between atoms: C_9  and  N_10
REMARK    6  A    between atoms: N_10  and  C_11
REMARK    7  A    between atoms: CA_14  and  C_15
REMARK    8  A    between atoms: C_15  and  OXT_17
REMARK                            x       y       z     vdW  Elec       q    Type
REMARK                         _______ _______ _______ _____ _____    ______ ____
ROOT
ATOM      1  C   UNL     1      44.123   5.311  11.014  0.00  0.00    +0.000 C 
ENDROOT
BRANCH   1   2
ATOM      2  N   UNL     1      43.732   4.855   9.669  0.00  0.00    +0.000 N 
ATOM      3  H   UNL     1      43.522   5.630   9.043  0.00  0.00    +0.000 HD
BRANCH   2   4
ATOM      4  C   UNL     1      44.559   3.894   9.058  0.00  0.00    +0.000 A 
ATOM      5  C   UNL     1      45.551   4.223   8.129  0.00  0.00    +0.000 A 
ATOM      6  C   UNL     1      46.386   3.244   7.592  0.00  0.00    +0.000 A 
ATOM      7  CA  UNL     1      46.228   1.942   8.027  0.00  0.00    +0.000 A 
ATOM      8  N   UNL     1      45.316   1.554   8.964  0.00  0.00    +0.000 NA
ATOM      9  C   UNL     1      44.530   2.550   9.461  0.00  0.00    +0.000 A 
BRANCH   7  10
ATOM     10  C   UNL     1      47.097   0.864   7.463  0.00  0.00    +0.000 C 
ATOM     11  O   UNL     1      46.946  -0.326   7.663  0.00  0.00    +0.000 OA
BRANCH  10  12
ATOM     12  OXT UNL     1      48.086   1.396   6.704  0.00  0.00    +0.000 OA
ATOM     13  HXT UNL     1      47.765   1.475   5.777  0.00  0.00    +0.000 HD
ENDBRANCH  10  12
ENDBRANCH   7  10
ENDBRANCH   2   4
ENDBRANCH   1   2
BRANCH   1  14
ATOM     14  C   UNL     1      45.646   5.324  11.194  0.00  0.00    +0.000 C 
BRANCH  14  19
ATOM     15  C   UNL     1      45.804   8.990  12.297  0.00  0.00    +0.000 A 
ATOM     16  C   UNL     1      46.783   8.921  13.297  0.00  0.00    +0.000 A 
ATOM     17  C   UNL     1      47.412   7.712  13.590  0.00  0.00    +0.000 A 
ATOM     18  C   UNL     1      47.064   6.551  12.897  0.00  0.00    +0.000 A 
ATOM     19  C   UNL     1      46.089   6.592  11.891  0.00  0.00    +0.000 A 
ATOM     20  C   UNL     1      45.475   7.819  11.592  0.00  0.00    +0.000 A 
BRANCH  15  21
ATOM     21  C   UNL     1      45.131  10.301  11.977  0.00  0.00    +0.000 C 
BRANCH  21  22
ATOM     22  N   UNL     1      43.692  10.245  12.215  0.00  0.00    +0.000 NA
ATOM     23  H   UNL     1      43.245   9.782  11.426  0.00  0.00    +0.000 HD
ATOM     24  H   UNL     1      43.328  11.196  12.232  0.00  0.00    +0.000 HD
ENDBRANCH  21  22
ENDBRANCH  15  21
ENDBRANCH  14  19
ENDBRANCH   1  14
TORSDOF 8
ENDMDL
MODEL 6
REMARK VINA RESULT:    -6.326      3.835      6.645
REMARK INTER + INTRA:          -9.495
REMARK INTER:                  -8.792
REMARK INTRA:                  -0.703
REMARK UNBOUND:                -0.580
REMARK  Name = 
REMARK  8 active torsions:
REMARK  status: ('A' for Active; 'I' for Inactive)
REMARK    1  A    between atoms: N_1  and  C_2
REMARK    2  A    between atoms: C_2  and  C_3
REMARK    3  A    between atoms: C_7  and  C_8
REMARK    4  A    between atoms: C_8  and  C_9
REMARK    5  A    between atoms: C_9  and  N_10
REMARK    6  A    between atoms: N_10  and  C_11
REMARK    7  A    between atoms: CA_14  and  C_15
REMARK    8  A    between atoms: C_15  and  OXT_17
REMARK                            x       y       z     vdW  Elec       q    Type
REMARK                         _______ _______ _______ _____ _____    ______ ____
ROOT
ATOM      1  C   UNL     1      46.201   7.437  12.647  0.00  0.00    +0.000 C 
ENDROOT
BRANCH   1   2
ATOM      2  N   UNL     1      47.275   6.432  12.589  0.00  0.00    +0.000 N 
ATOM      3  H   UNL     1      48.151   6.820  12.245  0.00  0.00    +0.000 HD
BRANCH   2   4
ATOM      4  C   UNL     1      47.466   5.638  13.735  0.00  0.00    +0.000 A 
ATOM      5  C   UNL     1      47.976   6.143  14.936  0.00  0.00    +0.000 A 
ATOM      6  C   UNL     1      48.095   5.332  16.064  0.00  0.00    +0.000 A 
ATOM      7  CA  UNL     1      47.664   4.022  15.974  0.00  0.00    +0.000 A 
ATOM      8  N   UNL     1      47.112   3.474  14.854  0.00  0.00    +0.000 NA
ATOM      9  C   UNL     1      47.014   4.310  13.782  0.00  0.00    +0.000 A 
BRANCH   7  10
ATOM     10  C   UNL     1      47.787   3.121  17.160  0.00  0.00    +0.000 C 
ATOM     11  O   UNL     1      48.838   2.707  17.612  0.00  0.00    +0.000 OA
BRANCH  10  12
ATOM     12  OXT UNL     1      46.564   2.818  17.660  0.00  0.00    +0.000 OA
ATOM     13  HXT UNL     1      45.998   2.483  16.929  0.00  0.00    +0.000 HD
ENDBRANCH  10  12
ENDBRANCH   7  10
ENDBRANCH   2   4
ENDBRANCH   1   2
BRANCH   1  14
ATOM     14  C   UNL     1      45.205   7.277  11.490  0.00  0.00    +0.000 C 
BRANCH  14  19
ATOM     15  C   UNL     1      44.218   3.679  10.616  0.00  0.00    +0.000 A 
ATOM     16  C   UNL     1      43.435   3.345  11.729  0.00  0.00    +0.000 A 
ATOM     17  C   UNL     1      43.199   4.280  12.736  0.00  0.00    +0.000 A 
ATOM     18  C   UNL     1      43.749   5.560  12.651  0.00  0.00    +0.000 A 
ATOM     19  C   UNL     1      44.535   5.921  11.549  0.00  0.00    +0.000 A 
ATOM     20  C   UNL     1      44.752   4.977  10.533  0.00  0.00    +0.000 A 
BRANCH  15  21
ATOM     21  C   UNL     1      44.466   2.668   9.526  0.00  0.00    +0.000 C 
BRANCH  21  22
ATOM     22  N   UNL     1      44.371   3.267   8.199  0.00  0.00    +0.000 NA
ATOM     23  H   UNL     1      43.404   3.536   8.026  0.00  0.00    +0.000 HD
ATOM     24  H   UNL     1      44.597   2.556   7.504  0.00  0.00    +0.000 HD
ENDBRANCH  21  22
ENDBRANCH  15  21
ENDBRANCH  14  19
ENDBRANCH   1  14
TORSDOF 8
ENDMDL
MODEL 7
REMARK VINA RESULT:    -5.995      3.160      5.299
REMARK INTER + INTRA:          -9.028
REMARK INTER:                  -8.535
REMARK INTRA:                  -0.493
REMARK UNBOUND:                -0.580
REMARK  Name = 
REMARK  8 active torsions:
REMARK  status: ('A' for Active; 'I' for Inactive)
REMARK    1  A    between atoms: N_1  and  C_2
REMARK    2  A    between atoms: C_2  and  C_3
REMARK    3  A    between atoms: C_7  and  C_8
REMARK    4  A    between atoms: C_8  and  C_9
REMARK    5  A    between atoms: C_9  and  N_10
REMARK    6  A    between atoms: N_10  and  C_11
REMARK    7  A    between atoms: CA_14  and  C_15
REMARK    8  A    between atoms: C_15  and  OXT_17
REMARK                            x       y       z     vdW  Elec       q    Type
REMARK                         _______ _______ _______ _____ _____    ______ ____
ROOT
ATOM      1  C   UNL     1      48.268   6.713  13.994  0.00  0.00    +0.000 C 
ENDROOT
BRANCH   1   2
ATOM      2  N   UNL     1      46.887   7.058  13.617  0.00  0.00    +0.000 N 
ATOM      3  H   UNL     1      46.834   7.935  13.103  0.00  0.00    +0.000 HD
BRANCH   2   4
ATOM      4  C   UNL     1      46.122   6.046  13.010  0.00  0.00    +0.000 A 
ATOM      5  C   UNL     1      45.425   6.233  11.811  0.00  0.00    +0.000 A 
ATOM      6  C   UNL     1      44.725   5.184  11.215  0.00  0.00    +0.000 A 
ATOM      7  CA  UNL     1      44.765   3.944  11.825  0.00  0.00    +0.000 A 
ATOM      8  N   UNL     1      45.462   3.674  12.965  0.00  0.00    +0.000 NA
ATOM      9  C   UNL     1      46.132   4.732  13.503  0.00  0.00    +0.000 A 
BRANCH   7  10
ATOM     10  C   UNL     1      44.016   2.800  11.220  0.00  0.00    +0.000 C 
ATOM     11  O   UNL     1      42.963   2.359  11.640  0.00  0.00    +0.000 OA
BRANCH  10  12
ATOM     12  OXT UNL     1      44.676   2.313  10.141  0.00  0.00    +0.000 OA
ATOM     13  HXT UNL     1      44.591   1.333  10.134  0.00  0.00    +0.000 HD
ENDBRANCH  10  12
ENDBRANCH   7  10
ENDBRANCH   2   4
ENDBRANCH   1   2
BRANCH   1  14
ATOM     14  C   UNL     1      48.646   7.285  15.367  0.00  0.00    +0.000 C 
BRANCH  14  19
ATOM     15  C   UNL     1      48.875   4.058  17.421  0.00  0.00    +0.000 A 
ATOM     16  C   UNL     1      50.225   4.081  17.796  0.00  0.00    +0.000 A 
ATOM     17  C   UNL     1      51.046   5.143  17.420  0.00  0.00    +0.000 A 
ATOM     18  C   UNL     1      50.535   6.193  16.655  0.00  0.00    +0.000 A 
ATOM     19  C   UNL     1      49.188   6.195  16.267  0.00  0.00    +0.000 A 
ATOM     20  C   UNL     1      48.366   5.130  16.666  0.00  0.00    +0.000 A 
BRANCH  15  21
ATOM     21  C   UNL     1      47.987   2.912  17.835  0.00  0.00    +0.000 C 
BRANCH  21  22
ATOM     22  N   UNL     1      46.591   3.152  17.484  0.00  0.00    +0.000 NA
ATOM     23  H   UNL     1      46.476   3.022  16.480  0.00  0.00    +0.000 HD
ATOM     24  H   UNL     1      46.371   4.129  17.671  0.00  0.00    +0.000 HD
ENDBRANCH  21  22
ENDBRANCH  15  21
ENDBRANCH  14  19
ENDBRANCH   1  14
TORSDOF 8
ENDMDL
MODEL 8
REMARK VINA RESULT:    -5.845      3.998      6.168
REMARK INTER + INTRA:          -8.817
REMARK INTER:                  -8.441
REMARK INTRA:                  -0.377
REMARK UNBOUND:                -0.580
REMARK  Name = 
REMARK  8 active torsions:
REMARK  status: ('A' for Active; 'I' for Inactive)
REMARK    1  A    between atoms: N_1  and  C_2
REMARK    2  A    between atoms: C_2  and  C_3
REMARK    3  A    between atoms: C_7  and  C_8
REMARK    4  A    between atoms: C_8  and  C_9
REMARK    5  A    between atoms: C_9  and  N_10
REMARK    6  A    between atoms: N_10  and  C_11
REMARK    7  A    between atoms: CA_14  and  C_15
REMARK    8  A    between atoms: C_15  and  OXT_17
REMARK                            x       y       z     vdW  Elec       q    Type
REMARK                         _______ _______ _______ _____ _____    ______ ____
ROOT
ATOM      1  C   UNL     1      47.142   4.211  15.894  0.00  0.00    +0.000 C 
ENDROOT
BRANCH   1   2
ATOM      2  N   UNL     1      47.226   3.592  14.561  0.00  0.00    +0.000 N 
ATOM      3  H   UNL     1      47.288   2.577  14.609  0.00  0.00    +0.000 HD
BRANCH   2   4
ATOM      4  C   UNL     1      46.289   4.017  13.601  0.00  0.00    +0.000 A 
ATOM      5  C   UNL     1      45.959   5.362  13.403  0.00  0.00    +0.000 A 
ATOM      6  C   UNL     1      45.068   5.743  12.401  0.00  0.00    +0.000 A 
ATOM      7  CA  UNL     1      44.543   4.758  11.586  0.00  0.00    +0.000 A 
ATOM      8  N   UNL     1      44.856   3.435  11.687  0.00  0.00    +0.000 NA
ATOM      9  C   UNL     1      45.735   3.117  12.678  0.00  0.00    +0.000 A 
BRANCH   7  10
ATOM     10  C   UNL     1      43.575   5.129  10.509  0.00  0.00    +0.000 C 
ATOM     11  O   UNL     1      43.495   4.580   9.426  0.00  0.00    +0.000 OA
BRANCH  10  12
ATOM     12  OXT UNL     1      42.802   6.171  10.900  0.00  0.00    +0.000 OA
ATOM     13  HXT UNL     1      42.983   6.362  11.848  0.00  0.00    +0.000 HD
ENDBRANCH  10  12
ENDBRANCH   7  10
ENDBRANCH   2   4
ENDBRANCH   1   2
BRANCH   1  14
ATOM     14  C   UNL     1      47.634   3.265  16.998  0.00  0.00    +0.000 C 
BRANCH  14  19
ATOM     15  C   UNL     1      51.372   2.642  17.567  0.00  0.00    +0.000 A 
ATOM     16  C   UNL     1      51.842   3.957  17.677  0.00  0.00    +0.000 A 
ATOM     17  C   UNL     1      50.960   5.034  17.603  0.00  0.00    +0.000 A 
ATOM     18  C   UNL     1      49.595   4.814  17.407  0.00  0.00    +0.000 A 
ATOM     19  C   UNL     1      49.098   3.509  17.295  0.00  0.00    +0.000 A 
ATOM     20  C   UNL     1      49.993   2.431  17.388  0.00  0.00    +0.000 A 
BRANCH  15  21
ATOM     21  C   UNL     1      52.327   1.479  17.655  0.00  0.00    +0.000 C 
BRANCH  21  22
ATOM     22  N   UNL     1      51.657   0.256  18.084  0.00  0.00    +0.000 NA
ATOM     23  H   UNL     1      50.655   0.355  17.925  0.00  0.00    +0.000 HD
ATOM     24  H   UNL     1      51.777   0.155  19.091  0.00  0.00    +0.000 HD
ENDBRANCH  21  22
ENDBRANCH  15  21
ENDBRANCH  14  19
ENDBRANCH   1  14
TORSDOF 8
ENDMDL
MODEL 9
REMARK VINA RESULT:    -5.828      4.238      7.401
REMARK INTER + INTRA:          -8.792
REMARK INTER:                  -8.453
REMARK INTRA:                  -0.339
REMARK UNBOUND:                -0.580
REMARK  Name = 
REMARK  8 active torsions:
REMARK  status: ('A' for Active; 'I' for Inactive)
REMARK    1  A    between atoms: N_1  and  C_2
REMARK    2  A    between atoms: C_2  and  C_3
REMARK    3  A    between atoms: C_7  and  C_8
REMARK    4  A    between atoms: C_8  and  C_9
REMARK    5  A    between atoms: C_9  and  N_10
REMARK    6  A    between atoms: N_10  and  C_11
REMARK    7  A    between atoms: CA_14  and  C_15
REMARK    8  A    between atoms: C_15  and  OXT_17
REMARK                            x       y       z     vdW  Elec       q    Type
REMARK                         _______ _______ _______ _____ _____    ______ ____
ROOT
ATOM      1  C   UNL     1      44.558   5.170  10.838  0.00  0.00    +0.000 C 
ENDROOT
BRANCH   1   2
ATOM      2  N   UNL     1      45.353   4.968  12.062  0.00  0.00    +0.000 N 
ATOM      3  H   UNL     1      45.949   4.145  12.005  0.00  0.00    +0.000 HD
BRANCH   2   4
ATOM      4  C   UNL     1      46.046   6.086  12.562  0.00  0.00    +0.000 A 
ATOM      5  C   UNL     1      45.498   7.373  12.587  0.00  0.00    +0.000 A 
ATOM      6  C   UNL     1      46.198   8.442  13.145  0.00  0.00    +0.000 A 
ATOM      7  CA  UNL     1      47.437   8.189  13.704  0.00  0.00    +0.000 A 
ATOM      8  N   UNL     1      48.013   6.954  13.761  0.00  0.00    +0.000 NA
ATOM      9  C   UNL     1      47.284   5.945  13.207  0.00  0.00    +0.000 A 
BRANCH   7  10
ATOM     10  C   UNL     1      48.221   9.313  14.301  0.00  0.00    +0.000 C 
ATOM     11  O   UNL     1      48.466   9.438  15.486  0.00  0.00    +0.000 OA
BRANCH  10  12
ATOM     12  OXT UNL     1      48.617  10.183  13.340  0.00  0.00    +0.000 OA
ATOM     13  HXT UNL     1      49.324  10.760  13.707  0.00  0.00    +0.000 HD
ENDBRANCH  10  12
ENDBRANCH   7  10
ENDBRANCH   2   4
ENDBRANCH   1   2
BRANCH   1  14
ATOM     14  C   UNL     1      45.448   5.355   9.602  0.00  0.00    +0.000 C 
BRANCH  14  19
ATOM     15  C   UNL     1      46.612   2.760   7.033  0.00  0.00    +0.000 A 
ATOM     16  C   UNL     1      46.133   1.580   7.617  0.00  0.00    +0.000 A 
ATOM     17  C   UNL     1      45.412   1.622   8.810  0.00  0.00    +0.000 A 
ATOM     18  C   UNL     1      45.167   2.842   9.442  0.00  0.00    +0.000 A 
ATOM     19  C   UNL     1      45.635   4.037   8.879  0.00  0.00    +0.000 A 
ATOM     20  C   UNL     1      46.345   3.985   7.670  0.00  0.00    +0.000 A 
BRANCH  15  21
ATOM     21  C   UNL     1      47.386   2.711   5.740  0.00  0.00    +0.000 C 
BRANCH  21  22
ATOM     22  N   UNL     1      48.516   1.791   5.818  0.00  0.00    +0.000 NA
ATOM     23  H   UNL     1      49.332   2.234   5.398  0.00  0.00    +0.000 HD
ATOM     24  H   UNL     1      48.310   0.973   5.247  0.00  0.00    +0.000 HD
ENDBRANCH  21  22
ENDBRANCH  15  21
ENDBRANCH  14  19
ENDBRANCH   1  14
TORSDOF 8
ENDMDL
