MODEL 1
REMARK VINA RESULT:    -8.176      0.000      0.000
REMARK INTER + INTRA:         -11.142
REMARK INTER:                 -10.566
REMARK INTRA:                  -0.576
REMARK UNBOUND:                -0.576
REMARK  Name = 
REMARK  5 active torsions:
REMARK  status: ('A' for Active; 'I' for Inactive)
REMARK    1  A    between atoms: C_2  and  C_4
REMARK    2  A    between atoms: C_8  and  O_9
REMARK    3  A    between atoms: O_9  and  C_10
REMARK    4  A    between atoms: C_10  and  C_11
REMARK    5  A    between atoms: C_16  and  C_17
REMARK                            x       y       z     vdW  Elec       q    Type
REMARK                         _______ _______ _______ _____ _____    ______ ____
ROOT
ATOM      1  C   UNL     1      44.879   4.832  11.799  0.00  0.00    +0.000 A 
ATOM      2  C   UNL     1      45.498   3.887  12.609  0.00  0.00    +0.000 A 
ATOM      3  F   UNL     1      45.201   2.588  12.468  0.00  0.00    +0.000 F 
ATOM      4  C   UNL     1      46.435   4.261  13.563  0.00  0.00    +0.000 A 
ATOM      5  C   UNL     1      46.833   5.595  13.669  0.00  0.00    +0.000 A 
ATOM      6  C   UNL     1      46.349   6.545  12.764  0.00  0.00    +0.000 A 
ATOM      7  C   UNL     1      45.323   6.152  11.881  0.00  0.00    +0.000 A 
ATOM      8  F   UNL     1      44.799   7.060  11.043  0.00  0.00    +0.000 F 
ENDROOT
BRANCH   6   9
ATOM      9  C   UNL     1      47.020   7.894  12.524  0.00  0.00    +0.000 C 
ATOM     10  C   UNL     1      48.277   7.658  11.657  0.00  0.00    +0.000 C 
ATOM     11  C   UNL     1      49.494   7.250  12.488  0.00  0.00    +0.000 C 
ATOM     12  N   UNL     1      49.801   8.245  13.513  0.00  0.00    +0.000 NA
ATOM     13  C   UNL     1      48.685   8.426  14.436  0.00  0.00    +0.000 C 
ATOM     14  C   UNL     1      47.375   8.782  13.730  0.00  0.00    +0.000 C 
ATOM     15  H   UNL     1      50.015   9.134  13.061  0.00  0.00    +0.000 HD
ENDBRANCH   6   9
BRANCH   1  16
ATOM     16  C   UNL     1      43.831   4.428  10.810  0.00  0.00    +0.000 C 
BRANCH  16  17
ATOM     17  O   UNL     1      44.332   4.695   9.503  0.00  0.00    +0.000 OA
BRANCH  17  22
ATOM     18  C   UNL     1      46.513   2.678   7.290  0.00  0.00    +0.000 A 
ATOM     19  C   UNL     1      46.195   1.441   7.832  0.00  0.00    +0.000 A 
ATOM     20  N   UNL     1      45.349   1.277   8.877  0.00  0.00    +0.000 NA
ATOM     21  C   UNL     1      44.787   2.406   9.369  0.00  0.00    +0.000 A 
ATOM     22  C   UNL     1      45.016   3.689   8.882  0.00  0.00    +0.000 A 
ATOM     23  C   UNL     1      45.905   3.826   7.814  0.00  0.00    +0.000 A 
BRANCH  18  25
ATOM     24  N   UNL     1      48.778   2.480   6.446  0.00  0.00    +0.000 N 
ATOM     25  C   UNL     1      47.464   2.728   6.163  0.00  0.00    +0.000 C 
ATOM     26  O   UNL     1      47.088   2.941   5.018  0.00  0.00    +0.000 OA
ATOM     27  H   UNL     1      49.393   2.403   5.639  0.00  0.00    +0.000 HD
ATOM     28  H   UNL     1      49.072   2.026   7.293  0.00  0.00    +0.000 HD
ENDBRANCH  18  25
ENDBRANCH  17  22
ENDBRANCH  16  17
ENDBRANCH   1  16
TORSDOF 5
ENDMDL
MODEL 2
REMARK VINA RESULT:    -7.438      1.270      1.614
REMARK INTER + INTRA:         -10.188
REMARK INTER:                  -9.223
REMARK INTRA:                  -0.965
REMARK UNBOUND:                -0.576
REMARK  Name = 
REMARK  5 active torsions:
REMARK  status: ('A' for Active; 'I' for Inactive)
REMARK    1  A    between atoms: C_2  and  C_4
REMARK    2  A    between atoms: C_8  and  O_9
REMARK    3  A    between atoms: O_9  and  C_10
REMARK    4  A    between atoms: C_10  and  C_11
REMARK    5  A    between atoms: C_16  and  C_17
REMARK                            x       y       z     vdW  Elec       q    Type
REMARK                         _______ _______ _______ _____ _____    ______ ____
ROOT
ATOM      1  C   UNL     1      45.408   5.850  12.884  0.00  0.00    +0.000 A 
ATOM      2  C   UNL     1      46.054   4.747  13.429  0.00  0.00    +0.000 A 
ATOM      3  F   UNL     1      45.513   3.528  13.307  0.00  0.00    +0.000 F 
ATOM      4  C   UNL     1      47.267   4.879  14.094  0.00  0.00    +0.000 A 
ATOM      5  C   UNL     1      47.900   6.122  14.155  0.00  0.00    +0.000 A 
ATOM      6  C   UNL     1      47.357   7.220  13.482  0.00  0.00    +0.000 A 
ATOM      7  C   UNL     1      46.077   7.075  12.909  0.00  0.00    +0.000 A 
ATOM      8  F   UNL     1      45.507   8.131  12.307  0.00  0.00    +0.000 F 
ENDROOT
BRANCH   6   9
ATOM      9  C   UNL     1      48.156   8.471  13.135  0.00  0.00    +0.000 C 
ATOM     10  C   UNL     1      48.708   8.308  11.701  0.00  0.00    +0.000 C 
ATOM     11  C   UNL     1      50.015   7.515  11.662  0.00  0.00    +0.000 C 
ATOM     12  N   UNL     1      51.041   8.131  12.500  0.00  0.00    +0.000 NA
ATOM     13  C   UNL     1      50.619   8.207  13.895  0.00  0.00    +0.000 C 
ATOM     14  C   UNL     1      49.283   8.929  14.080  0.00  0.00    +0.000 C 
ATOM     15  H   UNL     1      51.234   9.071  12.152  0.00  0.00    +0.000 HD
ENDBRANCH   6   9
BRANCH   1  16
ATOM     16  C   UNL     1      44.077   5.708  12.215  0.00  0.00    +0.000 C 
BRANCH  16  17
ATOM     17  O   UNL     1      44.273   5.844  10.810  0.00  0.00    +0.000 OA
BRANCH  17  22
ATOM     18  C   UNL     1      45.565   3.333   8.412  0.00  0.00    +0.000 A 
ATOM     19  C   UNL     1      44.824   2.260   8.886  0.00  0.00    +0.000 A 
ATOM     20  N   UNL     1      43.982   2.341   9.943  0.00  0.00    +0.000 NA
ATOM     21  C   UNL     1      43.869   3.560  10.521  0.00  0.00    +0.000 A 
ATOM     22  C   UNL     1      44.544   4.704  10.107  0.00  0.00    +0.000 A 
ATOM     23  C   UNL     1      45.416   4.585   9.024  0.00  0.00    +0.000 A 
BRANCH  18  25
ATOM     24  N   UNL     1      47.185   1.954   7.248  0.00  0.00    +0.000 N 
ATOM     25  C   UNL     1      46.464   3.115   7.263  0.00  0.00    +0.000 C 
ATOM     26  O   UNL     1      46.530   3.918   6.340  0.00  0.00    +0.000 OA
ATOM     27  H   UNL     1      47.704   1.772   6.392  0.00  0.00    +0.000 HD
ATOM     28  H   UNL     1      46.945   1.162   7.818  0.00  0.00    +0.000 HD
ENDBRANCH  18  25
ENDBRANCH  17  22
ENDBRANCH  16  17
ENDBRANCH   1  16
TORSDOF 5
ENDMDL
MODEL 3
REMARK VINA RESULT:    -7.153      4.171      7.860
REMARK INTER + INTRA:          -9.820
REMARK INTER:                  -8.944
REMARK INTRA:                  -0.876
REMARK UNBOUND:                -0.576
REMARK  Name = 
REMARK  5 active torsions:
REMARK  status: ('A' for Active; 'I' for Inactive)
REMARK    1  A    between atoms: C_2  and  C_4
REMARK    2  A    between atoms: C_8  and  O_9
REMARK    3  A    between atoms: O_9  and  C_10
REMARK    4  A    between atoms: C_10  and  C_11
REMARK    5  A    between atoms: C_16  and  C_17
REMARK                            x       y       z     vdW  Elec       q    Type
REMARK                         _______ _______ _______ _____ _____    ______ ____
ROOT
ATOM      1  C   UNL     1      47.603   7.436  13.345  0.00  0.00    +0.000 A 
ATOM      2  C   UNL     1      46.827   8.541  13.017  0.00  0.00    +0.000 A 
ATOM      3  F   UNL     1      47.295   9.777  13.241  0.00  0.00    +0.000 F 
ATOM      4  C   UNL     1      45.569   8.393  12.447  0.00  0.00    +0.000 A 
ATOM      5  C   UNL     1      45.095   7.122  12.118  0.00  0.00    +0.000 A 
ATOM      6  C   UNL     1      45.914   6.002  12.287  0.00  0.00    +0.000 A 
ATOM      7  C   UNL     1      47.138   6.177  12.963  0.00  0.00    +0.000 A 
ATOM      8  F   UNL     1      47.917   5.107  13.191  0.00  0.00    +0.000 F 
ENDROOT
BRANCH   6   9
ATOM      9  C   UNL     1      45.670   4.670  11.586  0.00  0.00    +0.000 C 
ATOM     10  C   UNL     1      44.747   4.926  10.373  0.00  0.00    +0.000 C 
ATOM     11  C   UNL     1      43.267   4.945  10.756  0.00  0.00    +0.000 C 
ATOM     12  N   UNL     1      42.865   3.700  11.406  0.00  0.00    +0.000 NA
ATOM     13  C   UNL     1      43.628   3.464  12.628  0.00  0.00    +0.000 C 
ATOM     14  C   UNL     1      45.141   3.476  12.403  0.00  0.00    +0.000 C 
ATOM     15  H   UNL     1      43.011   2.925  10.760  0.00  0.00    +0.000 HD
ENDBRANCH   6   9
BRANCH   1  16
ATOM     16  C   UNL     1      48.935   7.601  14.008  0.00  0.00    +0.000 C 
BRANCH  16  17
ATOM     17  O   UNL     1      48.725   7.629  15.417  0.00  0.00    +0.000 OA
BRANCH  17  22
ATOM     18  C   UNL     1      48.640   4.453  17.322  0.00  0.00    +0.000 A 
ATOM     19  C   UNL     1      50.009   4.346  17.520  0.00  0.00    +0.000 A 
ATOM     20  N   UNL     1      50.907   5.235  17.033  0.00  0.00    +0.000 NA
ATOM     21  C   UNL     1      50.395   6.282  16.345  0.00  0.00    +0.000 A 
ATOM     22  C   UNL     1      49.039   6.498  16.114  0.00  0.00    +0.000 A 
ATOM     23  C   UNL     1      48.140   5.555  16.616  0.00  0.00    +0.000 A 
BRANCH  18  25
ATOM     24  N   UNL     1      48.185   2.797  19.034  0.00  0.00    +0.000 N 
ATOM     25  C   UNL     1      47.764   3.409  17.887  0.00  0.00    +0.000 C 
ATOM     26  O   UNL     1      46.686   3.132  17.376  0.00  0.00    +0.000 OA
ATOM     27  H   UNL     1      47.513   2.170  19.468  0.00  0.00    +0.000 HD
ATOM     28  H   UNL     1      48.896   3.190  19.626  0.00  0.00    +0.000 HD
ENDBRANCH  18  25
ENDBRANCH  17  22
ENDBRANCH  16  17
ENDBRANCH   1  16
TORSDOF 5
ENDMDL
MODEL 4
REMARK VINA RESULT:    -7.018      3.319      5.159
REMARK INTER + INTRA:          -9.646
REMARK INTER:                  -8.985
REMARK INTRA:                  -0.661
REMARK UNBOUND:                -0.576
REMARK  Name = 
REMARK  5 active torsions:
REMARK  status: ('A' for Active; 'I' for Inactive)
REMARK    1  A    between atoms: C_2  and  C_4
REMARK    2  A    between atoms: C_8  and  O_9
REMARK    3  A    between atoms: O_9  and  C_10
REMARK    4  A    between atoms: C_10  and  C_11
REMARK    5  A    between atoms: C_16  and  C_17
REMARK                            x       y       z     vdW  Elec       q    Type
REMARK                         _______ _______ _______ _____ _____    ______ ____
ROOT
ATOM      1  C   UNL     1      47.761   6.553  13.660  0.00  0.00    +0.000 A 
ATOM      2  C   UNL     1      48.358   7.643  14.282  0.00  0.00    +0.000 A 
ATOM      3  F   UNL     1      48.407   8.826  13.655  0.00  0.00    +0.000 F 
ATOM      4  C   UNL     1      48.900   7.536  15.557  0.00  0.00    +0.000 A 
ATOM      5  C   UNL     1      48.781   6.343  16.271  0.00  0.00    +0.000 A 
ATOM      6  C   UNL     1      48.048   5.277  15.738  0.00  0.00    +0.000 A 
ATOM      7  C   UNL     1      47.604   5.384  14.405  0.00  0.00    +0.000 A 
ATOM      8  F   UNL     1      46.949   4.351  13.850  0.00  0.00    +0.000 F 
ENDROOT
BRANCH   6   9
ATOM      9  C   UNL     1      47.508   4.126  16.581  0.00  0.00    +0.000 C 
ATOM     10  C   UNL     1      47.291   4.643  18.020  0.00  0.00    +0.000 C 
ATOM     11  C   UNL     1      48.570   4.599  18.858  0.00  0.00    +0.000 C 
ATOM     12  N   UNL     1      49.127   3.249  18.915  0.00  0.00    +0.000 NA
ATOM     13  C   UNL     1      49.461   2.751  17.584  0.00  0.00    +0.000 C 
ATOM     14  C   UNL     1      48.279   2.793  16.613  0.00  0.00    +0.000 C 
ATOM     15  H   UNL     1      48.446   2.626  19.350  0.00  0.00    +0.000 HD
ENDBRANCH   6   9
BRANCH   1  16
ATOM     16  C   UNL     1      47.227   6.661  12.266  0.00  0.00    +0.000 C 
BRANCH  16  17
ATOM     17  O   UNL     1      45.817   6.853  12.349  0.00  0.00    +0.000 OA
BRANCH  17  22
ATOM     18  C   UNL     1      44.266   4.027  10.524  0.00  0.00    +0.000 A 
ATOM     19  C   UNL     1      43.212   3.826  11.404  0.00  0.00    +0.000 A 
ATOM     20  N   UNL     1      43.037   4.543  12.539  0.00  0.00    +0.000 NA
ATOM     21  C   UNL     1      43.948   5.515  12.774  0.00  0.00    +0.000 A 
ATOM     22  C   UNL     1      45.024   5.817  11.944  0.00  0.00    +0.000 A 
ATOM     23  C   UNL     1      45.186   5.050  10.789  0.00  0.00    +0.000 A 
BRANCH  18  25
ATOM     24  N   UNL     1      44.382   3.792   8.113  0.00  0.00    +0.000 N 
ATOM     25  C   UNL     1      44.359   3.167   9.329  0.00  0.00    +0.000 C 
ATOM     26  O   UNL     1      44.454   1.950   9.421  0.00  0.00    +0.000 OA
ATOM     27  H   UNL     1      44.566   3.190   7.315  0.00  0.00    +0.000 HD
ATOM     28  H   UNL     1      44.597   4.768   8.012  0.00  0.00    +0.000 HD
ENDBRANCH  18  25
ENDBRANCH  17  22
ENDBRANCH  16  17
ENDBRANCH   1  16
TORSDOF 5
ENDMDL
MODEL 5
REMARK VINA RESULT:    -6.823      3.551      7.152
REMARK INTER + INTRA:          -9.394
REMARK INTER:                  -8.535
REMARK INTRA:                  -0.859
REMARK UNBOUND:                -0.576
REMARK  Name = 
REMARK  5 active torsions:
REMARK  status: ('A' for Active; 'I' for Inactive)
REMARK    1  A    between atoms: C_2  and  C_4
REMARK    2  A    between atoms: C_8  and  O_9
REMARK    3  A    between atoms: O_9  and  C_10
REMARK    4  A    between atoms: C_10  and  C_11
REMARK    5  A    between atoms: C_16  and  C_17
REMARK                            x       y       z     vdW  Elec       q    Type
REMARK                         _______ _______ _______ _____ _____    ______ ____
ROOT
ATOM      1  C   UNL     1      47.533   6.546  12.869  0.00  0.00    +0.000 A 
ATOM      2  C   UNL     1      47.582   5.871  14.083  0.00  0.00    +0.000 A 
ATOM      3  F   UNL     1      48.369   6.322  15.068  0.00  0.00    +0.000 F 
ATOM      4  C   UNL     1      46.817   4.732  14.304  0.00  0.00    +0.000 A 
ATOM      5  C   UNL     1      45.918   4.292  13.330  0.00  0.00    +0.000 A 
ATOM      6  C   UNL     1      45.728   5.038  12.163  0.00  0.00    +0.000 A 
ATOM      7  C   UNL     1      46.595   6.125  11.926  0.00  0.00    +0.000 A 
ATOM      8  F   UNL     1      46.472   6.822  10.785  0.00  0.00    +0.000 F 
ENDROOT
BRANCH   6   9
ATOM      9  C   UNL     1      44.507   4.890  11.262  0.00  0.00    +0.000 C 
ATOM     10  C   UNL     1      43.393   4.189  12.071  0.00  0.00    +0.000 C 
ATOM     11  C   UNL     1      43.530   2.666  12.061  0.00  0.00    +0.000 C 
ATOM     12  N   UNL     1      43.535   2.137  10.699  0.00  0.00    +0.000 NA
ATOM     13  C   UNL     1      44.642   2.680   9.917  0.00  0.00    +0.000 C 
ATOM     14  C   UNL     1      44.664   4.209   9.889  0.00  0.00    +0.000 C 
ATOM     15  H   UNL     1      42.651   2.375  10.247  0.00  0.00    +0.000 HD
ENDBRANCH   6   9
BRANCH   1  16
ATOM     16  C   UNL     1      48.400   7.740  12.619  0.00  0.00    +0.000 C 
BRANCH  16  17
ATOM     17  O   UNL     1      47.801   8.861  13.265  0.00  0.00    +0.000 OA
BRANCH  17  22
ATOM     18  C   UNL     1      44.986  10.508  11.509  0.00  0.00    +0.000 A 
ATOM     19  C   UNL     1      45.746  11.453  10.835  0.00  0.00    +0.000 A 
ATOM     20  N   UNL     1      47.088  11.570  10.972  0.00  0.00    +0.000 NA
ATOM     21  C   UNL     1      47.681  10.678  11.799  0.00  0.00    +0.000 A 
ATOM     22  C   UNL     1      47.017   9.675  12.498  0.00  0.00    +0.000 A 
ATOM     23  C   UNL     1      45.631   9.590  12.348  0.00  0.00    +0.000 A 
BRANCH  18  25
ATOM     24  N   UNL     1      43.045   9.612  10.363  0.00  0.00    +0.000 N 
ATOM     25  C   UNL     1      43.527  10.493  11.291  0.00  0.00    +0.000 C 
ATOM     26  O   UNL     1      42.775  11.207  11.941  0.00  0.00    +0.000 OA
ATOM     27  H   UNL     1      42.032   9.535  10.316  0.00  0.00    +0.000 HD
ATOM     28  H   UNL     1      43.581   8.828  10.033  0.00  0.00    +0.000 HD
ENDBRANCH  18  25
ENDBRANCH  17  22
ENDBRANCH  16  17
ENDBRANCH   1  16
TORSDOF 5
ENDMDL
MODEL 6
REMARK VINA RESULT:    -6.640      3.806      5.345
REMARK INTER + INTRA:          -9.157
REMARK INTER:                  -8.449
REMARK INTRA:                  -0.708
REMARK UNBOUND:                -0.576
REMARK  Name = 
REMARK  5 active torsions:
REMARK  status: ('A' for Active; 'I' for Inactive)
REMARK    1  A    between atoms: C_2  and  C_4
REMARK    2  A    between atoms: C_8  and  O_9
REMARK    3  A    between atoms: O_9  and  C_10
REMARK    4  A    between atoms: C_10  and  C_11
REMARK    5  A    between atoms: C_16  and  C_17
REMARK                            x       y       z     vdW  Elec       q    Type
REMARK                         _______ _______ _______ _____ _____    ______ ____
ROOT
ATOM      1  C   UNL     1      47.630   4.809  14.933  0.00  0.00    +0.000 A 
ATOM      2  C   UNL     1      48.076   6.053  14.501  0.00  0.00    +0.000 A 
ATOM      3  F   UNL     1      47.811   6.462  13.253  0.00  0.00    +0.000 F 
ATOM      4  C   UNL     1      48.787   6.895  15.347  0.00  0.00    +0.000 A 
ATOM      5  C   UNL     1      48.997   6.535  16.679  0.00  0.00    +0.000 A 
ATOM      6  C   UNL     1      48.426   5.365  17.188  0.00  0.00    +0.000 A 
ATOM      7  C   UNL     1      47.803   4.486  16.279  0.00  0.00    +0.000 A 
ATOM      8  F   UNL     1      47.298   3.328  16.733  0.00  0.00    +0.000 F 
ENDROOT
BRANCH   6   9
ATOM      9  C   UNL     1      48.236   5.103  18.679  0.00  0.00    +0.000 C 
ATOM     10  C   UNL     1      47.060   5.974  19.174  0.00  0.00    +0.000 C 
ATOM     11  C   UNL     1      47.491   7.398  19.524  0.00  0.00    +0.000 C 
ATOM     12  N   UNL     1      48.548   7.406  20.533  0.00  0.00    +0.000 NA
ATOM     13  C   UNL     1      49.735   6.692  20.071  0.00  0.00    +0.000 C 
ATOM     14  C   UNL     1      49.438   5.258  19.628  0.00  0.00    +0.000 C 
ATOM     15  H   UNL     1      48.198   6.967  21.385  0.00  0.00    +0.000 HD
ENDBRANCH   6   9
BRANCH   1  16
ATOM     16  C   UNL     1      46.911   3.885  14.001  0.00  0.00    +0.000 C 
BRANCH  16  17
ATOM     17  O   UNL     1      45.534   4.251  13.995  0.00  0.00    +0.000 OA
BRANCH  17  22
ATOM     18  C   UNL     1      44.498   3.731  10.477  0.00  0.00    +0.000 A 
ATOM     19  C   UNL     1      43.449   4.640  10.481  0.00  0.00    +0.000 A 
ATOM     20  N   UNL     1      43.080   5.352  11.572  0.00  0.00    +0.000 NA
ATOM     21  C   UNL     1      43.819   5.154  12.689  0.00  0.00    +0.000 A 
ATOM     22  C   UNL     1      44.905   4.289  12.783  0.00  0.00    +0.000 A 
ATOM     23  C   UNL     1      45.251   3.558  11.645  0.00  0.00    +0.000 A 
BRANCH  18  25
ATOM     24  N   UNL     1      44.317   3.541   8.066  0.00  0.00    +0.000 N 
ATOM     25  C   UNL     1      44.791   3.001   9.229  0.00  0.00    +0.000 C 
ATOM     26  O   UNL     1      45.467   1.980   9.228  0.00  0.00    +0.000 OA
ATOM     27  H   UNL     1      44.631   3.087   7.212  0.00  0.00    +0.000 HD
ATOM     28  H   UNL     1      44.023   4.499   7.995  0.00  0.00    +0.000 HD
ENDBRANCH  18  25
ENDBRANCH  17  22
ENDBRANCH  16  17
ENDBRANCH   1  16
TORSDOF 5
ENDMDL
MODEL 7
REMARK VINA RESULT:    -6.331      3.740      5.036
REMARK INTER + INTRA:          -8.758
REMARK INTER:                  -8.153
REMARK INTRA:                  -0.605
REMARK UNBOUND:                -0.576
REMARK  Name = 
REMARK  5 active torsions:
REMARK  status: ('A' for Active; 'I' for Inactive)
REMARK    1  A    between atoms: C_2  and  C_4
REMARK    2  A    between atoms: C_8  and  O_9
REMARK    3  A    between atoms: O_9  and  C_10
REMARK    4  A    between atoms: C_10  and  C_11
REMARK    5  A    between atoms: C_16  and  C_17
REMARK                            x       y       z     vdW  Elec       q    Type
REMARK                         _______ _______ _______ _____ _____    ______ ____
ROOT
ATOM      1  C   UNL     1      47.693   5.340  14.804  0.00  0.00    +0.000 A 
ATOM      2  C   UNL     1      47.405   3.996  15.012  0.00  0.00    +0.000 A 
ATOM      3  F   UNL     1      47.087   3.212  13.974  0.00  0.00    +0.000 F 
ATOM      4  C   UNL     1      47.452   3.439  16.284  0.00  0.00    +0.000 A 
ATOM      5  C   UNL     1      47.871   4.209  17.371  0.00  0.00    +0.000 A 
ATOM      6  C   UNL     1      48.319   5.518  17.171  0.00  0.00    +0.000 A 
ATOM      7  C   UNL     1      48.158   6.082  15.889  0.00  0.00    +0.000 A 
ATOM      8  F   UNL     1      48.527   7.357  15.686  0.00  0.00    +0.000 F 
ENDROOT
BRANCH   6   9
ATOM      9  C   UNL     1      49.173   6.276  18.183  0.00  0.00    +0.000 C 
ATOM     10  C   UNL     1      49.111   5.520  19.528  0.00  0.00    +0.000 C 
ATOM     11  C   UNL     1      47.880   5.892  20.355  0.00  0.00    +0.000 C 
ATOM     12  N   UNL     1      47.822   7.329  20.613  0.00  0.00    +0.000 NA
ATOM     13  C   UNL     1      47.760   8.094  19.371  0.00  0.00    +0.000 C 
ATOM     14  C   UNL     1      48.910   7.776  18.413  0.00  0.00    +0.000 C 
ATOM     15  H   UNL     1      48.649   7.606  21.142  0.00  0.00    +0.000 HD
ENDBRANCH   6   9
BRANCH   1  16
ATOM     16  C   UNL     1      47.589   5.945  13.439  0.00  0.00    +0.000 C 
BRANCH  16  17
ATOM     17  O   UNL     1      46.249   6.394  13.257  0.00  0.00    +0.000 OA
BRANCH  17  22
ATOM     18  C   UNL     1      44.889   4.725  10.243  0.00  0.00    +0.000 A 
ATOM     19  C   UNL     1      43.677   4.346  10.801  0.00  0.00    +0.000 A 
ATOM     20  N   UNL     1      43.337   4.588  12.089  0.00  0.00    +0.000 NA
ATOM     21  C   UNL     1      44.250   5.262  12.828  0.00  0.00    +0.000 A 
ATOM     22  C   UNL     1      45.481   5.712  12.358  0.00  0.00    +0.000 A 
ATOM     23  C   UNL     1      45.807   5.433  11.030  0.00  0.00    +0.000 A 
BRANCH  18  25
ATOM     24  N   UNL     1      44.324   3.467   8.248  0.00  0.00    +0.000 N 
ATOM     25  C   UNL     1      45.150   4.387   8.831  0.00  0.00    +0.000 C 
ATOM     26  O   UNL     1      46.040   4.936   8.195  0.00  0.00    +0.000 OA
ATOM     27  H   UNL     1      44.447   3.340   7.247  0.00  0.00    +0.000 HD
ATOM     28  H   UNL     1      43.429   3.222   8.636  0.00  0.00    +0.000 HD
ENDBRANCH  18  25
ENDBRANCH  17  22
ENDBRANCH  16  17
ENDBRANCH   1  16
TORSDOF 5
ENDMDL
MODEL 8
REMARK VINA RESULT:    -6.293      4.115      5.685
REMARK INTER + INTRA:          -8.709
REMARK INTER:                  -8.282
REMARK INTRA:                  -0.427
REMARK UNBOUND:                -0.576
REMARK  Name = 
REMARK  5 active torsions:
REMARK  status: ('A' for Active; 'I' for Inactive)
REMARK    1  A    between atoms: C_2  and  C_4
REMARK    2  A    between atoms: C_8  and  O_9
REMARK    3  A    between atoms: O_9  and  C_10
REMARK    4  A    between atoms: C_10  and  C_11
REMARK    5  A    between atoms: C_16  and  C_17
REMARK                            x       y       z     vdW  Elec       q    Type
REMARK                         _______ _______ _______ _____ _____    ______ ____
ROOT
ATOM      1  C   UNL     1      45.976   8.589  11.895  0.00  0.00    +0.000 A 
ATOM      2  C   UNL     1      46.828   9.656  12.159  0.00  0.00    +0.000 A 
ATOM      3  F   UNL     1      48.105   9.425  12.493  0.00  0.00    +0.000 F 
ATOM      4  C   UNL     1      46.384  10.969  12.075  0.00  0.00    +0.000 A 
ATOM      5  C   UNL     1      45.086  11.243  11.640  0.00  0.00    +0.000 A 
ATOM      6  C   UNL     1      44.255  10.202  11.214  0.00  0.00    +0.000 A 
ATOM      7  C   UNL     1      44.700   8.879  11.414  0.00  0.00    +0.000 A 
ATOM      8  F   UNL     1      43.896   7.861  11.068  0.00  0.00    +0.000 F 
ENDROOT
BRANCH   6   9
ATOM      9  C   UNL     1      43.019  10.416  10.347  0.00  0.00    +0.000 C 
ATOM     10  C   UNL     1      43.018  11.883   9.864  0.00  0.00    +0.000 C 
ATOM     11  C   UNL     1      42.409  12.839  10.890  0.00  0.00    +0.000 C 
ATOM     12  N   UNL     1      41.044  12.451  11.240  0.00  0.00    +0.000 NA
ATOM     13  C   UNL     1      40.998  11.109  11.812  0.00  0.00    +0.000 C 
ATOM     14  C   UNL     1      41.633  10.049  10.910  0.00  0.00    +0.000 C 
ATOM     15  H   UNL     1      40.464  12.482  10.401  0.00  0.00    +0.000 HD
ENDBRANCH   6   9
BRANCH   1  16
ATOM     16  C   UNL     1      46.447   7.176  12.041  0.00  0.00    +0.000 C 
BRANCH  16  17
ATOM     17  O   UNL     1      45.515   6.484  12.867  0.00  0.00    +0.000 OA
BRANCH  17  22
ATOM     18  C   UNL     1      44.496   3.637  10.727  0.00  0.00    +0.000 A 
ATOM     19  C   UNL     1      43.709   2.997  11.673  0.00  0.00    +0.000 A 
ATOM     20  N   UNL     1      43.548   3.446  12.940  0.00  0.00    +0.000 NA
ATOM     21  C   UNL     1      44.186   4.600  13.248  0.00  0.00    +0.000 A 
ATOM     22  C   UNL     1      44.975   5.333  12.367  0.00  0.00    +0.000 A 
ATOM     23  C   UNL     1      45.134   4.836  11.072  0.00  0.00    +0.000 A 
BRANCH  18  25
ATOM     24  N   UNL     1      44.208   3.806   8.325  0.00  0.00    +0.000 N 
ATOM     25  C   UNL     1      44.608   3.039   9.383  0.00  0.00    +0.000 C 
ATOM     26  O   UNL     1      45.077   1.920   9.217  0.00  0.00    +0.000 OA
ATOM     27  H   UNL     1      44.405   3.420   7.405  0.00  0.00    +0.000 HD
ATOM     28  H   UNL     1      44.099   4.803   8.391  0.00  0.00    +0.000 HD
ENDBRANCH  18  25
ENDBRANCH  17  22
ENDBRANCH  16  17
ENDBRANCH   1  16
TORSDOF 5
ENDMDL
MODEL 9
REMARK VINA RESULT:    -6.230      4.290      6.063
REMARK INTER + INTRA:          -8.627
REMARK INTER:                  -7.895
REMARK INTRA:                  -0.732
REMARK UNBOUND:                -0.576
REMARK  Name = 
REMARK  5 active torsions:
REMARK  status: ('A' for Active; 'I' for Inactive)
REMARK    1  A    between atoms: C_2  and  C_4
REMARK    2  A    between atoms: C_8  and  O_9
REMARK    3  A    between atoms: O_9  and  C_10
REMARK    4  A    between atoms: C_10  and  C_11
REMARK    5  A    between atoms: C_16  and  C_17
REMARK                            x       y       z     vdW  Elec       q    Type
REMARK                         _______ _______ _______ _____ _____    ______ ____
ROOT
ATOM      1  C   UNL     1      48.432   3.976  16.643  0.00  0.00    +0.000 A 
ATOM      2  C   UNL     1      49.216   2.854  16.881  0.00  0.00    +0.000 A 
ATOM      3  F   UNL     1      48.823   1.655  16.431  0.00  0.00    +0.000 F 
ATOM      4  C   UNL     1      50.417   2.949  17.574  0.00  0.00    +0.000 A 
ATOM      5  C   UNL     1      50.897   4.197  17.973  0.00  0.00    +0.000 A 
ATOM      6  C   UNL     1      50.213   5.362  17.611  0.00  0.00    +0.000 A 
ATOM      7  C   UNL     1      48.949   5.221  17.003  0.00  0.00    +0.000 A 
ATOM      8  F   UNL     1      48.244   6.322  16.698  0.00  0.00    +0.000 F 
ENDROOT
BRANCH   6   9
ATOM      9  C   UNL     1      50.849   6.748  17.622  0.00  0.00    +0.000 C 
ATOM     10  C   UNL     1      51.569   6.957  16.271  0.00  0.00    +0.000 C 
ATOM     11  C   UNL     1      52.976   6.359  16.257  0.00  0.00    +0.000 C 
ATOM     12  N   UNL     1      53.803   6.909  17.328  0.00  0.00    +0.000 NA
ATOM     13  C   UNL     1      53.228   6.638  18.642  0.00  0.00    +0.000 C 
ATOM     14  C   UNL     1      51.787   7.134  18.780  0.00  0.00    +0.000 C 
ATOM     15  H   UNL     1      53.890   7.917  17.197  0.00  0.00    +0.000 HD
ENDBRANCH   6   9
BRANCH   1  16
ATOM     16  C   UNL     1      47.114   3.858  15.943  0.00  0.00    +0.000 C 
BRANCH  16  17
ATOM     17  O   UNL     1      47.365   3.468  14.596  0.00  0.00    +0.000 OA
BRANCH  17  22
ATOM     18  C   UNL     1      45.138   4.708  11.908  0.00  0.00    +0.000 A 
ATOM     19  C   UNL     1      45.822   5.890  11.664  0.00  0.00    +0.000 A 
ATOM     20  N   UNL     1      46.920   6.276  12.356  0.00  0.00    +0.000 NA
ATOM     21  C   UNL     1      47.353   5.419  13.310  0.00  0.00    +0.000 A 
ATOM     22  C   UNL     1      46.759   4.198  13.614  0.00  0.00    +0.000 A 
ATOM     23  C   UNL     1      45.620   3.835  12.893  0.00  0.00    +0.000 A 
BRANCH  18  25
ATOM     24  N   UNL     1      43.251   5.470  10.589  0.00  0.00    +0.000 N 
ATOM     25  C   UNL     1      43.943   4.406  11.098  0.00  0.00    +0.000 C 
ATOM     26  O   UNL     1      43.607   3.254  10.855  0.00  0.00    +0.000 OA
ATOM     27  H   UNL     1      42.505   5.237   9.939  0.00  0.00    +0.000 HD
ATOM     28  H   UNL     1      43.649   6.390  10.521  0.00  0.00    +0.000 HD
ENDBRANCH  18  25
ENDBRANCH  17  22
ENDBRANCH  16  17
ENDBRANCH   1  16
TORSDOF 5
ENDMDL
