MODEL 1
REMARK VINA RESULT:    -7.743      0.000      0.000
REMARK INTER + INTRA:         -12.751
REMARK INTER:                 -11.591
REMARK INTRA:                  -1.160
REMARK UNBOUND:                -1.160
REMARK  Name = 
REMARK  9 active torsions:
REMARK  status: ('A' for Active; 'I' for Inactive)
REMARK    1  A    between atoms: C_2  and  C_22
REMARK    2  A    between atoms: N_3  and  C_4
REMARK    3  A    between atoms: C_4  and  C_5
REMARK    4  A    between atoms: C_8  and  C_9
REMARK    5  A    between atoms: C_9  and  N_10
REMARK    6  A    between atoms: N_10  and  CA_11
REMARK    7  A    between atoms: CA_11  and  C_12
REMARK    8  A    between atoms: CA_11  and  C_14
REMARK    9  A    between atoms: C_12  and  O_13
REMARK                            x       y       z     vdW  Elec       q    Type
REMARK                         _______ _______ _______ _____ _____    ______ ____
ROOT
ATOM      1  C   UNL     1      47.429   5.894  14.087  0.00  0.00    +0.000 A 
ATOM      2  C   UNL     1      46.555   6.551  13.210  0.00  0.00    +0.000 A 
ATOM      3  C   UNL     1      45.632   5.828  12.447  0.00  0.00    +0.000 A 
ATOM      4  C   UNL     1      45.555   4.432  12.553  0.00  0.00    +0.000 A 
ATOM      5  C   UNL     1      46.410   3.780  13.454  0.00  0.00    +0.000 A 
ATOM      6  C   UNL     1      47.333   4.502  14.214  0.00  0.00    +0.000 A 
ENDROOT
BRANCH   1   7
ATOM      7  C   UNL     1      48.374   6.680  14.963  0.00  0.00    +0.000 C 
BRANCH   7  10
ATOM      8  O   UNL     1      48.151   6.817  17.829  0.00  0.00    +0.000 OA
ATOM      9  C   UNL     1      48.872   5.987  17.287  0.00  0.00    +0.000 C 
ATOM     10  N   UNL     1      48.960   5.796  15.926  0.00  0.00    +0.000 N 
ATOM     11  H   UNL     1      49.731   5.230  15.581  0.00  0.00    +0.000 HD
BRANCH   9  12
ATOM     12  C   UNL     1      49.898   5.226  17.984  0.00  0.00    +0.000 A 
ATOM     13  C   UNL     1      50.860   5.819  18.785  0.00  0.00    +0.000 A 
ATOM     14  S   UNL     1      52.226   4.800  18.994  0.00  0.00    +0.000 S 
ATOM     15  C   UNL     1      51.483   3.529  18.132  0.00  0.00    +0.000 A 
ATOM     16  N   UNL     1      52.144   2.392  17.785  0.00  0.00    +0.000 NA
ATOM     17  C   UNL     1      51.411   1.521  17.171  0.00  0.00    +0.000 A 
ATOM     18  N   UNL     1      50.068   1.655  16.920  0.00  0.00    +0.000 N 
ATOM     19  C   UNL     1      49.352   2.777  17.273  0.00  0.00    +0.000 A 
ATOM     20  O   UNL     1      48.138   2.848  17.123  0.00  0.00    +0.000 OA
ATOM     21  C   UNL     1      50.172   3.827  17.835  0.00  0.00    +0.000 A 
ATOM     22  H   UNL     1      49.534   0.899  16.518  0.00  0.00    +0.000 HD
ENDBRANCH   9  12
ENDBRANCH   7  10
ENDBRANCH   1   7
BRANCH   4  23
ATOM     23  C   UNL     1      44.549   3.631  11.759  0.00  0.00    +0.000 C 
BRANCH  23  24
ATOM     24  N   UNL     1      45.098   2.776  10.714  0.00  0.00    +0.000 NA
ATOM     25  H   UNL     1      44.920   1.796  10.932  0.00  0.00    +0.000 HD
BRANCH  24  26
ATOM     26  CA  UNL     1      44.593   3.027   9.335  0.00  0.00    +0.000 C 
BRANCH  26  27
ATOM     27  C   UNL     1      45.576   2.526   8.262  0.00  0.00    +0.000 A 
ATOM     28  N   UNL     1      45.849   3.348   7.229  0.00  0.00    +0.000 NA
ATOM     29  C   UNL     1      46.723   2.888   6.311  0.00  0.00    +0.000 A 
ATOM     30  C   UNL     1      47.322   1.654   6.379  0.00  0.00    +0.000 A 
ATOM     31  C   UNL     1      46.974   0.886   7.462  0.00  0.00    +0.000 A 
ATOM     32  N   UNL     1      46.108   1.289   8.410  0.00  0.00    +0.000 NA
ENDBRANCH  26  27
BRANCH  26  33
ATOM     33  C   UNL     1      44.297   4.518   9.059  0.00  0.00    +0.000 C 
BRANCH  33  34
ATOM     34  O   UNL     1      45.474   5.332   9.084  0.00  0.00    +0.000 OA
ATOM     35  H   UNL     1      46.200   4.764   8.760  0.00  0.00    +0.000 HD
ENDBRANCH  33  34
ENDBRANCH  26  33
ENDBRANCH  24  26
ENDBRANCH  23  24
ENDBRANCH   4  23
TORSDOF 9
ENDMDL
MODEL 2
REMARK VINA RESULT:    -7.707      2.295      2.753
REMARK INTER + INTRA:         -12.697
REMARK INTER:                 -11.798
REMARK INTRA:                  -0.899
REMARK UNBOUND:                -1.160
REMARK  Name = 
REMARK  9 active torsions:
REMARK  status: ('A' for Active; 'I' for Inactive)
REMARK    1  A    between atoms: C_2  and  C_22
REMARK    2  A    between atoms: N_3  and  C_4
REMARK    3  A    between atoms: C_4  and  C_5
REMARK    4  A    between atoms: C_8  and  C_9
REMARK    5  A    between atoms: C_9  and  N_10
REMARK    6  A    between atoms: N_10  and  CA_11
REMARK    7  A    between atoms: CA_11  and  C_12
REMARK    8  A    between atoms: CA_11  and  C_14
REMARK    9  A    between atoms: C_12  and  O_13
REMARK                            x       y       z     vdW  Elec       q    Type
REMARK                         _______ _______ _______ _____ _____    ______ ____
ROOT
ATOM      1  C   UNL     1      46.930   7.866  12.954  0.00  0.00    +0.000 A 
ATOM      2  C   UNL     1      46.104   8.664  12.152  0.00  0.00    +0.000 A 
ATOM      3  C   UNL     1      44.918   8.150  11.614  0.00  0.00    +0.000 A 
ATOM      4  C   UNL     1      44.528   6.830  11.878  0.00  0.00    +0.000 A 
ATOM      5  C   UNL     1      45.342   6.043  12.706  0.00  0.00    +0.000 A 
ATOM      6  C   UNL     1      46.526   6.556  13.242  0.00  0.00    +0.000 A 
ENDROOT
BRANCH   1   7
ATOM      7  C   UNL     1      48.171   8.443  13.593  0.00  0.00    +0.000 C 
BRANCH   7  10
ATOM      8  O   UNL     1      50.063   6.837  15.051  0.00  0.00    +0.000 OA
ATOM      9  C   UNL     1      49.059   7.286  15.593  0.00  0.00    +0.000 C 
ATOM     10  N   UNL     1      48.159   8.137  14.993  0.00  0.00    +0.000 N 
ATOM     11  H   UNL     1      47.267   8.282  15.460  0.00  0.00    +0.000 HD
BRANCH   9  12
ATOM     12  C   UNL     1      48.557   6.822  16.878  0.00  0.00    +0.000 A 
ATOM     13  C   UNL     1      48.452   7.645  17.985  0.00  0.00    +0.000 A 
ATOM     14  S   UNL     1      48.392   6.741  19.444  0.00  0.00    +0.000 S 
ATOM     15  C   UNL     1      48.375   5.262  18.594  0.00  0.00    +0.000 A 
ATOM     16  N   UNL     1      48.484   4.057  19.216  0.00  0.00    +0.000 NA
ATOM     17  C   UNL     1      48.410   3.042  18.417  0.00  0.00    +0.000 A 
ATOM     18  N   UNL     1      48.181   3.115  17.065  0.00  0.00    +0.000 N 
ATOM     19  C   UNL     1      48.039   4.311  16.397  0.00  0.00    +0.000 A 
ATOM     20  O   UNL     1      47.748   4.361  15.208  0.00  0.00    +0.000 OA
ATOM     21  C   UNL     1      48.258   5.467  17.238  0.00  0.00    +0.000 A 
ATOM     22  H   UNL     1      48.042   2.282  16.513  0.00  0.00    +0.000 HD
ENDBRANCH   9  12
ENDBRANCH   7  10
ENDBRANCH   1   7
BRANCH   4  23
ATOM     23  C   UNL     1      43.240   6.260  11.331  0.00  0.00    +0.000 C 
BRANCH  23  24
ATOM     24  N   UNL     1      43.383   5.228  10.312  0.00  0.00    +0.000 NA
ATOM     25  H   UNL     1      43.759   5.631   9.454  0.00  0.00    +0.000 HD
BRANCH  24  26
ATOM     26  CA  UNL     1      44.243   4.067  10.676  0.00  0.00    +0.000 C 
BRANCH  26  27
ATOM     27  C   UNL     1      45.027   3.530   9.466  0.00  0.00    +0.000 A 
ATOM     28  N   UNL     1      45.454   4.422   8.550  0.00  0.00    +0.000 NA
ATOM     29  C   UNL     1      46.150   3.926   7.507  0.00  0.00    +0.000 A 
ATOM     30  C   UNL     1      46.426   2.591   7.341  0.00  0.00    +0.000 A 
ATOM     31  C   UNL     1      45.942   1.760   8.320  0.00  0.00    +0.000 A 
ATOM     32  N   UNL     1      45.241   2.195   9.384  0.00  0.00    +0.000 NA
ENDBRANCH  26  27
BRANCH  26  33
ATOM     33  C   UNL     1      43.450   2.894  11.295  0.00  0.00    +0.000 C 
BRANCH  33  34
ATOM     34  O   UNL     1      44.086   2.343  12.453  0.00  0.00    +0.000 OA
ATOM     35  H   UNL     1      45.002   2.137  12.183  0.00  0.00    +0.000 HD
ENDBRANCH  33  34
ENDBRANCH  26  33
ENDBRANCH  24  26
ENDBRANCH  23  24
ENDBRANCH   4  23
TORSDOF 9
ENDMDL
MODEL 3
REMARK VINA RESULT:    -7.705      2.358      2.733
REMARK INTER + INTRA:         -12.693
REMARK INTER:                 -11.446
REMARK INTRA:                  -1.247
REMARK UNBOUND:                -1.160
REMARK  Name = 
REMARK  9 active torsions:
REMARK  status: ('A' for Active; 'I' for Inactive)
REMARK    1  A    between atoms: C_2  and  C_22
REMARK    2  A    between atoms: N_3  and  C_4
REMARK    3  A    between atoms: C_4  and  C_5
REMARK    4  A    between atoms: C_8  and  C_9
REMARK    5  A    between atoms: C_9  and  N_10
REMARK    6  A    between atoms: N_10  and  CA_11
REMARK    7  A    between atoms: CA_11  and  C_12
REMARK    8  A    between atoms: CA_11  and  C_14
REMARK    9  A    between atoms: C_12  and  O_13
REMARK                            x       y       z     vdW  Elec       q    Type
REMARK                         _______ _______ _______ _____ _____    ______ ____
ROOT
ATOM      1  C   UNL     1      46.798   7.777  12.471  0.00  0.00    +0.000 A 
ATOM      2  C   UNL     1      45.463   7.818  12.893  0.00  0.00    +0.000 A 
ATOM      3  C   UNL     1      44.501   6.990  12.301  0.00  0.00    +0.000 A 
ATOM      4  C   UNL     1      44.858   6.096  11.282  0.00  0.00    +0.000 A 
ATOM      5  C   UNL     1      46.201   6.036  10.883  0.00  0.00    +0.000 A 
ATOM      6  C   UNL     1      47.160   6.863  11.472  0.00  0.00    +0.000 A 
ENDROOT
BRANCH   1   7
ATOM      7  C   UNL     1      47.848   8.616  13.158  0.00  0.00    +0.000 C 
BRANCH   7  10
ATOM      8  O   UNL     1      49.986   7.054  14.286  0.00  0.00    +0.000 OA
ATOM      9  C   UNL     1      49.000   7.353  14.949  0.00  0.00    +0.000 C 
ATOM     10  N   UNL     1      47.983   8.174  14.515  0.00  0.00    +0.000 N 
ATOM     11  H   UNL     1      47.126   8.190  15.062  0.00  0.00    +0.000 HD
BRANCH   9  12
ATOM     12  C   UNL     1      48.650   6.721  16.213  0.00  0.00    +0.000 A 
ATOM     13  C   UNL     1      48.977   7.267  17.442  0.00  0.00    +0.000 A 
ATOM     14  S   UNL     1      48.967   6.082  18.685  0.00  0.00    +0.000 S 
ATOM     15  C   UNL     1      48.404   4.880  17.614  0.00  0.00    +0.000 A 
ATOM     16  N   UNL     1      48.315   3.568  17.964  0.00  0.00    +0.000 NA
ATOM     17  C   UNL     1      47.827   2.807  17.038  0.00  0.00    +0.000 A 
ATOM     18  N   UNL     1      47.370   3.239  15.818  0.00  0.00    +0.000 N 
ATOM     19  C   UNL     1      47.418   4.560  15.430  0.00  0.00    +0.000 A 
ATOM     20  O   UNL     1      46.926   4.946  14.376  0.00  0.00    +0.000 OA
ATOM     21  C   UNL     1      48.086   5.415  16.385  0.00  0.00    +0.000 A 
ATOM     22  H   UNL     1      46.917   2.607  15.176  0.00  0.00    +0.000 HD
ENDBRANCH   9  12
ENDBRANCH   7  10
ENDBRANCH   1   7
BRANCH   4  23
ATOM     23  C   UNL     1      43.843   5.174  10.646  0.00  0.00    +0.000 C 
BRANCH  23  24
ATOM     24  N   UNL     1      44.260   4.525   9.409  0.00  0.00    +0.000 NA
ATOM     25  H   UNL     1      44.870   5.144   8.876  0.00  0.00    +0.000 HD
BRANCH  24  26
ATOM     26  CA  UNL     1      44.969   3.223   9.564  0.00  0.00    +0.000 C 
BRANCH  26  27
ATOM     27  C   UNL     1      45.817   2.879   8.328  0.00  0.00    +0.000 A 
ATOM     28  N   UNL     1      46.040   3.858   7.428  0.00  0.00    +0.000 NA
ATOM     29  C   UNL     1      46.797   3.533   6.361  0.00  0.00    +0.000 A 
ATOM     30  C   UNL     1      47.327   2.282   6.155  0.00  0.00    +0.000 A 
ATOM     31  C   UNL     1      47.037   1.350   7.120  0.00  0.00    +0.000 A 
ATOM     32  N   UNL     1      46.287   1.615   8.206  0.00  0.00    +0.000 NA
ENDBRANCH  26  27
BRANCH  26  33
ATOM     33  C   UNL     1      44.012   2.040   9.837  0.00  0.00    +0.000 C 
BRANCH  33  34
ATOM     34  O   UNL     1      43.555   1.996  11.192  0.00  0.00    +0.000 OA
ATOM     35  H   UNL     1      44.332   2.211  11.744  0.00  0.00    +0.000 HD
ENDBRANCH  33  34
ENDBRANCH  26  33
ENDBRANCH  24  26
ENDBRANCH  23  24
ENDBRANCH   4  23
TORSDOF 9
ENDMDL
MODEL 4
REMARK VINA RESULT:    -7.579      1.676      2.114
REMARK INTER + INTRA:         -12.505
REMARK INTER:                 -11.458
REMARK INTRA:                  -1.047
REMARK UNBOUND:                -1.160
REMARK  Name = 
REMARK  9 active torsions:
REMARK  status: ('A' for Active; 'I' for Inactive)
REMARK    1  A    between atoms: C_2  and  C_22
REMARK    2  A    between atoms: N_3  and  C_4
REMARK    3  A    between atoms: C_4  and  C_5
REMARK    4  A    between atoms: C_8  and  C_9
REMARK    5  A    between atoms: C_9  and  N_10
REMARK    6  A    between atoms: N_10  and  CA_11
REMARK    7  A    between atoms: CA_11  and  C_12
REMARK    8  A    between atoms: CA_11  and  C_14
REMARK    9  A    between atoms: C_12  and  O_13
REMARK                            x       y       z     vdW  Elec       q    Type
REMARK                         _______ _______ _______ _____ _____    ______ ____
ROOT
ATOM      1  C   UNL     1      47.148   7.203  13.223  0.00  0.00    +0.000 A 
ATOM      2  C   UNL     1      46.529   6.008  13.612  0.00  0.00    +0.000 A 
ATOM      3  C   UNL     1      45.326   5.602  13.024  0.00  0.00    +0.000 A 
ATOM      4  C   UNL     1      44.722   6.378  12.024  0.00  0.00    +0.000 A 
ATOM      5  C   UNL     1      45.360   7.558  11.615  0.00  0.00    +0.000 A 
ATOM      6  C   UNL     1      46.560   7.964  12.204  0.00  0.00    +0.000 A 
ENDROOT
BRANCH   1   7
ATOM      7  C   UNL     1      48.482   7.604  13.805  0.00  0.00    +0.000 C 
BRANCH   7  10
ATOM      8  O   UNL     1      48.523   8.194  16.622  0.00  0.00    +0.000 OA
ATOM      9  C   UNL     1      48.887   7.104  16.196  0.00  0.00    +0.000 C 
ATOM     10  N   UNL     1      48.808   6.711  14.878  0.00  0.00    +0.000 N 
ATOM     11  H   UNL     1      49.320   5.876  14.606  0.00  0.00    +0.000 HD
BRANCH   9  12
ATOM     12  C   UNL     1      49.649   6.141  16.978  0.00  0.00    +0.000 A 
ATOM     13  C   UNL     1      50.850   6.453  17.590  0.00  0.00    +0.000 A 
ATOM     14  S   UNL     1      51.773   5.045  17.929  0.00  0.00    +0.000 S 
ATOM     15  C   UNL     1      50.522   4.023  17.382  0.00  0.00    +0.000 A 
ATOM     16  N   UNL     1      50.681   2.680  17.240  0.00  0.00    +0.000 NA
ATOM     17  C   UNL     1      49.613   2.059  16.855  0.00  0.00    +0.000 A 
ATOM     18  N   UNL     1      48.388   2.645  16.652  0.00  0.00    +0.000 N 
ATOM     19  C   UNL     1      48.174   3.996  16.808  0.00  0.00    +0.000 A 
ATOM     20  O   UNL     1      47.058   4.494  16.711  0.00  0.00    +0.000 OA
ATOM     21  C   UNL     1      49.380   4.739  17.101  0.00  0.00    +0.000 A 
ATOM     22  H   UNL     1      47.572   2.090  16.441  0.00  0.00    +0.000 HD
ENDBRANCH   9  12
ENDBRANCH   7  10
ENDBRANCH   1   7
BRANCH   4  23
ATOM     23  C   UNL     1      43.437   5.948  11.355  0.00  0.00    +0.000 C 
BRANCH  23  24
ATOM     24  N   UNL     1      43.577   4.996  10.260  0.00  0.00    +0.000 NA
ATOM     25  H   UNL     1      43.963   5.460   9.438  0.00  0.00    +0.000 HD
BRANCH  24  26
ATOM     26  CA  UNL     1      44.425   3.802  10.539  0.00  0.00    +0.000 C 
BRANCH  26  27
ATOM     27  C   UNL     1      45.199   3.343   9.292  0.00  0.00    +0.000 A 
ATOM     28  N   UNL     1      45.574   4.285   8.403  0.00  0.00    +0.000 NA
ATOM     29  C   UNL     1      46.262   3.856   7.327  0.00  0.00    +0.000 A 
ATOM     30  C   UNL     1      46.582   2.540   7.100  0.00  0.00    +0.000 A 
ATOM     31  C   UNL     1      46.149   1.653   8.056  0.00  0.00    +0.000 A 
ATOM     32  N   UNL     1      45.458   2.021   9.151  0.00  0.00    +0.000 NA
ENDBRANCH  26  27
BRANCH  26  33
ATOM     33  C   UNL     1      43.618   2.598  11.076  0.00  0.00    +0.000 C 
BRANCH  33  34
ATOM     34  O   UNL     1      43.811   2.382  12.477  0.00  0.00    +0.000 OA
ATOM     35  H   UNL     1      43.722   1.418  12.614  0.00  0.00    +0.000 HD
ENDBRANCH  33  34
ENDBRANCH  26  33
ENDBRANCH  24  26
ENDBRANCH  23  24
ENDBRANCH   4  23
TORSDOF 9
ENDMDL
MODEL 5
REMARK VINA RESULT:    -7.185      3.435      8.741
REMARK INTER + INTRA:         -11.916
REMARK INTER:                  -9.918
REMARK INTRA:                  -1.997
REMARK UNBOUND:                -1.160
REMARK  Name = 
REMARK  9 active torsions:
REMARK  status: ('A' for Active; 'I' for Inactive)
REMARK    1  A    between atoms: C_2  and  C_22
REMARK    2  A    between atoms: N_3  and  C_4
REMARK    3  A    between atoms: C_4  and  C_5
REMARK    4  A    between atoms: C_8  and  C_9
REMARK    5  A    between atoms: C_9  and  N_10
REMARK    6  A    between atoms: N_10  and  CA_11
REMARK    7  A    between atoms: CA_11  and  C_12
REMARK    8  A    between atoms: CA_11  and  C_14
REMARK    9  A    between atoms: C_12  and  O_13
REMARK                            x       y       z     vdW  Elec       q    Type
REMARK                         _______ _______ _______ _____ _____    ______ ____
ROOT
ATOM      1  C   UNL     1      47.660   8.218  14.021  0.00  0.00    +0.000 A 
ATOM      2  C   UNL     1      48.041   6.876  14.153  0.00  0.00    +0.000 A 
ATOM      3  C   UNL     1      48.847   6.465  15.221  0.00  0.00    +0.000 A 
ATOM      4  C   UNL     1      49.278   7.385  16.187  0.00  0.00    +0.000 A 
ATOM      5  C   UNL     1      48.870   8.721  16.068  0.00  0.00    +0.000 A 
ATOM      6  C   UNL     1      48.067   9.133  15.001  0.00  0.00    +0.000 A 
ENDROOT
BRANCH   1   7
ATOM      7  C   UNL     1      46.732   8.648  12.911  0.00  0.00    +0.000 C 
BRANCH   7  10
ATOM      8  O   UNL     1      44.433   8.012  11.300  0.00  0.00    +0.000 OA
ATOM      9  C   UNL     1      45.423   7.289  11.309  0.00  0.00    +0.000 C 
ATOM     10  N   UNL     1      46.594   7.571  11.975  0.00  0.00    +0.000 N 
ATOM     11  H   UNL     1      47.267   6.817  12.082  0.00  0.00    +0.000 HD
BRANCH   9  12
ATOM     12  C   UNL     1      45.436   5.928  10.793  0.00  0.00    +0.000 A 
ATOM     13  C   UNL     1      45.839   5.616   9.505  0.00  0.00    +0.000 A 
ATOM     14  S   UNL     1      45.224   4.094   9.000  0.00  0.00    +0.000 S 
ATOM     15  C   UNL     1      44.537   3.798  10.533  0.00  0.00    +0.000 A 
ATOM     16  N   UNL     1      43.718   2.739  10.779  0.00  0.00    +0.000 NA
ATOM     17  C   UNL     1      43.325   2.649  12.008  0.00  0.00    +0.000 A 
ATOM     18  N   UNL     1      43.716   3.484  13.026  0.00  0.00    +0.000 N 
ATOM     19  C   UNL     1      44.562   4.553  12.829  0.00  0.00    +0.000 A 
ATOM     20  O   UNL     1      44.973   5.236  13.760  0.00  0.00    +0.000 OA
ATOM     21  C   UNL     1      44.907   4.764  11.442  0.00  0.00    +0.000 A 
ATOM     22  H   UNL     1      43.445   3.305  13.981  0.00  0.00    +0.000 HD
ENDBRANCH   9  12
ENDBRANCH   7  10
ENDBRANCH   1   7
BRANCH   4  23
ATOM     23  C   UNL     1      50.126   6.960  17.363  0.00  0.00    +0.000 C 
BRANCH  23  24
ATOM     24  N   UNL     1      49.408   6.702  18.605  0.00  0.00    +0.000 NA
ATOM     25  H   UNL     1      48.411   6.869  18.476  0.00  0.00    +0.000 HD
BRANCH  24  26
ATOM     26  CA  UNL     1      49.563   5.333  19.174  0.00  0.00    +0.000 C 
BRANCH  26  27
ATOM     27  C   UNL     1      49.061   4.248  18.206  0.00  0.00    +0.000 A 
ATOM     28  N   UNL     1      47.776   4.311  17.805  0.00  0.00    +0.000 NA
ATOM     29  C   UNL     1      47.366   3.355  16.947  0.00  0.00    +0.000 A 
ATOM     30  C   UNL     1      48.176   2.347  16.486  0.00  0.00    +0.000 A 
ATOM     31  C   UNL     1      49.465   2.360  16.958  0.00  0.00    +0.000 A 
ATOM     32  N   UNL     1      49.932   3.287  17.815  0.00  0.00    +0.000 NA
ENDBRANCH  26  27
BRANCH  26  33
ATOM     33  C   UNL     1      48.833   5.151  20.524  0.00  0.00    +0.000 C 
BRANCH  33  34
ATOM     34  O   UNL     1      48.427   3.799  20.758  0.00  0.00    +0.000 OA
ATOM     35  H   UNL     1      48.238   3.419  19.877  0.00  0.00    +0.000 HD
ENDBRANCH  33  34
ENDBRANCH  26  33
ENDBRANCH  24  26
ENDBRANCH  23  24
ENDBRANCH   4  23
TORSDOF 9
ENDMDL
MODEL 6
REMARK VINA RESULT:    -7.085      2.710      3.474
REMARK INTER + INTRA:         -11.765
REMARK INTER:                 -10.852
REMARK INTRA:                  -0.913
REMARK UNBOUND:                -1.160
REMARK  Name = 
REMARK  9 active torsions:
REMARK  status: ('A' for Active; 'I' for Inactive)
REMARK    1  A    between atoms: C_2  and  C_22
REMARK    2  A    between atoms: N_3  and  C_4
REMARK    3  A    between atoms: C_4  and  C_5
REMARK    4  A    between atoms: C_8  and  C_9
REMARK    5  A    between atoms: C_9  and  N_10
REMARK    6  A    between atoms: N_10  and  CA_11
REMARK    7  A    between atoms: CA_11  and  C_12
REMARK    8  A    between atoms: CA_11  and  C_14
REMARK    9  A    between atoms: C_12  and  O_13
REMARK                            x       y       z     vdW  Elec       q    Type
REMARK                         _______ _______ _______ _____ _____    ______ ____
ROOT
ATOM      1  C   UNL     1      47.154   7.127  13.167  0.00  0.00    +0.000 A 
ATOM      2  C   UNL     1      46.616   7.913  12.140  0.00  0.00    +0.000 A 
ATOM      3  C   UNL     1      45.407   7.559  11.529  0.00  0.00    +0.000 A 
ATOM      4  C   UNL     1      44.705   6.417  11.941  0.00  0.00    +0.000 A 
ATOM      5  C   UNL     1      45.231   5.650  12.991  0.00  0.00    +0.000 A 
ATOM      6  C   UNL     1      46.439   6.002  13.599  0.00  0.00    +0.000 A 
ENDROOT
BRANCH   1   7
ATOM      7  C   UNL     1      48.419   7.548  13.875  0.00  0.00    +0.000 C 
BRANCH   7  10
ATOM      8  O   UNL     1      50.621   6.715  15.530  0.00  0.00    +0.000 OA
ATOM      9  C   UNL     1      49.463   6.632  15.924  0.00  0.00    +0.000 C 
ATOM     10  N   UNL     1      48.366   7.095  15.233  0.00  0.00    +0.000 N 
ATOM     11  H   UNL     1      47.449   6.795  15.554  0.00  0.00    +0.000 HD
BRANCH   9  12
ATOM     12  C   UNL     1      49.054   5.846  17.078  0.00  0.00    +0.000 A 
ATOM     13  C   UNL     1      48.624   4.534  16.980  0.00  0.00    +0.000 A 
ATOM     14  S   UNL     1      47.693   4.068  18.346  0.00  0.00    +0.000 S 
ATOM     15  C   UNL     1      47.973   5.563  19.119  0.00  0.00    +0.000 A 
ATOM     16  N   UNL     1      47.343   5.923  20.270  0.00  0.00    +0.000 NA
ATOM     17  C   UNL     1      47.710   7.074  20.735  0.00  0.00    +0.000 A 
ATOM     18  N   UNL     1      48.685   7.872  20.189  0.00  0.00    +0.000 N 
ATOM     19  C   UNL     1      49.366   7.537  19.040  0.00  0.00    +0.000 A 
ATOM     20  O   UNL     1      50.294   8.214  18.613  0.00  0.00    +0.000 OA
ATOM     21  C   UNL     1      48.881   6.325  18.418  0.00  0.00    +0.000 A 
ATOM     22  H   UNL     1      48.989   8.715  20.652  0.00  0.00    +0.000 HD
ENDBRANCH   9  12
ENDBRANCH   7  10
ENDBRANCH   1   7
BRANCH   4  23
ATOM     23  C   UNL     1      43.386   6.029  11.316  0.00  0.00    +0.000 C 
BRANCH  23  24
ATOM     24  N   UNL     1      43.449   5.004  10.282  0.00  0.00    +0.000 NA
ATOM     25  H   UNL     1      43.775   5.409   9.405  0.00  0.00    +0.000 HD
BRANCH  24  26
ATOM     26  CA  UNL     1      44.314   3.828  10.582  0.00  0.00    +0.000 C 
BRANCH  26  27
ATOM     27  C   UNL     1      45.104   3.365   9.347  0.00  0.00    +0.000 A 
ATOM     28  N   UNL     1      45.481   4.304   8.455  0.00  0.00    +0.000 NA
ATOM     29  C   UNL     1      46.184   3.872   7.389  0.00  0.00    +0.000 A 
ATOM     30  C   UNL     1      46.514   2.556   7.175  0.00  0.00    +0.000 A 
ATOM     31  C   UNL     1      46.078   1.673   8.132  0.00  0.00    +0.000 A 
ATOM     32  N   UNL     1      45.374   2.044   9.218  0.00  0.00    +0.000 NA
ENDBRANCH  26  27
BRANCH  26  33
ATOM     33  C   UNL     1      43.524   2.618  11.131  0.00  0.00    +0.000 C 
BRANCH  33  34
ATOM     34  O   UNL     1      43.725   2.413  12.533  0.00  0.00    +0.000 OA
ATOM     35  H   UNL     1      42.917   2.746  12.970  0.00  0.00    +0.000 HD
ENDBRANCH  33  34
ENDBRANCH  26  33
ENDBRANCH  24  26
ENDBRANCH  23  24
ENDBRANCH   4  23
TORSDOF 9
ENDMDL
MODEL 7
REMARK VINA RESULT:    -6.824      5.737      7.168
REMARK INTER + INTRA:         -11.376
REMARK INTER:                 -10.461
REMARK INTRA:                  -0.914
REMARK UNBOUND:                -1.160
REMARK  Name = 
REMARK  9 active torsions:
REMARK  status: ('A' for Active; 'I' for Inactive)
REMARK    1  A    between atoms: C_2  and  C_22
REMARK    2  A    between atoms: N_3  and  C_4
REMARK    3  A    between atoms: C_4  and  C_5
REMARK    4  A    between atoms: C_8  and  C_9
REMARK    5  A    between atoms: C_9  and  N_10
REMARK    6  A    between atoms: N_10  and  CA_11
REMARK    7  A    between atoms: CA_11  and  C_12
REMARK    8  A    between atoms: CA_11  and  C_14
REMARK    9  A    between atoms: C_12  and  O_13
REMARK                            x       y       z     vdW  Elec       q    Type
REMARK                         _______ _______ _______ _____ _____    ______ ____
ROOT
ATOM      1  C   UNL     1      49.472   8.223  12.024  0.00  0.00    +0.000 A 
ATOM      2  C   UNL     1      48.624   9.334  11.924  0.00  0.00    +0.000 A 
ATOM      3  C   UNL     1      47.234   9.178  11.973  0.00  0.00    +0.000 A 
ATOM      4  C   UNL     1      46.663   7.908  12.135  0.00  0.00    +0.000 A 
ATOM      5  C   UNL     1      47.515   6.801  12.266  0.00  0.00    +0.000 A 
ATOM      6  C   UNL     1      48.903   6.957  12.214  0.00  0.00    +0.000 A 
ENDROOT
BRANCH   1   7
ATOM      7  C   UNL     1      50.971   8.399  12.044  0.00  0.00    +0.000 C 
BRANCH   7  10
ATOM      8  O   UNL     1      53.721   7.765  11.476  0.00  0.00    +0.000 OA
ATOM      9  C   UNL     1      52.861   7.705  10.603  0.00  0.00    +0.000 C 
ATOM     10  N   UNL     1      51.515   7.900  10.815  0.00  0.00    +0.000 N 
ATOM     11  H   UNL     1      50.925   8.028   9.997  0.00  0.00    +0.000 HD
BRANCH   9  12
ATOM     12  C   UNL     1      53.156   7.630   9.180  0.00  0.00    +0.000 A 
ATOM     13  C   UNL     1      52.896   8.668   8.303  0.00  0.00    +0.000 A 
ATOM     14  S   UNL     1      52.798   8.116   6.679  0.00  0.00    +0.000 S 
ATOM     15  C   UNL     1      53.228   6.529   7.132  0.00  0.00    +0.000 A 
ATOM     16  N   UNL     1      53.189   5.482   6.264  0.00  0.00    +0.000 NA
ATOM     17  C   UNL     1      53.589   4.360   6.770  0.00  0.00    +0.000 A 
ATOM     18  N   UNL     1      54.077   4.198   8.043  0.00  0.00    +0.000 N 
ATOM     19  C   UNL     1      54.159   5.233   8.948  0.00  0.00    +0.000 A 
ATOM     20  O   UNL     1      54.677   5.095  10.049  0.00  0.00    +0.000 OA
ATOM     21  C   UNL     1      53.588   6.468   8.459  0.00  0.00    +0.000 A 
ATOM     22  H   UNL     1      54.459   3.315   8.347  0.00  0.00    +0.000 HD
ENDBRANCH   9  12
ENDBRANCH   7  10
ENDBRANCH   1   7
BRANCH   4  23
ATOM     23  C   UNL     1      45.166   7.717  12.218  0.00  0.00    +0.000 C 
BRANCH  23  24
ATOM     24  N   UNL     1      44.569   6.906  11.164  0.00  0.00    +0.000 NA
ATOM     25  H   UNL     1      45.182   6.881  10.350  0.00  0.00    +0.000 HD
BRANCH  24  26
ATOM     26  CA  UNL     1      44.250   5.496  11.528  0.00  0.00    +0.000 C 
BRANCH  26  27
ATOM     27  C   UNL     1      44.612   4.515  10.400  0.00  0.00    +0.000 A 
ATOM     28  N   UNL     1      45.421   4.959   9.418  0.00  0.00    +0.000 NA
ATOM     29  C   UNL     1      45.732   4.075   8.450  0.00  0.00    +0.000 A 
ATOM     30  C   UNL     1      45.267   2.782   8.419  0.00  0.00    +0.000 A 
ATOM     31  C   UNL     1      44.441   2.426   9.456  0.00  0.00    +0.000 A 
ATOM     32  N   UNL     1      44.095   3.264  10.451  0.00  0.00    +0.000 NA
ENDBRANCH  26  27
BRANCH  26  33
ATOM     33  C   UNL     1      42.763   5.286  11.892  0.00  0.00    +0.000 C 
BRANCH  33  34
ATOM     34  O   UNL     1      42.505   5.445  13.291  0.00  0.00    +0.000 OA
ATOM     35  H   UNL     1      41.709   6.008  13.354  0.00  0.00    +0.000 HD
ENDBRANCH  33  34
ENDBRANCH  26  33
ENDBRANCH  24  26
ENDBRANCH  23  24
ENDBRANCH   4  23
TORSDOF 9
ENDMDL
MODEL 8
REMARK VINA RESULT:    -6.658      3.038      8.799
REMARK INTER + INTRA:         -11.126
REMARK INTER:                  -9.203
REMARK INTRA:                  -1.923
REMARK UNBOUND:                -1.160
REMARK  Name = 
REMARK  9 active torsions:
REMARK  status: ('A' for Active; 'I' for Inactive)
REMARK    1  A    between atoms: C_2  and  C_22
REMARK    2  A    between atoms: N_3  and  C_4
REMARK    3  A    between atoms: C_4  and  C_5
REMARK    4  A    between atoms: C_8  and  C_9
REMARK    5  A    between atoms: C_9  and  N_10
REMARK    6  A    between atoms: N_10  and  CA_11
REMARK    7  A    between atoms: CA_11  and  C_12
REMARK    8  A    between atoms: CA_11  and  C_14
REMARK    9  A    between atoms: C_12  and  O_13
REMARK                            x       y       z     vdW  Elec       q    Type
REMARK                         _______ _______ _______ _____ _____    ______ ____
ROOT
ATOM      1  C   UNL     1      49.087   8.338  14.646  0.00  0.00    +0.000 A 
ATOM      2  C   UNL     1      50.062   7.400  15.008  0.00  0.00    +0.000 A 
ATOM      3  C   UNL     1      50.413   7.217  16.351  0.00  0.00    +0.000 A 
ATOM      4  C   UNL     1      49.786   7.961  17.361  0.00  0.00    +0.000 A 
ATOM      5  C   UNL     1      48.789   8.878  16.997  0.00  0.00    +0.000 A 
ATOM      6  C   UNL     1      48.441   9.062  15.656  0.00  0.00    +0.000 A 
ENDROOT
BRANCH   1   7
ATOM      7  C   UNL     1      48.657   8.484  13.206  0.00  0.00    +0.000 C 
BRANCH   7  10
ATOM      8  O   UNL     1      45.787   8.279  13.277  0.00  0.00    +0.000 OA
ATOM      9  C   UNL     1      46.486   7.314  12.991  0.00  0.00    +0.000 C 
ATOM     10  N   UNL     1      47.855   7.353  12.843  0.00  0.00    +0.000 N 
ATOM     11  H   UNL     1      48.349   6.466  12.806  0.00  0.00    +0.000 HD
BRANCH   9  12
ATOM     12  C   UNL     1      46.003   5.941  12.971  0.00  0.00    +0.000 A 
ATOM     13  C   UNL     1      46.525   4.949  13.785  0.00  0.00    +0.000 A 
ATOM     14  S   UNL     1      46.193   3.382  13.165  0.00  0.00    +0.000 S 
ATOM     15  C   UNL     1      45.251   4.020  11.895  0.00  0.00    +0.000 A 
ATOM     16  N   UNL     1      44.774   3.254  10.877  0.00  0.00    +0.000 NA
ATOM     17  C   UNL     1      44.045   3.899  10.026  0.00  0.00    +0.000 A 
ATOM     18  N   UNL     1      43.701   5.225  10.124  0.00  0.00    +0.000 N 
ATOM     19  C   UNL     1      44.139   6.034  11.150  0.00  0.00    +0.000 A 
ATOM     20  O   UNL     1      43.755   7.190  11.275  0.00  0.00    +0.000 OA
ATOM     21  C   UNL     1      45.070   5.378  12.040  0.00  0.00    +0.000 A 
ATOM     22  H   UNL     1      43.053   5.646   9.476  0.00  0.00    +0.000 HD
ENDBRANCH   9  12
ENDBRANCH   7  10
ENDBRANCH   1   7
BRANCH   4  23
ATOM     23  C   UNL     1      50.129   7.763  18.819  0.00  0.00    +0.000 C 
BRANCH  23  24
ATOM     24  N   UNL     1      49.181   6.971  19.594  0.00  0.00    +0.000 NA
ATOM     25  H   UNL     1      48.256   7.014  19.167  0.00  0.00    +0.000 HD
BRANCH  24  26
ATOM     26  CA  UNL     1      49.527   5.533  19.771  0.00  0.00    +0.000 C 
BRANCH  26  27
ATOM     27  C   UNL     1      48.943   4.658  18.648  0.00  0.00    +0.000 A 
ATOM     28  N   UNL     1      49.714   3.665  18.162  0.00  0.00    +0.000 NA
ATOM     29  C   UNL     1      49.173   2.907  17.187  0.00  0.00    +0.000 A 
ATOM     30  C   UNL     1      47.912   3.103  16.679  0.00  0.00    +0.000 A 
ATOM     31  C   UNL     1      47.208   4.145  17.230  0.00  0.00    +0.000 A 
ATOM     32  N   UNL     1      47.694   4.936  18.205  0.00  0.00    +0.000 NA
ENDBRANCH  26  27
BRANCH  26  33
ATOM     33  C   UNL     1      49.053   4.957  21.125  0.00  0.00    +0.000 C 
BRANCH  33  34
ATOM     34  O   UNL     1      48.339   3.725  20.986  0.00  0.00    +0.000 OA
ATOM     35  H   UNL     1      48.616   3.350  20.127  0.00  0.00    +0.000 HD
ENDBRANCH  33  34
ENDBRANCH  26  33
ENDBRANCH  24  26
ENDBRANCH  23  24
ENDBRANCH   4  23
TORSDOF 9
ENDMDL
MODEL 9
REMARK VINA RESULT:    -6.499      3.296      9.941
REMARK INTER + INTRA:         -10.889
REMARK INTER:                  -9.530
REMARK INTRA:                  -1.359
REMARK UNBOUND:                -1.160
REMARK  Name = 
REMARK  9 active torsions:
REMARK  status: ('A' for Active; 'I' for Inactive)
REMARK    1  A    between atoms: C_2  and  C_22
REMARK    2  A    between atoms: N_3  and  C_4
REMARK    3  A    between atoms: C_4  and  C_5
REMARK    4  A    between atoms: C_8  and  C_9
REMARK    5  A    between atoms: C_9  and  N_10
REMARK    6  A    between atoms: N_10  and  CA_11
REMARK    7  A    between atoms: CA_11  and  C_12
REMARK    8  A    between atoms: CA_11  and  C_14
REMARK    9  A    between atoms: C_12  and  O_13
REMARK                            x       y       z     vdW  Elec       q    Type
REMARK                         _______ _______ _______ _____ _____    ______ ____
ROOT
ATOM      1  C   UNL     1      47.696   5.857  14.270  0.00  0.00    +0.000 A 
ATOM      2  C   UNL     1      47.052   4.656  14.596  0.00  0.00    +0.000 A 
ATOM      3  C   UNL     1      47.333   4.000  15.801  0.00  0.00    +0.000 A 
ATOM      4  C   UNL     1      48.255   4.539  16.709  0.00  0.00    +0.000 A 
ATOM      5  C   UNL     1      48.874   5.757  16.393  0.00  0.00    +0.000 A 
ATOM      6  C   UNL     1      48.596   6.410  15.190  0.00  0.00    +0.000 A 
ENDROOT
BRANCH   1   7
ATOM      7  C   UNL     1      47.340   6.600  13.005  0.00  0.00    +0.000 C 
BRANCH   7  10
ATOM      8  O   UNL     1      45.079   7.311  11.371  0.00  0.00    +0.000 OA
ATOM      9  C   UNL     1      45.447   6.146  11.475  0.00  0.00    +0.000 C 
ATOM     10  N   UNL     1      46.571   5.738  12.158  0.00  0.00    +0.000 N 
ATOM     11  H   UNL     1      46.668   4.744  12.350  0.00  0.00    +0.000 HD
BRANCH   9  12
ATOM     12  C   UNL     1      44.641   5.003  11.074  0.00  0.00    +0.000 A 
ATOM     13  C   UNL     1      43.588   4.522  11.834  0.00  0.00    +0.000 A 
ATOM     14  S   UNL     1      43.212   2.894  11.437  0.00  0.00    +0.000 S 
ATOM     15  C   UNL     1      44.358   2.877  10.174  0.00  0.00    +0.000 A 
ATOM     16  N   UNL     1      44.686   1.744   9.496  0.00  0.00    +0.000 NA
ATOM     17  C   UNL     1      45.541   1.927   8.543  0.00  0.00    +0.000 A 
ATOM     18  N   UNL     1      46.058   3.143   8.168  0.00  0.00    +0.000 N 
ATOM     19  C   UNL     1      45.736   4.319   8.808  0.00  0.00    +0.000 A 
ATOM     20  O   UNL     1      46.134   5.407   8.409  0.00  0.00    +0.000 OA
ATOM     21  C   UNL     1      44.892   4.129   9.966  0.00  0.00    +0.000 A 
ATOM     22  H   UNL     1      46.651   3.230   7.356  0.00  0.00    +0.000 HD
ENDBRANCH   9  12
ENDBRANCH   7  10
ENDBRANCH   1   7
BRANCH   4  23
ATOM     23  C   UNL     1      48.555   3.864  18.028  0.00  0.00    +0.000 C 
BRANCH  23  24
ATOM     24  N   UNL     1      49.283   4.666  19.003  0.00  0.00    +0.000 NA
ATOM     25  H   UNL     1      49.788   5.417  18.533  0.00  0.00    +0.000 HD
BRANCH  24  26
ATOM     26  CA  UNL     1      48.461   5.285  20.081  0.00  0.00    +0.000 C 
BRANCH  26  27
ATOM     27  C   UNL     1      48.418   6.818  19.963  0.00  0.00    +0.000 A 
ATOM     28  N   UNL     1      47.371   7.367  19.314  0.00  0.00    +0.000 NA
ATOM     29  C   UNL     1      47.352   8.713  19.237  0.00  0.00    +0.000 A 
ATOM     30  C   UNL     1      48.327   9.522  19.767  0.00  0.00    +0.000 A 
ATOM     31  C   UNL     1      49.357   8.870  20.400  0.00  0.00    +0.000 A 
ATOM     32  N   UNL     1      49.431   7.531  20.509  0.00  0.00    +0.000 NA
ENDBRANCH  26  27
BRANCH  26  33
ATOM     33  C   UNL     1      48.953   4.924  21.501  0.00  0.00    +0.000 C 
BRANCH  33  34
ATOM     34  O   UNL     1      50.357   4.654  21.551  0.00  0.00    +0.000 OA
ATOM     35  H   UNL     1      50.457   3.850  22.097  0.00  0.00    +0.000 HD
ENDBRANCH  33  34
ENDBRANCH  26  33
ENDBRANCH  24  26
ENDBRANCH  23  24
ENDBRANCH   4  23
TORSDOF 9
ENDMDL
