MODEL 1
REMARK VINA RESULT:    -8.692      0.000      0.000
REMARK INTER + INTRA:         -12.612
REMARK INTER:                 -11.995
REMARK INTRA:                  -0.617
REMARK UNBOUND:                -0.617
REMARK  Name = 
REMARK  7 active torsions:
REMARK  status: ('A' for Active; 'I' for Inactive)
REMARK    1  A    between atoms: N_1  and  C_2
REMARK    2  A    between atoms: C_2  and  C_3
REMARK    3  A    between atoms: C_2  and  C_10
REMARK    4  A    between atoms: C_3  and  C_4
REMARK    5  A    between atoms: C_13  and  C_14
REMARK    6  A    between atoms: C_14  and  C_15
REMARK    7  A    between atoms: C_15  and  C_16
REMARK                            x       y       z     vdW  Elec       q    Type
REMARK                         _______ _______ _______ _____ _____    ______ ____
ROOT
ATOM      1  C   UNL     1      47.825   4.422  16.001  0.00  0.00    +0.000 A 
ATOM      2  C   UNL     1      48.415   5.687  16.032  0.00  0.00    +0.000 A 
ATOM      3  C   UNL     1      48.240   6.559  14.957  0.00  0.00    +0.000 A 
ATOM      4  C   UNL     1      47.514   6.149  13.842  0.00  0.00    +0.000 A 
ATOM      5  C   UNL     1      46.947   4.879  13.901  0.00  0.00    +0.000 A 
ATOM      6  N   UNL     1      47.092   4.017  14.934  0.00  0.00    +0.000 NA
ENDROOT
BRANCH   1   7
ATOM      7  C   UNL     1      48.045   3.422  17.144  0.00  0.00    +0.000 C 
BRANCH   7   8
ATOM      8  N   UNL     1      46.759   2.959  17.724  0.00  0.00    +0.000 NA
ATOM      9  H   UNL     1      46.976   2.108  18.263  0.00  0.00    +0.000 HD
ATOM     10  H   UNL     1      46.178   2.610  16.962  0.00  0.00    +0.000 HD
ENDBRANCH   7   8
BRANCH   7  11
ATOM     11  C   UNL     1      48.936   2.233  16.685  0.00  0.00    +0.000 C 
BRANCH  11  12
ATOM     12  C   UNL     1      50.348   2.272  17.225  0.00  0.00    +0.000 A 
ATOM     13  C   UNL     1      50.902   3.462  17.699  0.00  0.00    +0.000 A 
ATOM     14  C   UNL     1      52.216   3.457  18.162  0.00  0.00    +0.000 A 
ATOM     15  C   UNL     1      52.947   2.281  18.128  0.00  0.00    +0.000 A 
ATOM     16  C   UNL     1      52.335   1.145  17.631  0.00  0.00    +0.000 A 
ATOM     17  N   UNL     1      51.059   1.118  17.179  0.00  0.00    +0.000 NA
ENDBRANCH  11  12
ENDBRANCH   7  11
ENDBRANCH   1   7
BRANCH   4  18
ATOM     18  C   UNL     1      47.271   7.018  12.637  0.00  0.00    +0.000 C 
BRANCH  18  19
ATOM     19  C   UNL     1      45.797   7.323  12.317  0.00  0.00    +0.000 C 
BRANCH  19  20
ATOM     20  C   UNL     1      45.199   6.200  11.515  0.00  0.00    +0.000 A 
ATOM     21  C   UNL     1      44.153   5.434  12.036  0.00  0.00    +0.000 A 
ATOM     22  N   UNL     1      43.714   4.278  11.489  0.00  0.00    +0.000 NA
ATOM     23  C   UNL     1      44.312   3.872  10.348  0.00  0.00    +0.000 A 
ATOM     24  N   UNL     1      43.958   2.583   9.934  0.00  0.00    +0.000 NA
ATOM     25  C   UNL     1      44.506   2.144   8.858  0.00  0.00    +0.000 A 
ATOM     26  N   UNL     1      45.364   2.868   8.081  0.00  0.00    +0.000 N 
ATOM     27  C   UNL     1      45.802   4.113   8.432  0.00  0.00    +0.000 A 
ATOM     28  O   UNL     1      46.592   4.754   7.756  0.00  0.00    +0.000 OA
ATOM     29  C   UNL     1      45.270   4.637   9.702  0.00  0.00    +0.000 A 
ATOM     30  C   UNL     1      45.735   5.806  10.288  0.00  0.00    +0.000 A 
ATOM     31  H   UNL     1      45.728   2.490   7.219  0.00  0.00    +0.000 HD
ENDBRANCH  19  20
ENDBRANCH  18  19
ENDBRANCH   4  18
TORSDOF 7
ENDMDL
MODEL 2
REMARK VINA RESULT:    -8.618      3.867      5.851
REMARK INTER + INTRA:         -12.510
REMARK INTER:                 -11.339
REMARK INTRA:                  -1.170
REMARK UNBOUND:                -0.617
REMARK  Name = 
REMARK  7 active torsions:
REMARK  status: ('A' for Active; 'I' for Inactive)
REMARK    1  A    between atoms: N_1  and  C_2
REMARK    2  A    between atoms: C_2  and  C_3
REMARK    3  A    between atoms: C_2  and  C_10
REMARK    4  A    between atoms: C_3  and  C_4
REMARK    5  A    between atoms: C_13  and  C_14
REMARK    6  A    between atoms: C_14  and  C_15
REMARK    7  A    between atoms: C_15  and  C_16
REMARK                            x       y       z     vdW  Elec       q    Type
REMARK                         _______ _______ _______ _____ _____    ______ ____
ROOT
ATOM      1  C   UNL     1      47.095   5.879  13.502  0.00  0.00    +0.000 A 
ATOM      2  C   UNL     1      45.848   6.357  13.093  0.00  0.00    +0.000 A 
ATOM      3  C   UNL     1      44.850   5.458  12.720  0.00  0.00    +0.000 A 
ATOM      4  C   UNL     1      45.113   4.090  12.719  0.00  0.00    +0.000 A 
ATOM      5  C   UNL     1      46.375   3.699  13.157  0.00  0.00    +0.000 A 
ATOM      6  N   UNL     1      47.358   4.549  13.532  0.00  0.00    +0.000 NA
ENDROOT
BRANCH   1   7
ATOM      7  C   UNL     1      48.230   6.845  13.866  0.00  0.00    +0.000 C 
BRANCH   7   8
ATOM      8  N   UNL     1      49.397   6.687  12.961  0.00  0.00    +0.000 NA
ATOM      9  H   UNL     1      50.235   6.778  13.554  0.00  0.00    +0.000 HD
ATOM     10  H   UNL     1      49.445   7.512  12.363  0.00  0.00    +0.000 HD
ENDBRANCH   7   8
BRANCH   7  11
ATOM     11  C   UNL     1      47.724   8.315  13.908  0.00  0.00    +0.000 C 
BRANCH  11  12
ATOM     12  C   UNL     1      48.527   9.272  13.055  0.00  0.00    +0.000 A 
ATOM     13  C   UNL     1      48.013   9.766  11.855  0.00  0.00    +0.000 A 
ATOM     14  C   UNL     1      48.798  10.624  11.088  0.00  0.00    +0.000 A 
ATOM     15  C   UNL     1      50.072  10.954  11.522  0.00  0.00    +0.000 A 
ATOM     16  C   UNL     1      50.517  10.414  12.714  0.00  0.00    +0.000 A 
ATOM     17  N   UNL     1      49.775   9.582  13.483  0.00  0.00    +0.000 NA
ENDBRANCH  11  12
ENDBRANCH   7  11
ENDBRANCH   1   7
BRANCH   4  18
ATOM     18  C   UNL     1      44.100   3.045  12.335  0.00  0.00    +0.000 C 
BRANCH  18  19
ATOM     19  C   UNL     1      43.440   3.226  10.956  0.00  0.00    +0.000 C 
BRANCH  19  20
ATOM     20  C   UNL     1      44.494   3.319   9.887  0.00  0.00    +0.000 A 
ATOM     21  C   UNL     1      44.800   4.548   9.296  0.00  0.00    +0.000 A 
ATOM     22  N   UNL     1      45.559   4.687   8.186  0.00  0.00    +0.000 NA
ATOM     23  C   UNL     1      46.074   3.560   7.648  0.00  0.00    +0.000 A 
ATOM     24  N   UNL     1      46.683   3.738   6.401  0.00  0.00    +0.000 NA
ATOM     25  C   UNL     1      47.182   2.695   5.840  0.00  0.00    +0.000 A 
ATOM     26  N   UNL     1      47.195   1.452   6.403  0.00  0.00    +0.000 N 
ATOM     27  C   UNL     1      46.583   1.175   7.593  0.00  0.00    +0.000 A 
ATOM     28  O   UNL     1      46.566   0.059   8.088  0.00  0.00    +0.000 OA
ATOM     29  C   UNL     1      45.921   2.318   8.244  0.00  0.00    +0.000 A 
ATOM     30  C   UNL     1      45.115   2.182   9.366  0.00  0.00    +0.000 A 
ATOM     31  H   UNL     1      47.644   0.676   5.939  0.00  0.00    +0.000 HD
ENDBRANCH  19  20
ENDBRANCH  18  19
ENDBRANCH   4  18
TORSDOF 7
ENDMDL
MODEL 3
REMARK VINA RESULT:    -8.433      2.969      8.561
REMARK INTER + INTRA:         -12.254
REMARK INTER:                 -11.497
REMARK INTRA:                  -0.757
REMARK UNBOUND:                -0.617
REMARK  Name = 
REMARK  7 active torsions:
REMARK  status: ('A' for Active; 'I' for Inactive)
REMARK    1  A    between atoms: N_1  and  C_2
REMARK    2  A    between atoms: C_2  and  C_3
REMARK    3  A    between atoms: C_2  and  C_10
REMARK    4  A    between atoms: C_3  and  C_4
REMARK    5  A    between atoms: C_13  and  C_14
REMARK    6  A    between atoms: C_14  and  C_15
REMARK    7  A    between atoms: C_15  and  C_16
REMARK                            x       y       z     vdW  Elec       q    Type
REMARK                         _______ _______ _______ _____ _____    ______ ____
ROOT
ATOM      1  C   UNL     1      45.258   3.916  11.467  0.00  0.00    +0.000 A 
ATOM      2  C   UNL     1      45.458   5.145  10.835  0.00  0.00    +0.000 A 
ATOM      3  C   UNL     1      46.090   6.181  11.520  0.00  0.00    +0.000 A 
ATOM      4  C   UNL     1      46.483   6.000  12.844  0.00  0.00    +0.000 A 
ATOM      5  C   UNL     1      46.261   4.741  13.392  0.00  0.00    +0.000 A 
ATOM      6  N   UNL     1      45.658   3.715  12.747  0.00  0.00    +0.000 NA
ENDROOT
BRANCH   1   7
ATOM      7  C   UNL     1      44.516   2.775  10.758  0.00  0.00    +0.000 C 
BRANCH   7   8
ATOM      8  N   UNL     1      43.213   2.480  11.407  0.00  0.00    +0.000 NA
ATOM      9  H   UNL     1      42.922   1.554  11.060  0.00  0.00    +0.000 HD
ATOM     10  H   UNL     1      42.515   3.107  11.009  0.00  0.00    +0.000 HD
ENDBRANCH   7   8
BRANCH   7  11
ATOM     11  C   UNL     1      44.355   3.070   9.240  0.00  0.00    +0.000 C 
BRANCH  11  12
ATOM     12  C   UNL     1      45.509   2.589   8.389  0.00  0.00    +0.000 A 
ATOM     13  C   UNL     1      46.160   3.455   7.509  0.00  0.00    +0.000 A 
ATOM     14  C   UNL     1      47.201   2.963   6.724  0.00  0.00    +0.000 A 
ATOM     15  C   UNL     1      47.556   1.626   6.823  0.00  0.00    +0.000 A 
ATOM     16  C   UNL     1      46.855   0.828   7.706  0.00  0.00    +0.000 A 
ATOM     17  N   UNL     1      45.843   1.278   8.485  0.00  0.00    +0.000 NA
ENDBRANCH  11  12
ENDBRANCH   7  11
ENDBRANCH   1   7
BRANCH   4  18
ATOM     18  C   UNL     1      47.173   7.059  13.663  0.00  0.00    +0.000 C 
BRANCH  18  19
ATOM     19  C   UNL     1      48.575   6.695  14.184  0.00  0.00    +0.000 C 
BRANCH  19  20
ATOM     20  C   UNL     1      48.528   6.459  15.669  0.00  0.00    +0.000 A 
ATOM     21  C   UNL     1      48.919   7.462  16.560  0.00  0.00    +0.000 A 
ATOM     22  N   UNL     1      49.124   7.265  17.881  0.00  0.00    +0.000 NA
ATOM     23  C   UNL     1      48.898   6.022  18.359  0.00  0.00    +0.000 A 
ATOM     24  N   UNL     1      49.309   5.825  19.683  0.00  0.00    +0.000 NA
ATOM     25  C   UNL     1      49.125   4.657  20.184  0.00  0.00    +0.000 A 
ATOM     26  N   UNL     1      48.518   3.626  19.528  0.00  0.00    +0.000 N 
ATOM     27  C   UNL     1      48.130   3.712  18.221  0.00  0.00    +0.000 A 
ATOM     28  O   UNL     1      47.612   2.783  17.620  0.00  0.00    +0.000 OA
ATOM     29  C   UNL     1      48.390   5.005  17.567  0.00  0.00    +0.000 A 
ATOM     30  C   UNL     1      48.213   5.210  16.206  0.00  0.00    +0.000 A 
ATOM     31  H   UNL     1      48.356   2.742  19.987  0.00  0.00    +0.000 HD
ENDBRANCH  19  20
ENDBRANCH  18  19
ENDBRANCH   4  18
TORSDOF 7
ENDMDL
MODEL 4
REMARK VINA RESULT:    -8.431      3.226      4.607
REMARK INTER + INTRA:         -12.251
REMARK INTER:                 -11.146
REMARK INTRA:                  -1.106
REMARK UNBOUND:                -0.617
REMARK  Name = 
REMARK  7 active torsions:
REMARK  status: ('A' for Active; 'I' for Inactive)
REMARK    1  A    between atoms: N_1  and  C_2
REMARK    2  A    between atoms: C_2  and  C_3
REMARK    3  A    between atoms: C_2  and  C_10
REMARK    4  A    between atoms: C_3  and  C_4
REMARK    5  A    between atoms: C_13  and  C_14
REMARK    6  A    between atoms: C_14  and  C_15
REMARK    7  A    between atoms: C_15  and  C_16
REMARK                            x       y       z     vdW  Elec       q    Type
REMARK                         _______ _______ _______ _____ _____    ______ ____
ROOT
ATOM      1  C   UNL     1      46.855   6.516  13.342  0.00  0.00    +0.000 A 
ATOM      2  C   UNL     1      45.535   6.756  12.952  0.00  0.00    +0.000 A 
ATOM      3  C   UNL     1      44.703   5.685  12.629  0.00  0.00    +0.000 A 
ATOM      4  C   UNL     1      45.203   4.385  12.656  0.00  0.00    +0.000 A 
ATOM      5  C   UNL     1      46.522   4.234  13.071  0.00  0.00    +0.000 A 
ATOM      6  N   UNL     1      47.349   5.254  13.399  0.00  0.00    +0.000 NA
ENDROOT
BRANCH   1   7
ATOM      7  C   UNL     1      47.809   7.677  13.650  0.00  0.00    +0.000 C 
BRANCH   7   8
ATOM      8  N   UNL     1      47.138   8.749  14.429  0.00  0.00    +0.000 NA
ATOM      9  H   UNL     1      46.392   8.287  14.970  0.00  0.00    +0.000 HD
ATOM     10  H   UNL     1      46.621   9.336  13.774  0.00  0.00    +0.000 HD
ENDBRANCH   7   8
BRANCH   7  11
ATOM     11  C   UNL     1      49.099   7.170  14.354  0.00  0.00    +0.000 C 
BRANCH  11  12
ATOM     12  C   UNL     1      49.052   7.245  15.865  0.00  0.00    +0.000 A 
ATOM     13  C   UNL     1      48.708   6.127  16.626  0.00  0.00    +0.000 A 
ATOM     14  C   UNL     1      48.651   6.248  18.014  0.00  0.00    +0.000 A 
ATOM     15  C   UNL     1      48.919   7.474  18.603  0.00  0.00    +0.000 A 
ATOM     16  C   UNL     1      49.237   8.538  17.781  0.00  0.00    +0.000 A 
ATOM     17  N   UNL     1      49.306   8.450  16.431  0.00  0.00    +0.000 NA
ENDBRANCH  11  12
ENDBRANCH   7  11
ENDBRANCH   1   7
BRANCH   4  18
ATOM     18  C   UNL     1      44.381   3.167  12.325  0.00  0.00    +0.000 C 
BRANCH  18  19
ATOM     19  C   UNL     1      43.661   3.194  10.966  0.00  0.00    +0.000 C 
BRANCH  19  20
ATOM     20  C   UNL     1      44.666   3.302   9.851  0.00  0.00    +0.000 A 
ATOM     21  C   UNL     1      44.920   4.534   9.242  0.00  0.00    +0.000 A 
ATOM     22  N   UNL     1      45.627   4.682   8.099  0.00  0.00    +0.000 NA
ATOM     23  C   UNL     1      46.142   3.563   7.545  0.00  0.00    +0.000 A 
ATOM     24  N   UNL     1      46.692   3.746   6.271  0.00  0.00    +0.000 NA
ATOM     25  C   UNL     1      47.188   2.711   5.694  0.00  0.00    +0.000 A 
ATOM     26  N   UNL     1      47.252   1.471   6.262  0.00  0.00    +0.000 N 
ATOM     27  C   UNL     1      46.697   1.189   7.478  0.00  0.00    +0.000 A 
ATOM     28  O   UNL     1      46.725   0.076   7.979  0.00  0.00    +0.000 OA
ATOM     29  C   UNL     1      46.040   2.322   8.152  0.00  0.00    +0.000 A 
ATOM     30  C   UNL     1      45.287   2.176   9.309  0.00  0.00    +0.000 A 
ATOM     31  H   UNL     1      47.696   0.703   5.782  0.00  0.00    +0.000 HD
ENDBRANCH  19  20
ENDBRANCH  18  19
ENDBRANCH   4  18
TORSDOF 7
ENDMDL
MODEL 5
REMARK VINA RESULT:    -8.401      2.329      3.304
REMARK INTER + INTRA:         -12.210
REMARK INTER:                 -11.148
REMARK INTRA:                  -1.061
REMARK UNBOUND:                -0.617
REMARK  Name = 
REMARK  7 active torsions:
REMARK  status: ('A' for Active; 'I' for Inactive)
REMARK    1  A    between atoms: N_1  and  C_2
REMARK    2  A    between atoms: C_2  and  C_3
REMARK    3  A    between atoms: C_2  and  C_10
REMARK    4  A    between atoms: C_3  and  C_4
REMARK    5  A    between atoms: C_13  and  C_14
REMARK    6  A    between atoms: C_14  and  C_15
REMARK    7  A    between atoms: C_15  and  C_16
REMARK                            x       y       z     vdW  Elec       q    Type
REMARK                         _______ _______ _______ _____ _____    ______ ____
ROOT
ATOM      1  C   UNL     1      47.221   5.128  14.478  0.00  0.00    +0.000 A 
ATOM      2  C   UNL     1      47.739   6.058  13.575  0.00  0.00    +0.000 A 
ATOM      3  C   UNL     1      46.996   6.423  12.453  0.00  0.00    +0.000 A 
ATOM      4  C   UNL     1      45.759   5.829  12.217  0.00  0.00    +0.000 A 
ATOM      5  C   UNL     1      45.310   4.925  13.175  0.00  0.00    +0.000 A 
ATOM      6  N   UNL     1      46.006   4.560  14.276  0.00  0.00    +0.000 NA
ENDROOT
BRANCH   1   7
ATOM      7  C   UNL     1      48.039   4.666  15.691  0.00  0.00    +0.000 C 
BRANCH   7   8
ATOM      8  N   UNL     1      49.060   5.671  16.080  0.00  0.00    +0.000 NA
ATOM      9  H   UNL     1      49.898   5.138  16.356  0.00  0.00    +0.000 HD
ATOM     10  H   UNL     1      48.760   6.102  16.955  0.00  0.00    +0.000 HD
ENDBRANCH   7   8
BRANCH   7  11
ATOM     11  C   UNL     1      47.112   4.290  16.882  0.00  0.00    +0.000 C 
BRANCH  11  12
ATOM     12  C   UNL     1      47.619   4.750  18.231  0.00  0.00    +0.000 A 
ATOM     13  C   UNL     1      47.006   5.808  18.904  0.00  0.00    +0.000 A 
ATOM     14  C   UNL     1      47.523   6.216  20.132  0.00  0.00    +0.000 A 
ATOM     15  C   UNL     1      48.638   5.576  20.649  0.00  0.00    +0.000 A 
ATOM     16  C   UNL     1      49.199   4.546  19.917  0.00  0.00    +0.000 A 
ATOM     17  N   UNL     1      48.716   4.124  18.724  0.00  0.00    +0.000 NA
ENDBRANCH  11  12
ENDBRANCH   7  11
ENDBRANCH   1   7
BRANCH   4  18
ATOM     18  C   UNL     1      44.885   6.160  11.036  0.00  0.00    +0.000 C 
BRANCH  18  19
ATOM     19  C   UNL     1      43.748   5.164  10.744  0.00  0.00    +0.000 C 
BRANCH  19  20
ATOM     20  C   UNL     1      44.256   4.038   9.885  0.00  0.00    +0.000 A 
ATOM     21  C   UNL     1      44.027   2.709  10.249  0.00  0.00    +0.000 A 
ATOM     22  N   UNL     1      44.632   1.648   9.668  0.00  0.00    +0.000 NA
ATOM     23  C   UNL     1      45.482   1.907   8.651  0.00  0.00    +0.000 A 
ATOM     24  N   UNL     1      46.224   0.802   8.219  0.00  0.00    +0.000 NA
ATOM     25  C   UNL     1      47.054   0.995   7.258  0.00  0.00    +0.000 A 
ATOM     26  N   UNL     1      47.218   2.186   6.611  0.00  0.00    +0.000 N 
ATOM     27  C   UNL     1      46.574   3.328   6.997  0.00  0.00    +0.000 A 
ATOM     28  O   UNL     1      46.739   4.402   6.441  0.00  0.00    +0.000 OA
ATOM     29  C   UNL     1      45.668   3.185   8.149  0.00  0.00    +0.000 A 
ATOM     30  C   UNL     1      45.065   4.269   8.772  0.00  0.00    +0.000 A 
ATOM     31  H   UNL     1      47.851   2.270   5.830  0.00  0.00    +0.000 HD
ENDBRANCH  19  20
ENDBRANCH  18  19
ENDBRANCH   4  18
TORSDOF 7
ENDMDL
MODEL 6
REMARK VINA RESULT:    -8.340      2.828      9.047
REMARK INTER + INTRA:         -12.126
REMARK INTER:                 -11.384
REMARK INTRA:                  -0.742
REMARK UNBOUND:                -0.617
REMARK  Name = 
REMARK  7 active torsions:
REMARK  status: ('A' for Active; 'I' for Inactive)
REMARK    1  A    between atoms: N_1  and  C_2
REMARK    2  A    between atoms: C_2  and  C_3
REMARK    3  A    between atoms: C_2  and  C_10
REMARK    4  A    between atoms: C_3  and  C_4
REMARK    5  A    between atoms: C_13  and  C_14
REMARK    6  A    between atoms: C_14  and  C_15
REMARK    7  A    between atoms: C_15  and  C_16
REMARK                            x       y       z     vdW  Elec       q    Type
REMARK                         _______ _______ _______ _____ _____    ______ ____
ROOT
ATOM      1  C   UNL     1      45.200   3.890  11.967  0.00  0.00    +0.000 A 
ATOM      2  C   UNL     1      45.444   5.263  12.023  0.00  0.00    +0.000 A 
ATOM      3  C   UNL     1      46.298   5.776  12.999  0.00  0.00    +0.000 A 
ATOM      4  C   UNL     1      46.872   4.922  13.938  0.00  0.00    +0.000 A 
ATOM      5  C   UNL     1      46.589   3.566  13.800  0.00  0.00    +0.000 A 
ATOM      6  N   UNL     1      45.772   3.041  12.858  0.00  0.00    +0.000 NA
ENDROOT
BRANCH   1   7
ATOM      7  C   UNL     1      44.223   3.303  10.940  0.00  0.00    +0.000 C 
BRANCH   7   8
ATOM      8  N   UNL     1      42.827   3.309  11.445  0.00  0.00    +0.000 NA
ATOM      9  H   UNL     1      42.884   3.113  12.455  0.00  0.00    +0.000 HD
ATOM     10  H   UNL     1      42.356   2.483  11.075  0.00  0.00    +0.000 HD
ENDBRANCH   7   8
BRANCH   7  11
ATOM     11  C   UNL     1      44.348   4.028   9.570  0.00  0.00    +0.000 C 
BRANCH  11  12
ATOM     12  C   UNL     1      45.284   3.351   8.594  0.00  0.00    +0.000 A 
ATOM     13  C   UNL     1      45.619   2.004   8.739  0.00  0.00    +0.000 A 
ATOM     14  C   UNL     1      46.507   1.428   7.832  0.00  0.00    +0.000 A 
ATOM     15  C   UNL     1      47.048   2.205   6.820  0.00  0.00    +0.000 A 
ATOM     16  C   UNL     1      46.679   3.536   6.750  0.00  0.00    +0.000 A 
ATOM     17  N   UNL     1      45.815   4.121   7.613  0.00  0.00    +0.000 NA
ENDBRANCH  11  12
ENDBRANCH   7  11
ENDBRANCH   1   7
BRANCH   4  18
ATOM     18  C   UNL     1      47.806   5.382  15.025  0.00  0.00    +0.000 C 
BRANCH  18  19
ATOM     19  C   UNL     1      47.692   4.637  16.366  0.00  0.00    +0.000 C 
BRANCH  19  20
ATOM     20  C   UNL     1      49.057   4.449  16.970  0.00  0.00    +0.000 A 
ATOM     21  C   UNL     1      49.861   5.553  17.265  0.00  0.00    +0.000 A 
ATOM     22  N   UNL     1      51.171   5.472  17.592  0.00  0.00    +0.000 NA
ATOM     23  C   UNL     1      51.709   4.236  17.668  0.00  0.00    +0.000 A 
ATOM     24  N   UNL     1      53.101   4.218  17.816  0.00  0.00    +0.000 NA
ATOM     25  C   UNL     1      53.666   3.066  17.885  0.00  0.00    +0.000 A 
ATOM     26  N   UNL     1      52.995   1.878  17.870  0.00  0.00    +0.000 N 
ATOM     27  C   UNL     1      51.644   1.798  17.680  0.00  0.00    +0.000 A 
ATOM     28  O   UNL     1      51.041   0.737  17.638  0.00  0.00    +0.000 OA
ATOM     29  C   UNL     1      50.951   3.087  17.513  0.00  0.00    +0.000 A 
ATOM     30  C   UNL     1      49.615   3.182  17.147  0.00  0.00    +0.000 A 
ATOM     31  H   UNL     1      53.485   1.002  17.976  0.00  0.00    +0.000 HD
ENDBRANCH  19  20
ENDBRANCH  18  19
ENDBRANCH   4  18
TORSDOF 7
ENDMDL
MODEL 7
REMARK VINA RESULT:    -7.695      3.557      8.891
REMARK INTER + INTRA:         -11.236
REMARK INTER:                 -10.383
REMARK INTRA:                  -0.853
REMARK UNBOUND:                -0.617
REMARK  Name = 
REMARK  7 active torsions:
REMARK  status: ('A' for Active; 'I' for Inactive)
REMARK    1  A    between atoms: N_1  and  C_2
REMARK    2  A    between atoms: C_2  and  C_3
REMARK    3  A    between atoms: C_2  and  C_10
REMARK    4  A    between atoms: C_3  and  C_4
REMARK    5  A    between atoms: C_13  and  C_14
REMARK    6  A    between atoms: C_14  and  C_15
REMARK    7  A    between atoms: C_15  and  C_16
REMARK                            x       y       z     vdW  Elec       q    Type
REMARK                         _______ _______ _______ _____ _____    ______ ____
ROOT
ATOM      1  C   UNL     1      45.065   4.566  11.669  0.00  0.00    +0.000 A 
ATOM      2  C   UNL     1      45.748   4.144  12.811  0.00  0.00    +0.000 A 
ATOM      3  C   UNL     1      46.558   5.042  13.504  0.00  0.00    +0.000 A 
ATOM      4  C   UNL     1      46.713   6.344  13.034  0.00  0.00    +0.000 A 
ATOM      5  C   UNL     1      45.983   6.686  11.899  0.00  0.00    +0.000 A 
ATOM      6  N   UNL     1      45.184   5.837  11.212  0.00  0.00    +0.000 NA
ENDROOT
BRANCH   1   7
ATOM      7  C   UNL     1      44.210   3.586  10.854  0.00  0.00    +0.000 C 
BRANCH   7   8
ATOM      8  N   UNL     1      42.841   3.454  11.413  0.00  0.00    +0.000 NA
ATOM      9  H   UNL     1      42.222   3.995  10.792  0.00  0.00    +0.000 HD
ATOM     10  H   UNL     1      42.808   3.977  12.289  0.00  0.00    +0.000 HD
ENDBRANCH   7   8
BRANCH   7  11
ATOM     11  C   UNL     1      44.186   3.980   9.350  0.00  0.00    +0.000 C 
BRANCH  11  12
ATOM     12  C   UNL     1      45.254   3.306   8.516  0.00  0.00    +0.000 A 
ATOM     13  C   UNL     1      45.538   1.949   8.676  0.00  0.00    +0.000 A 
ATOM     14  C   UNL     1      46.548   1.376   7.905  0.00  0.00    +0.000 A 
ATOM     15  C   UNL     1      47.256   2.166   7.013  0.00  0.00    +0.000 A 
ATOM     16  C   UNL     1      46.927   3.505   6.921  0.00  0.00    +0.000 A 
ATOM     17  N   UNL     1      45.948   4.089   7.653  0.00  0.00    +0.000 NA
ENDBRANCH  11  12
ENDBRANCH   7  11
ENDBRANCH   1   7
BRANCH   4  18
ATOM     18  C   UNL     1      47.564   7.383  13.715  0.00  0.00    +0.000 C 
BRANCH  18  19
ATOM     19  C   UNL     1      48.895   6.880  14.300  0.00  0.00    +0.000 C 
BRANCH  19  20
ATOM     20  C   UNL     1      48.801   6.792  15.799  0.00  0.00    +0.000 A 
ATOM     21  C   UNL     1      48.524   5.572  16.422  0.00  0.00    +0.000 A 
ATOM     22  N   UNL     1      48.200   5.446  17.729  0.00  0.00    +0.000 NA
ATOM     23  C   UNL     1      48.182   6.574  18.470  0.00  0.00    +0.000 A 
ATOM     24  N   UNL     1      47.655   6.415  19.757  0.00  0.00    +0.000 NA
ATOM     25  C   UNL     1      47.606   7.461  20.502  0.00  0.00    +0.000 A 
ATOM     26  N   UNL     1      48.076   8.689  20.135  0.00  0.00    +0.000 N 
ATOM     27  C   UNL     1      48.561   8.948  18.884  0.00  0.00    +0.000 A 
ATOM     28  O   UNL     1      48.956  10.051  18.540  0.00  0.00    +0.000 OA
ATOM     29  C   UNL     1      48.565   7.803  17.957  0.00  0.00    +0.000 A 
ATOM     30  C   UNL     1      48.866   7.928  16.608  0.00  0.00    +0.000 A 
ATOM     31  H   UNL     1      48.057   9.466  20.778  0.00  0.00    +0.000 HD
ENDBRANCH  19  20
ENDBRANCH  18  19
ENDBRANCH   4  18
TORSDOF 7
ENDMDL
MODEL 8
REMARK VINA RESULT:    -7.620      1.747      3.223
REMARK INTER + INTRA:         -11.133
REMARK INTER:                 -10.125
REMARK INTRA:                  -1.008
REMARK UNBOUND:                -0.617
REMARK  Name = 
REMARK  7 active torsions:
REMARK  status: ('A' for Active; 'I' for Inactive)
REMARK    1  A    between atoms: N_1  and  C_2
REMARK    2  A    between atoms: C_2  and  C_3
REMARK    3  A    between atoms: C_2  and  C_10
REMARK    4  A    between atoms: C_3  and  C_4
REMARK    5  A    between atoms: C_13  and  C_14
REMARK    6  A    between atoms: C_14  and  C_15
REMARK    7  A    between atoms: C_15  and  C_16
REMARK                            x       y       z     vdW  Elec       q    Type
REMARK                         _______ _______ _______ _____ _____    ______ ____
ROOT
ATOM      1  C   UNL     1      48.292   7.318  13.982  0.00  0.00    +0.000 A 
ATOM      2  C   UNL     1      48.295   6.315  13.011  0.00  0.00    +0.000 A 
ATOM      3  C   UNL     1      47.251   6.239  12.089  0.00  0.00    +0.000 A 
ATOM      4  C   UNL     1      46.192   7.140  12.166  0.00  0.00    +0.000 A 
ATOM      5  C   UNL     1      46.276   8.118  13.152  0.00  0.00    +0.000 A 
ATOM      6  N   UNL     1      47.281   8.219  14.053  0.00  0.00    +0.000 NA
ENDROOT
BRANCH   1   7
ATOM      7  C   UNL     1      49.397   7.392  15.043  0.00  0.00    +0.000 C 
BRANCH   7   8
ATOM      8  N   UNL     1      50.047   8.727  15.067  0.00  0.00    +0.000 NA
ATOM      9  H   UNL     1      51.019   8.581  14.757  0.00  0.00    +0.000 HD
ATOM     10  H   UNL     1      50.154   9.007  16.043  0.00  0.00    +0.000 HD
ENDBRANCH   7   8
BRANCH   7  11
ATOM     11  C   UNL     1      48.859   6.983  16.443  0.00  0.00    +0.000 C 
BRANCH  11  12
ATOM     12  C   UNL     1      48.970   5.504  16.742  0.00  0.00    +0.000 A 
ATOM     13  C   UNL     1      50.094   4.987  17.388  0.00  0.00    +0.000 A 
ATOM     14  C   UNL     1      50.166   3.614  17.619  0.00  0.00    +0.000 A 
ATOM     15  C   UNL     1      49.133   2.795  17.191  0.00  0.00    +0.000 A 
ATOM     16  C   UNL     1      48.060   3.380  16.545  0.00  0.00    +0.000 A 
ATOM     17  N   UNL     1      47.959   4.710  16.311  0.00  0.00    +0.000 NA
ENDBRANCH  11  12
ENDBRANCH   7  11
ENDBRANCH   1   7
BRANCH   4  18
ATOM     18  C   UNL     1      45.024   7.139  11.215  0.00  0.00    +0.000 C 
BRANCH  18  19
ATOM     19  C   UNL     1      43.940   6.081  11.488  0.00  0.00    +0.000 C 
BRANCH  19  20
ATOM     20  C   UNL     1      44.163   4.876  10.615  0.00  0.00    +0.000 A 
ATOM     21  C   UNL     1      43.579   3.648  10.938  0.00  0.00    +0.000 A 
ATOM     22  N   UNL     1      43.904   2.476  10.348  0.00  0.00    +0.000 NA
ATOM     23  C   UNL     1      44.828   2.518   9.364  0.00  0.00    +0.000 A 
ATOM     24  N   UNL     1      45.268   1.264   8.926  0.00  0.00    +0.000 NA
ATOM     25  C   UNL     1      46.154   1.247   7.995  0.00  0.00    +0.000 A 
ATOM     26  N   UNL     1      46.649   2.363   7.385  0.00  0.00    +0.000 N 
ATOM     27  C   UNL     1      46.315   3.628   7.781  0.00  0.00    +0.000 A 
ATOM     28  O   UNL     1      46.776   4.631   7.258  0.00  0.00    +0.000 OA
ATOM     29  C   UNL     1      45.362   3.710   8.901  0.00  0.00    +0.000 A 
ATOM     30  C   UNL     1      45.044   4.904   9.533  0.00  0.00    +0.000 A 
ATOM     31  H   UNL     1      47.309   2.291   6.626  0.00  0.00    +0.000 HD
ENDBRANCH  19  20
ENDBRANCH  18  19
ENDBRANCH   4  18
TORSDOF 7
ENDMDL
MODEL 9
REMARK VINA RESULT:    -7.478      3.679      9.414
REMARK INTER + INTRA:         -10.937
REMARK INTER:                 -10.235
REMARK INTRA:                  -0.702
REMARK UNBOUND:                -0.617
REMARK  Name = 
REMARK  7 active torsions:
REMARK  status: ('A' for Active; 'I' for Inactive)
REMARK    1  A    between atoms: N_1  and  C_2
REMARK    2  A    between atoms: C_2  and  C_3
REMARK    3  A    between atoms: C_2  and  C_10
REMARK    4  A    between atoms: C_3  and  C_4
REMARK    5  A    between atoms: C_13  and  C_14
REMARK    6  A    between atoms: C_14  and  C_15
REMARK    7  A    between atoms: C_15  and  C_16
REMARK                            x       y       z     vdW  Elec       q    Type
REMARK                         _______ _______ _______ _____ _____    ______ ____
ROOT
ATOM      1  C   UNL     1      45.148   3.930  11.988  0.00  0.00    +0.000 A 
ATOM      2  C   UNL     1      45.243   5.307  12.193  0.00  0.00    +0.000 A 
ATOM      3  C   UNL     1      46.086   5.803  13.187  0.00  0.00    +0.000 A 
ATOM      4  C   UNL     1      46.799   4.921  13.996  0.00  0.00    +0.000 A 
ATOM      5  C   UNL     1      46.660   3.566  13.713  0.00  0.00    +0.000 A 
ATOM      6  N   UNL     1      45.856   3.059  12.749  0.00  0.00    +0.000 NA
ENDROOT
BRANCH   1   7
ATOM      7  C   UNL     1      44.188   3.353  10.940  0.00  0.00    +0.000 C 
BRANCH   7   8
ATOM      8  N   UNL     1      42.772   3.461  11.373  0.00  0.00    +0.000 NA
ATOM      9  H   UNL     1      42.758   3.224  12.376  0.00  0.00    +0.000 HD
ATOM     10  H   UNL     1      42.253   2.693  10.946  0.00  0.00    +0.000 HD
ENDBRANCH   7   8
BRANCH   7  11
ATOM     11  C   UNL     1      44.420   4.004   9.547  0.00  0.00    +0.000 C 
BRANCH  11  12
ATOM     12  C   UNL     1      45.389   3.250   8.663  0.00  0.00    +0.000 A 
ATOM     13  C   UNL     1      46.102   3.907   7.659  0.00  0.00    +0.000 A 
ATOM     14  C   UNL     1      46.964   3.167   6.851  0.00  0.00    +0.000 A 
ATOM     15  C   UNL     1      47.081   1.801   7.050  0.00  0.00    +0.000 A 
ATOM     16  C   UNL     1      46.331   1.220   8.055  0.00  0.00    +0.000 A 
ATOM     17  N   UNL     1      45.490   1.912   8.859  0.00  0.00    +0.000 NA
ENDBRANCH  11  12
ENDBRANCH   7  11
ENDBRANCH   1   7
BRANCH   4  18
ATOM     18  C   UNL     1      47.734   5.362  15.091  0.00  0.00    +0.000 C 
BRANCH  18  19
ATOM     19  C   UNL     1      47.775   4.463  16.339  0.00  0.00    +0.000 C 
BRANCH  19  20
ATOM     20  C   UNL     1      48.535   5.147  17.443  0.00  0.00    +0.000 A 
ATOM     21  C   UNL     1      49.715   4.589  17.942  0.00  0.00    +0.000 A 
ATOM     22  N   UNL     1      50.333   5.008  19.070  0.00  0.00    +0.000 NA
ATOM     23  C   UNL     1      49.779   6.053  19.722  0.00  0.00    +0.000 A 
ATOM     24  N   UNL     1      50.341   6.317  20.977  0.00  0.00    +0.000 NA
ATOM     25  C   UNL     1      49.845   7.297  21.644  0.00  0.00    +0.000 A 
ATOM     26  N   UNL     1      48.850   8.112  21.188  0.00  0.00    +0.000 N 
ATOM     27  C   UNL     1      48.211   7.899  20.000  0.00  0.00    +0.000 A 
ATOM     28  O   UNL     1      47.300   8.608  19.599  0.00  0.00    +0.000 OA
ATOM     29  C   UNL     1      48.683   6.738  19.226  0.00  0.00    +0.000 A 
ATOM     30  C   UNL     1      48.038   6.282  18.084  0.00  0.00    +0.000 A 
ATOM     31  H   UNL     1      48.531   8.898  21.735  0.00  0.00    +0.000 HD
ENDBRANCH  19  20
ENDBRANCH  18  19
ENDBRANCH   4  18
TORSDOF 7
ENDMDL
