MODEL 1
REMARK VINA RESULT:    -8.296      0.000      0.000
REMARK INTER + INTRA:         -12.485
REMARK INTER:                 -11.691
REMARK INTRA:                  -0.793
REMARK UNBOUND:                -0.793
REMARK  Name = 
REMARK  7 active torsions:
REMARK  status: ('A' for Active; 'I' for Inactive)
REMARK    1  A    between atoms: C_2  and  C_4
REMARK    2  A    between atoms: C_7  and  O_8
REMARK    3  A    between atoms: O_8  and  C_9
REMARK    4  A    between atoms: C_9  and  C_10
REMARK    5  A    between atoms: C_11  and  C_12
REMARK    6  A    between atoms: C_16  and  O_17
REMARK    7  A    between atoms: O_17  and  C_18
REMARK                            x       y       z     vdW  Elec       q    Type
REMARK                         _______ _______ _______ _____ _____    ______ ____
ROOT
ATOM      1  C   UNL     1      44.690   3.780  12.310  0.00  0.00    +0.000 C 
ATOM      2  C   UNL     1      45.021   5.074  12.162  0.00  0.00    +0.000 C 
ENDROOT
BRANCH   2   3
ATOM      3  C   UNL     1      46.206   5.691  12.773  0.00  0.00    +0.000 A 
ATOM      4  C   UNL     1      46.830   6.754  12.110  0.00  0.00    +0.000 A 
ATOM      5  C   UNL     1      47.980   7.344  12.643  0.00  0.00    +0.000 A 
ATOM      6  C   UNL     1      48.516   6.884  13.845  0.00  0.00    +0.000 A 
ATOM      7  C   UNL     1      47.892   5.839  14.521  0.00  0.00    +0.000 A 
ATOM      8  C   UNL     1      46.733   5.262  13.996  0.00  0.00    +0.000 A 
BRANCH   7   9
ATOM      9  O   UNL     1      48.306   5.319  15.721  0.00  0.00    +0.000 OA
BRANCH   9  10
ATOM     10  C   UNL     1      47.456   4.369  16.403  0.00  0.00    +0.000 C 
ATOM     11  C   UNL     1      47.133   4.620  17.888  0.00  0.00    +0.000 C 
ATOM     12  N   UNL     1      47.576   3.259  18.231  0.00  0.00    +0.000 NA
ATOM     13  C   UNL     1      48.180   3.101  16.900  0.00  0.00    +0.000 C 
ATOM     14  H   UNL     1      46.816   2.607  18.422  0.00  0.00    +0.000 HD
ENDBRANCH   9  10
ENDBRANCH   7   9
ENDBRANCH   2   3
BRANCH   1  15
ATOM     15  C   UNL     1      43.567   3.124  11.578  0.00  0.00    +0.000 C 
BRANCH  15  16
ATOM     16  O   UNL     1      43.494   3.660  10.260  0.00  0.00    +0.000 OA
BRANCH  16  20
ATOM     17  C   UNL     1      46.420   2.558   7.499  0.00  0.00    +0.000 A 
ATOM     18  C   UNL     1      45.900   1.578   8.349  0.00  0.00    +0.000 A 
ATOM     19  C   UNL     1      44.921   1.911   9.288  0.00  0.00    +0.000 A 
ATOM     20  C   UNL     1      44.458   3.224   9.390  0.00  0.00    +0.000 A 
ATOM     21  C   UNL     1      44.995   4.209   8.554  0.00  0.00    +0.000 A 
ATOM     22  C   UNL     1      45.979   3.881   7.616  0.00  0.00    +0.000 A 
BRANCH  17  24
ATOM     23  N   UNL     1      47.494   3.011   5.366  0.00  0.00    +0.000 N 
ATOM     24  C   UNL     1      47.449   2.225   6.484  0.00  0.00    +0.000 C 
ATOM     25  O   UNL     1      48.250   1.314   6.652  0.00  0.00    +0.000 OA
ATOM     26  H   UNL     1      48.264   2.840   4.731  0.00  0.00    +0.000 HD
ATOM     27  H   UNL     1      47.043   3.913   5.324  0.00  0.00    +0.000 HD
ENDBRANCH  17  24
ENDBRANCH  16  20
ENDBRANCH  15  16
ENDBRANCH   1  15
TORSDOF 7
ENDMDL
MODEL 2
REMARK VINA RESULT:    -7.442      3.810      5.187
REMARK INTER + INTRA:         -11.281
REMARK INTER:                 -10.585
REMARK INTRA:                  -0.696
REMARK UNBOUND:                -0.793
REMARK  Name = 
REMARK  7 active torsions:
REMARK  status: ('A' for Active; 'I' for Inactive)
REMARK    1  A    between atoms: C_2  and  C_4
REMARK    2  A    between atoms: C_7  and  O_8
REMARK    3  A    between atoms: O_8  and  C_9
REMARK    4  A    between atoms: C_9  and  C_10
REMARK    5  A    between atoms: C_11  and  C_12
REMARK    6  A    between atoms: C_16  and  O_17
REMARK    7  A    between atoms: O_17  and  C_18
REMARK                            x       y       z     vdW  Elec       q    Type
REMARK                         _______ _______ _______ _____ _____    ______ ____
ROOT
ATOM      1  C   UNL     1      44.486   5.277  11.554  0.00  0.00    +0.000 C 
ATOM      2  C   UNL     1      45.697   5.749  11.893  0.00  0.00    +0.000 C 
ENDROOT
BRANCH   2   3
ATOM      3  C   UNL     1      46.029   7.179  11.963  0.00  0.00    +0.000 A 
ATOM      4  C   UNL     1      47.368   7.553  12.118  0.00  0.00    +0.000 A 
ATOM      5  C   UNL     1      47.719   8.903  12.224  0.00  0.00    +0.000 A 
ATOM      6  C   UNL     1      46.737   9.892  12.170  0.00  0.00    +0.000 A 
ATOM      7  C   UNL     1      45.405   9.529  11.998  0.00  0.00    +0.000 A 
ATOM      8  C   UNL     1      45.058   8.182  11.875  0.00  0.00    +0.000 A 
BRANCH   7   9
ATOM      9  O   UNL     1      44.356  10.409  11.901  0.00  0.00    +0.000 OA
BRANCH   9  10
ATOM     10  C   UNL     1      43.252  10.089  11.026  0.00  0.00    +0.000 C 
ATOM     11  C   UNL     1      43.254  10.688   9.606  0.00  0.00    +0.000 C 
ATOM     12  N   UNL     1      41.897  11.218   9.811  0.00  0.00    +0.000 NA
ATOM     13  C   UNL     1      41.985  10.939  11.251  0.00  0.00    +0.000 C 
ATOM     14  H   UNL     1      41.166  10.694   9.331  0.00  0.00    +0.000 HD
ENDBRANCH   9  10
ENDBRANCH   7   9
ENDBRANCH   2   3
BRANCH   1  15
ATOM     15  C   UNL     1      44.113   3.832  11.618  0.00  0.00    +0.000 C 
BRANCH  15  16
ATOM     16  O   UNL     1      43.603   3.427  10.351  0.00  0.00    +0.000 OA
BRANCH  16  20
ATOM     17  C   UNL     1      46.490   2.610   7.455  0.00  0.00    +0.000 A 
ATOM     18  C   UNL     1      45.986   3.912   7.549  0.00  0.00    +0.000 A 
ATOM     19  C   UNL     1      45.016   4.220   8.504  0.00  0.00    +0.000 A 
ATOM     20  C   UNL     1      44.538   3.234   9.370  0.00  0.00    +0.000 A 
ATOM     21  C   UNL     1      45.027   1.929   9.260  0.00  0.00    +0.000 A 
ATOM     22  C   UNL     1      45.995   1.613   8.301  0.00  0.00    +0.000 A 
BRANCH  17  24
ATOM     23  N   UNL     1      47.498   2.932   5.266  0.00  0.00    +0.000 N 
ATOM     24  C   UNL     1      47.532   2.262   6.458  0.00  0.00    +0.000 C 
ATOM     25  O   UNL     1      48.407   1.440   6.700  0.00  0.00    +0.000 OA
ATOM     26  H   UNL     1      48.273   2.761   4.636  0.00  0.00    +0.000 HD
ATOM     27  H   UNL     1      46.973   3.785   5.144  0.00  0.00    +0.000 HD
ENDBRANCH  17  24
ENDBRANCH  16  20
ENDBRANCH  15  16
ENDBRANCH   1  15
TORSDOF 7
ENDMDL
MODEL 3
REMARK VINA RESULT:    -7.423      1.404      1.771
REMARK INTER + INTRA:         -11.254
REMARK INTER:                 -10.942
REMARK INTRA:                  -0.312
REMARK UNBOUND:                -0.793
REMARK  Name = 
REMARK  7 active torsions:
REMARK  status: ('A' for Active; 'I' for Inactive)
REMARK    1  A    between atoms: C_2  and  C_4
REMARK    2  A    between atoms: C_7  and  O_8
REMARK    3  A    between atoms: O_8  and  C_9
REMARK    4  A    between atoms: C_9  and  C_10
REMARK    5  A    between atoms: C_11  and  C_12
REMARK    6  A    between atoms: C_16  and  O_17
REMARK    7  A    between atoms: O_17  and  C_18
REMARK                            x       y       z     vdW  Elec       q    Type
REMARK                         _______ _______ _______ _____ _____    ______ ____
ROOT
ATOM      1  C   UNL     1      44.896   4.257  12.111  0.00  0.00    +0.000 C 
ATOM      2  C   UNL     1      44.637   5.482  12.597  0.00  0.00    +0.000 C 
ENDROOT
BRANCH   2   3
ATOM      3  C   UNL     1      45.675   6.472  12.918  0.00  0.00    +0.000 A 
ATOM      4  C   UNL     1      45.383   7.831  12.755  0.00  0.00    +0.000 A 
ATOM      5  C   UNL     1      46.355   8.801  13.017  0.00  0.00    +0.000 A 
ATOM      6  C   UNL     1      47.627   8.424  13.449  0.00  0.00    +0.000 A 
ATOM      7  C   UNL     1      47.921   7.076  13.630  0.00  0.00    +0.000 A 
ATOM      8  C   UNL     1      46.943   6.110  13.385  0.00  0.00    +0.000 A 
BRANCH   7   9
ATOM      9  O   UNL     1      49.122   6.585  14.077  0.00  0.00    +0.000 OA
BRANCH   9  10
ATOM     10  C   UNL     1      49.401   6.602  15.494  0.00  0.00    +0.000 C 
ATOM     11  C   UNL     1      48.507   5.756  16.421  0.00  0.00    +0.000 C 
ATOM     12  N   UNL     1      48.247   6.931  17.269  0.00  0.00    +0.000 NA
ATOM     13  C   UNL     1      48.824   7.818  16.248  0.00  0.00    +0.000 C 
ATOM     14  H   UNL     1      48.755   6.930  18.153  0.00  0.00    +0.000 HD
ENDBRANCH   9  10
ENDBRANCH   7   9
ENDBRANCH   2   3
BRANCH   1  15
ATOM     15  C   UNL     1      43.838   3.306  11.656  0.00  0.00    +0.000 C 
BRANCH  15  16
ATOM     16  O   UNL     1      43.555   3.548  10.281  0.00  0.00    +0.000 OA
BRANCH  16  20
ATOM     17  C   UNL     1      46.520   2.614   7.500  0.00  0.00    +0.000 A 
ATOM     18  C   UNL     1      45.983   1.582   8.277  0.00  0.00    +0.000 A 
ATOM     19  C   UNL     1      44.991   1.859   9.220  0.00  0.00    +0.000 A 
ATOM     20  C   UNL     1      44.531   3.165   9.400  0.00  0.00    +0.000 A 
ATOM     21  C   UNL     1      45.085   4.199   8.637  0.00  0.00    +0.000 A 
ATOM     22  C   UNL     1      46.082   3.928   7.695  0.00  0.00    +0.000 A 
BRANCH  17  24
ATOM     23  N   UNL     1      47.468   3.021   5.299  0.00  0.00    +0.000 N 
ATOM     24  C   UNL     1      47.564   2.342   6.482  0.00  0.00    +0.000 C 
ATOM     25  O   UNL     1      48.494   1.575   6.699  0.00  0.00    +0.000 OA
ATOM     26  H   UNL     1      48.240   2.907   4.654  0.00  0.00    +0.000 HD
ATOM     27  H   UNL     1      46.888   3.842   5.196  0.00  0.00    +0.000 HD
ENDBRANCH  17  24
ENDBRANCH  16  20
ENDBRANCH  15  16
ENDBRANCH   1  15
TORSDOF 7
ENDMDL
MODEL 4
REMARK VINA RESULT:    -7.211      2.087      3.115
REMARK INTER + INTRA:         -10.956
REMARK INTER:                 -10.187
REMARK INTRA:                  -0.769
REMARK UNBOUND:                -0.793
REMARK  Name = 
REMARK  7 active torsions:
REMARK  status: ('A' for Active; 'I' for Inactive)
REMARK    1  A    between atoms: C_2  and  C_4
REMARK    2  A    between atoms: C_7  and  O_8
REMARK    3  A    between atoms: O_8  and  C_9
REMARK    4  A    between atoms: C_9  and  C_10
REMARK    5  A    between atoms: C_11  and  C_12
REMARK    6  A    between atoms: C_16  and  O_17
REMARK    7  A    between atoms: O_17  and  C_18
REMARK                            x       y       z     vdW  Elec       q    Type
REMARK                         _______ _______ _______ _____ _____    ______ ____
ROOT
ATOM      1  C   UNL     1      44.408   4.712  12.078  0.00  0.00    +0.000 C 
ATOM      2  C   UNL     1      45.424   5.590  12.119  0.00  0.00    +0.000 C 
ENDROOT
BRANCH   2   3
ATOM      3  C   UNL     1      46.435   5.624  13.185  0.00  0.00    +0.000 A 
ATOM      4  C   UNL     1      46.348   4.693  14.226  0.00  0.00    +0.000 A 
ATOM      5  C   UNL     1      47.270   4.716  15.277  0.00  0.00    +0.000 A 
ATOM      6  C   UNL     1      48.292   5.666  15.296  0.00  0.00    +0.000 A 
ATOM      7  C   UNL     1      48.397   6.584  14.256  0.00  0.00    +0.000 A 
ATOM      8  C   UNL     1      47.485   6.548  13.198  0.00  0.00    +0.000 A 
BRANCH   7   9
ATOM      9  O   UNL     1      49.372   7.543  14.148  0.00  0.00    +0.000 OA
BRANCH   9  10
ATOM     10  C   UNL     1      49.479   8.551  15.178  0.00  0.00    +0.000 C 
ATOM     11  C   UNL     1      48.177   9.160  15.736  0.00  0.00    +0.000 C 
ATOM     12  N   UNL     1      48.681  10.517  15.472  0.00  0.00    +0.000 NA
ATOM     13  C   UNL     1      49.777   9.972  14.658  0.00  0.00    +0.000 C 
ATOM     14  H   UNL     1      48.991  11.018  16.304  0.00  0.00    +0.000 HD
ENDBRANCH   9  10
ENDBRANCH   7   9
ENDBRANCH   2   3
BRANCH   1  15
ATOM     15  C   UNL     1      43.467   4.589  10.926  0.00  0.00    +0.000 C 
BRANCH  15  16
ATOM     16  O   UNL     1      43.584   3.284  10.366  0.00  0.00    +0.000 OA
BRANCH  16  20
ATOM     17  C   UNL     1      46.480   2.630   7.436  0.00  0.00    +0.000 A 
ATOM     18  C   UNL     1      45.978   3.925   7.603  0.00  0.00    +0.000 A 
ATOM     19  C   UNL     1      45.006   4.180   8.572  0.00  0.00    +0.000 A 
ATOM     20  C   UNL     1      44.522   3.147   9.378  0.00  0.00    +0.000 A 
ATOM     21  C   UNL     1      45.009   1.848   9.194  0.00  0.00    +0.000 A 
ATOM     22  C   UNL     1      45.980   1.587   8.222  0.00  0.00    +0.000 A 
BRANCH  17  24
ATOM     23  N   UNL     1      47.436   3.001   5.232  0.00  0.00    +0.000 N 
ATOM     24  C   UNL     1      47.524   2.337   6.424  0.00  0.00    +0.000 C 
ATOM     25  O   UNL     1      48.448   1.566   6.654  0.00  0.00    +0.000 OA
ATOM     26  H   UNL     1      48.209   2.873   4.591  0.00  0.00    +0.000 HD
ATOM     27  H   UNL     1      46.862   3.824   5.116  0.00  0.00    +0.000 HD
ENDBRANCH  17  24
ENDBRANCH  16  20
ENDBRANCH  15  16
ENDBRANCH   1  15
TORSDOF 7
ENDMDL
MODEL 5
REMARK VINA RESULT:    -7.118      3.126      3.861
REMARK INTER + INTRA:         -10.824
REMARK INTER:                 -10.062
REMARK INTRA:                  -0.762
REMARK UNBOUND:                -0.793
REMARK  Name = 
REMARK  7 active torsions:
REMARK  status: ('A' for Active; 'I' for Inactive)
REMARK    1  A    between atoms: C_2  and  C_4
REMARK    2  A    between atoms: C_7  and  O_8
REMARK    3  A    between atoms: O_8  and  C_9
REMARK    4  A    between atoms: C_9  and  C_10
REMARK    5  A    between atoms: C_11  and  C_12
REMARK    6  A    between atoms: C_16  and  O_17
REMARK    7  A    between atoms: O_17  and  C_18
REMARK                            x       y       z     vdW  Elec       q    Type
REMARK                         _______ _______ _______ _____ _____    ______ ____
ROOT
ATOM      1  C   UNL     1      44.433   5.213  11.746  0.00  0.00    +0.000 C 
ATOM      2  C   UNL     1      45.766   5.380  11.759  0.00  0.00    +0.000 C 
ENDROOT
BRANCH   2   3
ATOM      3  C   UNL     1      46.434   6.609  12.209  0.00  0.00    +0.000 A 
ATOM      4  C   UNL     1      45.648   7.708  12.575  0.00  0.00    +0.000 A 
ATOM      5  C   UNL     1      46.246   8.906  12.976  0.00  0.00    +0.000 A 
ATOM      6  C   UNL     1      47.636   9.018  13.020  0.00  0.00    +0.000 A 
ATOM      7  C   UNL     1      48.426   7.925  12.676  0.00  0.00    +0.000 A 
ATOM      8  C   UNL     1      47.826   6.724  12.292  0.00  0.00    +0.000 A 
BRANCH   7   9
ATOM      9  O   UNL     1      49.797   7.904  12.707  0.00  0.00    +0.000 OA
BRANCH   9  10
ATOM     10  C   UNL     1      50.532   8.489  11.609  0.00  0.00    +0.000 C 
ATOM     11  C   UNL     1      51.350   7.550  10.701  0.00  0.00    +0.000 C 
ATOM     12  N   UNL     1      52.550   8.379  10.898  0.00  0.00    +0.000 NA
ATOM     13  C   UNL     1      51.894   9.099  11.999  0.00  0.00    +0.000 C 
ATOM     14  H   UNL     1      52.788   8.968  10.101  0.00  0.00    +0.000 HD
ENDBRANCH   9  10
ENDBRANCH   7   9
ENDBRANCH   2   3
BRANCH   1  15
ATOM     15  C   UNL     1      43.764   3.919  11.420  0.00  0.00    +0.000 C 
BRANCH  15  16
ATOM     16  O   UNL     1      43.477   3.881  10.025  0.00  0.00    +0.000 OA
BRANCH  16  20
ATOM     17  C   UNL     1      46.520   2.602   7.477  0.00  0.00    +0.000 A 
ATOM     18  C   UNL     1      45.936   1.671   8.341  0.00  0.00    +0.000 A 
ATOM     19  C   UNL     1      44.917   2.064   9.210  0.00  0.00    +0.000 A 
ATOM     20  C   UNL     1      44.476   3.389   9.228  0.00  0.00    +0.000 A 
ATOM     21  C   UNL     1      45.077   4.324   8.379  0.00  0.00    +0.000 A 
ATOM     22  C   UNL     1      46.101   3.936   7.510  0.00  0.00    +0.000 A 
BRANCH  17  24
ATOM     23  N   UNL     1      47.679   2.901   5.360  0.00  0.00    +0.000 N 
ATOM     24  C   UNL     1      47.595   2.204   6.534  0.00  0.00    +0.000 C 
ATOM     25  O   UNL     1      48.396   1.319   6.805  0.00  0.00    +0.000 OA
ATOM     26  H   UNL     1      48.476   2.691   4.773  0.00  0.00    +0.000 HD
ATOM     27  H   UNL     1      47.221   3.791   5.229  0.00  0.00    +0.000 HD
ENDBRANCH  17  24
ENDBRANCH  16  20
ENDBRANCH  15  16
ENDBRANCH   1  15
TORSDOF 7
ENDMDL
MODEL 6
REMARK VINA RESULT:    -6.920      1.604      8.437
REMARK INTER + INTRA:         -10.546
REMARK INTER:                 -10.396
REMARK INTRA:                  -0.150
REMARK UNBOUND:                -0.793
REMARK  Name = 
REMARK  7 active torsions:
REMARK  status: ('A' for Active; 'I' for Inactive)
REMARK    1  A    between atoms: C_2  and  C_4
REMARK    2  A    between atoms: C_7  and  O_8
REMARK    3  A    between atoms: O_8  and  C_9
REMARK    4  A    between atoms: C_9  and  C_10
REMARK    5  A    between atoms: C_11  and  C_12
REMARK    6  A    between atoms: C_16  and  O_17
REMARK    7  A    between atoms: O_17  and  C_18
REMARK                            x       y       z     vdW  Elec       q    Type
REMARK                         _______ _______ _______ _____ _____    ______ ____
ROOT
ATOM      1  C   UNL     1      46.632   6.405  11.332  0.00  0.00    +0.000 C 
ATOM      2  C   UNL     1      45.390   5.936  11.125  0.00  0.00    +0.000 C 
ENDROOT
BRANCH   2   3
ATOM      3  C   UNL     1      45.090   4.732  10.338  0.00  0.00    +0.000 A 
ATOM      4  C   UNL     1      44.349   3.705  10.933  0.00  0.00    +0.000 A 
ATOM      5  C   UNL     1      44.073   2.529  10.228  0.00  0.00    +0.000 A 
ATOM      6  C   UNL     1      44.531   2.369   8.921  0.00  0.00    +0.000 A 
ATOM      7  C   UNL     1      45.254   3.392   8.314  0.00  0.00    +0.000 A 
ATOM      8  C   UNL     1      45.513   4.573   9.014  0.00  0.00    +0.000 A 
BRANCH   7   9
ATOM      9  O   UNL     1      45.731   3.364   7.028  0.00  0.00    +0.000 OA
BRANCH   9  10
ATOM     10  C   UNL     1      47.140   3.132   6.809  0.00  0.00    +0.000 C 
ATOM     11  C   UNL     1      47.613   2.844   5.371  0.00  0.00    +0.000 C 
ATOM     12  N   UNL     1      48.298   1.622   5.825  0.00  0.00    +0.000 NA
ATOM     13  C   UNL     1      47.611   1.696   7.122  0.00  0.00    +0.000 C 
ATOM     14  H   UNL     1      49.312   1.709   5.887  0.00  0.00    +0.000 HD
ENDBRANCH   9  10
ENDBRANCH   7   9
ENDBRANCH   2   3
BRANCH   1  15
ATOM     15  C   UNL     1      46.944   7.546  12.244  0.00  0.00    +0.000 C 
BRANCH  15  16
ATOM     16  O   UNL     1      48.203   7.311  12.869  0.00  0.00    +0.000 OA
BRANCH  16  20
ATOM     17  C   UNL     1      47.891   4.994  16.323  0.00  0.00    +0.000 A 
ATOM     18  C   UNL     1      48.706   6.130  16.351  0.00  0.00    +0.000 A 
ATOM     19  C   UNL     1      48.836   6.927  15.212  0.00  0.00    +0.000 A 
ATOM     20  C   UNL     1      48.160   6.596  14.036  0.00  0.00    +0.000 A 
ATOM     21  C   UNL     1      47.363   5.447  14.003  0.00  0.00    +0.000 A 
ATOM     22  C   UNL     1      47.233   4.643  15.139  0.00  0.00    +0.000 A 
BRANCH  17  24
ATOM     23  N   UNL     1      46.762   3.171  17.468  0.00  0.00    +0.000 N 
ATOM     24  C   UNL     1      47.724   4.140  17.524  0.00  0.00    +0.000 C 
ATOM     25  O   UNL     1      48.440   4.267  18.510  0.00  0.00    +0.000 OA
ATOM     26  H   UNL     1      46.727   2.529  18.250  0.00  0.00    +0.000 HD
ATOM     27  H   UNL     1      46.353   2.869  16.595  0.00  0.00    +0.000 HD
ENDBRANCH  17  24
ENDBRANCH  16  20
ENDBRANCH  15  16
ENDBRANCH   1  15
TORSDOF 7
ENDMDL
MODEL 7
REMARK VINA RESULT:    -6.681      3.477      7.992
REMARK INTER + INTRA:         -10.209
REMARK INTER:                  -9.508
REMARK INTRA:                  -0.701
REMARK UNBOUND:                -0.793
REMARK  Name = 
REMARK  7 active torsions:
REMARK  status: ('A' for Active; 'I' for Inactive)
REMARK    1  A    between atoms: C_2  and  C_4
REMARK    2  A    between atoms: C_7  and  O_8
REMARK    3  A    between atoms: O_8  and  C_9
REMARK    4  A    between atoms: C_9  and  C_10
REMARK    5  A    between atoms: C_11  and  C_12
REMARK    6  A    between atoms: C_16  and  O_17
REMARK    7  A    between atoms: O_17  and  C_18
REMARK                            x       y       z     vdW  Elec       q    Type
REMARK                         _______ _______ _______ _____ _____    ______ ____
ROOT
ATOM      1  C   UNL     1      45.090   6.848  11.802  0.00  0.00    +0.000 C 
ATOM      2  C   UNL     1      45.741   6.231  10.801  0.00  0.00    +0.000 C 
ENDROOT
BRANCH   2   3
ATOM      3  C   UNL     1      45.297   4.971  10.189  0.00  0.00    +0.000 A 
ATOM      4  C   UNL     1      44.500   4.101  10.941  0.00  0.00    +0.000 A 
ATOM      5  C   UNL     1      44.087   2.877  10.406  0.00  0.00    +0.000 A 
ATOM      6  C   UNL     1      44.462   2.511   9.113  0.00  0.00    +0.000 A 
ATOM      7  C   UNL     1      45.239   3.378   8.352  0.00  0.00    +0.000 A 
ATOM      8  C   UNL     1      45.636   4.608   8.881  0.00  0.00    +0.000 A 
BRANCH   7   9
ATOM      9  O   UNL     1      45.646   3.144   7.062  0.00  0.00    +0.000 OA
BRANCH   9  10
ATOM     10  C   UNL     1      47.059   3.029   6.783  0.00  0.00    +0.000 C 
ATOM     11  C   UNL     1      47.493   2.775   5.327  0.00  0.00    +0.000 C 
ATOM     12  N   UNL     1      48.296   1.617   5.753  0.00  0.00    +0.000 NA
ATOM     13  C   UNL     1      47.660   1.639   7.078  0.00  0.00    +0.000 C 
ATOM     14  H   UNL     1      49.301   1.788   5.772  0.00  0.00    +0.000 HD
ENDBRANCH   9  10
ENDBRANCH   7   9
ENDBRANCH   2   3
BRANCH   1  15
ATOM     15  C   UNL     1      45.464   8.195  12.326  0.00  0.00    +0.000 C 
BRANCH  15  16
ATOM     16  O   UNL     1      46.596   8.063  13.180  0.00  0.00    +0.000 OA
BRANCH  16  20
ATOM     17  C   UNL     1      50.340   8.844  11.516  0.00  0.00    +0.000 A 
ATOM     18  C   UNL     1      49.473   9.917  11.745  0.00  0.00    +0.000 A 
ATOM     19  C   UNL     1      48.211   9.692  12.298  0.00  0.00    +0.000 A 
ATOM     20  C   UNL     1      47.801   8.397  12.622  0.00  0.00    +0.000 A 
ATOM     21  C   UNL     1      48.661   7.323  12.371  0.00  0.00    +0.000 A 
ATOM     22  C   UNL     1      49.924   7.542  11.813  0.00  0.00    +0.000 A 
BRANCH  17  24
ATOM     23  N   UNL     1      52.745   8.508  11.618  0.00  0.00    +0.000 N 
ATOM     24  C   UNL     1      51.692   9.059  10.943  0.00  0.00    +0.000 C 
ATOM     25  O   UNL     1      51.858   9.669   9.894  0.00  0.00    +0.000 OA
ATOM     26  H   UNL     1      53.649   8.572  11.164  0.00  0.00    +0.000 HD
ATOM     27  H   UNL     1      52.621   7.788  12.315  0.00  0.00    +0.000 HD
ENDBRANCH  17  24
ENDBRANCH  16  20
ENDBRANCH  15  16
ENDBRANCH   1  15
TORSDOF 7
ENDMDL
MODEL 8
REMARK VINA RESULT:    -6.655      2.995      8.263
REMARK INTER + INTRA:         -10.172
REMARK INTER:                  -9.532
REMARK INTRA:                  -0.640
REMARK UNBOUND:                -0.793
REMARK  Name = 
REMARK  7 active torsions:
REMARK  status: ('A' for Active; 'I' for Inactive)
REMARK    1  A    between atoms: C_2  and  C_4
REMARK    2  A    between atoms: C_7  and  O_8
REMARK    3  A    between atoms: O_8  and  C_9
REMARK    4  A    between atoms: C_9  and  C_10
REMARK    5  A    between atoms: C_11  and  C_12
REMARK    6  A    between atoms: C_16  and  O_17
REMARK    7  A    between atoms: O_17  and  C_18
REMARK                            x       y       z     vdW  Elec       q    Type
REMARK                         _______ _______ _______ _____ _____    ______ ____
ROOT
ATOM      1  C   UNL     1      44.751   6.695  11.739  0.00  0.00    +0.000 C 
ATOM      2  C   UNL     1      45.582   6.035  10.916  0.00  0.00    +0.000 C 
ENDROOT
BRANCH   2   3
ATOM      3  C   UNL     1      45.218   4.807  10.196  0.00  0.00    +0.000 A 
ATOM      4  C   UNL     1      44.489   3.821  10.870  0.00  0.00    +0.000 A 
ATOM      5  C   UNL     1      44.153   2.624  10.229  0.00  0.00    +0.000 A 
ATOM      6  C   UNL     1      44.537   2.402   8.907  0.00  0.00    +0.000 A 
ATOM      7  C   UNL     1      45.247   3.385   8.222  0.00  0.00    +0.000 A 
ATOM      8  C   UNL     1      45.566   4.586   8.858  0.00  0.00    +0.000 A 
BRANCH   7   9
ATOM      9  O   UNL     1      45.654   3.295   6.915  0.00  0.00    +0.000 OA
BRANCH   9  10
ATOM     10  C   UNL     1      47.066   3.184   6.628  0.00  0.00    +0.000 C 
ATOM     11  C   UNL     1      47.486   2.760   5.207  0.00  0.00    +0.000 C 
ATOM     12  N   UNL     1      48.329   1.687   5.760  0.00  0.00    +0.000 NA
ATOM     13  C   UNL     1      47.712   1.859   7.083  0.00  0.00    +0.000 C 
ATOM     14  H   UNL     1      49.328   1.886   5.740  0.00  0.00    +0.000 HD
ENDBRANCH   9  10
ENDBRANCH   7   9
ENDBRANCH   2   3
BRANCH   1  15
ATOM     15  C   UNL     1      45.075   8.014  12.359  0.00  0.00    +0.000 C 
BRANCH  15  16
ATOM     16  O   UNL     1      46.278   8.515  11.785  0.00  0.00    +0.000 OA
BRANCH  16  20
ATOM     17  C   UNL     1      49.665   7.841  14.124  0.00  0.00    +0.000 A 
ATOM     18  C   UNL     1      49.709   7.497  12.770  0.00  0.00    +0.000 A 
ATOM     19  C   UNL     1      48.592   7.705  11.957  0.00  0.00    +0.000 A 
ATOM     20  C   UNL     1      47.423   8.253  12.490  0.00  0.00    +0.000 A 
ATOM     21  C   UNL     1      47.374   8.576  13.849  0.00  0.00    +0.000 A 
ATOM     22  C   UNL     1      48.488   8.365  14.668  0.00  0.00    +0.000 A 
BRANCH  17  24
ATOM     23  N   UNL     1      52.076   7.805  14.436  0.00  0.00    +0.000 N 
ATOM     24  C   UNL     1      50.843   7.643  15.004  0.00  0.00    +0.000 C 
ATOM     25  O   UNL     1      50.722   7.384  16.195  0.00  0.00    +0.000 OA
ATOM     26  H   UNL     1      52.867   7.770  15.067  0.00  0.00    +0.000 HD
ATOM     27  H   UNL     1      52.202   8.275  13.551  0.00  0.00    +0.000 HD
ENDBRANCH  17  24
ENDBRANCH  16  20
ENDBRANCH  15  16
ENDBRANCH   1  15
TORSDOF 7
ENDMDL
MODEL 9
REMARK VINA RESULT:    -6.636      2.372      8.491
REMARK INTER + INTRA:         -10.145
REMARK INTER:                  -9.608
REMARK INTRA:                  -0.537
REMARK UNBOUND:                -0.793
REMARK  Name = 
REMARK  7 active torsions:
REMARK  status: ('A' for Active; 'I' for Inactive)
REMARK    1  A    between atoms: C_2  and  C_4
REMARK    2  A    between atoms: C_7  and  O_8
REMARK    3  A    between atoms: O_8  and  C_9
REMARK    4  A    between atoms: C_9  and  C_10
REMARK    5  A    between atoms: C_11  and  C_12
REMARK    6  A    between atoms: C_16  and  O_17
REMARK    7  A    between atoms: O_17  and  C_18
REMARK                            x       y       z     vdW  Elec       q    Type
REMARK                         _______ _______ _______ _____ _____    ______ ____
ROOT
ATOM      1  C   UNL     1      46.931   5.051  14.110  0.00  0.00    +0.000 C 
ATOM      2  C   UNL     1      46.309   5.841  13.220  0.00  0.00    +0.000 C 
ENDROOT
BRANCH   2   3
ATOM      3  C   UNL     1      45.413   5.342  12.167  0.00  0.00    +0.000 A 
ATOM      4  C   UNL     1      44.127   4.920  12.521  0.00  0.00    +0.000 A 
ATOM      5  C   UNL     1      43.258   4.407  11.553  0.00  0.00    +0.000 A 
ATOM      6  C   UNL     1      43.662   4.315  10.222  0.00  0.00    +0.000 A 
ATOM      7  C   UNL     1      44.933   4.749   9.857  0.00  0.00    +0.000 A 
ATOM      8  C   UNL     1      45.793   5.278  10.822  0.00  0.00    +0.000 A 
BRANCH   7   9
ATOM      9  O   UNL     1      45.433   4.737   8.579  0.00  0.00    +0.000 OA
BRANCH   9  10
ATOM     10  C   UNL     1      45.366   3.514   7.814  0.00  0.00    +0.000 C 
ATOM     11  C   UNL     1      45.833   2.208   8.488  0.00  0.00    +0.000 C 
ATOM     12  N   UNL     1      46.732   1.928   7.356  0.00  0.00    +0.000 NA
ATOM     13  C   UNL     1      46.548   3.295   6.847  0.00  0.00    +0.000 C 
ATOM     14  H   UNL     1      46.396   1.201   6.725  0.00  0.00    +0.000 HD
ENDBRANCH   9  10
ENDBRANCH   7   9
ENDBRANCH   2   3
BRANCH   1  15
ATOM     15  C   UNL     1      47.728   5.569  15.262  0.00  0.00    +0.000 C 
BRANCH  15  16
ATOM     16  O   UNL     1      47.522   4.722  16.389  0.00  0.00    +0.000 OA
BRANCH  16  20
ATOM     17  C   UNL     1      50.784   2.307  17.347  0.00  0.00    +0.000 A 
ATOM     18  C   UNL     1      49.690   1.727  16.696  0.00  0.00    +0.000 A 
ATOM     19  C   UNL     1      48.580   2.505  16.363  0.00  0.00    +0.000 A 
ATOM     20  C   UNL     1      48.548   3.864  16.680  0.00  0.00    +0.000 A 
ATOM     21  C   UNL     1      49.633   4.438  17.351  0.00  0.00    +0.000 A 
ATOM     22  C   UNL     1      50.746   3.662  17.691  0.00  0.00    +0.000 A 
BRANCH  17  24
ATOM     23  N   UNL     1      51.768   0.216  18.102  0.00  0.00    +0.000 N 
ATOM     24  C   UNL     1      51.981   1.505  17.698  0.00  0.00    +0.000 C 
ATOM     25  O   UNL     1      53.115   1.958  17.594  0.00  0.00    +0.000 OA
ATOM     26  H   UNL     1      52.594  -0.352  18.239  0.00  0.00    +0.000 HD
ATOM     27  H   UNL     1      50.892  -0.260  17.940  0.00  0.00    +0.000 HD
ENDBRANCH  17  24
ENDBRANCH  16  20
ENDBRANCH  15  16
ENDBRANCH   1  15
TORSDOF 7
ENDMDL
