MODEL 1
REMARK VINA RESULT:    -8.173      0.000      0.000
REMARK INTER + INTRA:         -14.336
REMARK INTER:                 -12.712
REMARK INTRA:                  -1.624
REMARK UNBOUND:                -1.624
REMARK  Name = 
REMARK  10 active torsions:
REMARK  status: ('A' for Active; 'I' for Inactive)
REMARK    1  A    between atoms: N_1  and  C_2
REMARK    2  A    between atoms: C_2  and  C_3
REMARK    3  A    between atoms: C_3  and  N_4
REMARK    4  A    between atoms: N_4  and  C_5
REMARK    5  A    between atoms: N_4  and  C_12
REMARK    6  A    between atoms: C_5  and  C_6
REMARK    7  A    between atoms: C_12  and  C_13
REMARK    8  A    between atoms: C_16  and  C_17
REMARK    9  A    between atoms: C_17  and  N_18
REMARK   10  A    between atoms: C_19  and  C_21
REMARK                            x       y       z     vdW  Elec       q    Type
REMARK                         _______ _______ _______ _____ _____    ______ ____
ROOT
ATOM      1  C   UNL     1      44.834   5.960  11.016  0.00  0.00    +0.000 A 
ATOM      2  C   UNL     1      46.226   5.936  10.854  0.00  0.00    +0.000 A 
ATOM      3  C   UNL     1      47.048   6.756  11.634  0.00  0.00    +0.000 A 
ATOM      4  C   UNL     1      46.492   7.612  12.596  0.00  0.00    +0.000 A 
ATOM      5  C   UNL     1      45.098   7.673  12.721  0.00  0.00    +0.000 A 
ATOM      6  C   UNL     1      44.278   6.854  11.943  0.00  0.00    +0.000 A 
ENDROOT
BRANCH   1   7
ATOM      7  C   UNL     1      43.944   5.027  10.217  0.00  0.00    +0.000 C 
BRANCH   7   8
ATOM      8  N   UNL     1      44.522   3.677   9.996  0.00  0.00    +0.000 NA
BRANCH   8   9
ATOM      9  C   UNL     1      43.814   2.683  10.854  0.00  0.00    +0.000 C 
BRANCH   9  10
ATOM     10  C   UNL     1      44.038   2.821  12.380  0.00  0.00    +0.000 C 
BRANCH  10  11
ATOM     11  N   UNL     1      45.464   2.779  12.724  0.00  0.00    +0.000 NA
ATOM     12  H   UNL     1      45.583   3.078  13.691  0.00  0.00    +0.000 HD
ATOM     13  H   UNL     1      45.973   3.451  12.152  0.00  0.00    +0.000 HD
ENDBRANCH  10  11
ENDBRANCH   9  10
ENDBRANCH   8   9
BRANCH   8  14
ATOM     14  C   UNL     1      44.390   3.301   8.574  0.00  0.00    +0.000 C 
BRANCH  14  15
ATOM     15  C   UNL     1      45.655   2.849   7.866  0.00  0.00    +0.000 A 
ATOM     16  C   UNL     1      46.193   1.573   8.088  0.00  0.00    +0.000 A 
ATOM     17  C   UNL     1      47.233   1.095   7.286  0.00  0.00    +0.000 A 
ATOM     18  C   UNL     1      47.755   1.890   6.266  0.00  0.00    +0.000 A 
ATOM     19  C   UNL     1      47.265   3.179   6.071  0.00  0.00    +0.000 A 
ATOM     20  C   UNL     1      46.223   3.657   6.869  0.00  0.00    +0.000 A 
ENDBRANCH  14  15
ENDBRANCH   8  14
ENDBRANCH   7   8
ENDBRANCH   1   7
BRANCH   4  21
ATOM     21  C   UNL     1      47.368   8.473  13.467  0.00  0.00    +0.000 C 
BRANCH  21  22
ATOM     22  N   UNL     1      47.674   7.815  14.711  0.00  0.00    +0.000 N 
ATOM     23  C   UNL     1      48.795   7.041  14.847  0.00  0.00    +0.000 C 
ATOM     24  O   UNL     1      49.608   6.905  13.937  0.00  0.00    +0.000 OA
ATOM     25  H   UNL     1      46.916   7.725  15.381  0.00  0.00    +0.000 HD
BRANCH  23  26
ATOM     26  C   UNL     1      49.013   6.430  16.165  0.00  0.00    +0.000 A 
ATOM     27  C   UNL     1      49.849   7.053  17.081  0.00  0.00    +0.000 A 
ATOM     28  S   UNL     1      49.943   6.250  18.581  0.00  0.00    +0.000 S 
ATOM     29  C   UNL     1      48.913   5.007  18.040  0.00  0.00    +0.000 A 
ATOM     30  N   UNL     1      48.589   3.962  18.851  0.00  0.00    +0.000 NA
ATOM     31  C   UNL     1      47.820   3.083  18.304  0.00  0.00    +0.000 A 
ATOM     32  N   UNL     1      47.342   3.154  17.021  0.00  0.00    +0.000 N 
ATOM     33  C   UNL     1      47.620   4.199  16.176  0.00  0.00    +0.000 A 
ATOM     34  O   UNL     1      47.151   4.245  15.043  0.00  0.00    +0.000 OA
ATOM     35  C   UNL     1      48.489   5.214  16.740  0.00  0.00    +0.000 A 
ATOM     36  H   UNL     1      46.737   2.432  16.655  0.00  0.00    +0.000 HD
ENDBRANCH  23  26
ENDBRANCH  21  22
ENDBRANCH   4  21
TORSDOF 10
ENDMDL
MODEL 2
REMARK VINA RESULT:    -7.652      1.839      2.276
REMARK INTER + INTRA:         -13.525
REMARK INTER:                 -12.026
REMARK INTRA:                  -1.499
REMARK UNBOUND:                -1.624
REMARK  Name = 
REMARK  10 active torsions:
REMARK  status: ('A' for Active; 'I' for Inactive)
REMARK    1  A    between atoms: N_1  and  C_2
REMARK    2  A    between atoms: C_2  and  C_3
REMARK    3  A    between atoms: C_3  and  N_4
REMARK    4  A    between atoms: N_4  and  C_5
REMARK    5  A    between atoms: N_4  and  C_12
REMARK    6  A    between atoms: C_5  and  C_6
REMARK    7  A    between atoms: C_12  and  C_13
REMARK    8  A    between atoms: C_16  and  C_17
REMARK    9  A    between atoms: C_17  and  N_18
REMARK   10  A    between atoms: C_19  and  C_21
REMARK                            x       y       z     vdW  Elec       q    Type
REMARK                         _______ _______ _______ _____ _____    ______ ____
ROOT
ATOM      1  C   UNL     1      45.417   6.592  11.441  0.00  0.00    +0.000 A 
ATOM      2  C   UNL     1      46.578   5.884  11.782  0.00  0.00    +0.000 A 
ATOM      3  C   UNL     1      47.479   6.403  12.717  0.00  0.00    +0.000 A 
ATOM      4  C   UNL     1      47.232   7.637  13.335  0.00  0.00    +0.000 A 
ATOM      5  C   UNL     1      46.098   8.367  12.957  0.00  0.00    +0.000 A 
ATOM      6  C   UNL     1      45.198   7.849  12.023  0.00  0.00    +0.000 A 
ENDROOT
BRANCH   1   7
ATOM      7  C   UNL     1      44.405   6.004  10.475  0.00  0.00    +0.000 C 
BRANCH   7   8
ATOM      8  N   UNL     1      44.391   4.519  10.440  0.00  0.00    +0.000 NA
BRANCH   8   9
ATOM      9  C   UNL     1      43.255   4.010  11.262  0.00  0.00    +0.000 C 
BRANCH   9  10
ATOM     10  C   UNL     1      43.638   3.162  12.500  0.00  0.00    +0.000 C 
BRANCH  10  11
ATOM     11  N   UNL     1      45.048   2.756  12.463  0.00  0.00    +0.000 NA
ATOM     12  H   UNL     1      45.466   3.080  11.591  0.00  0.00    +0.000 HD
ATOM     13  H   UNL     1      45.111   1.739  12.449  0.00  0.00    +0.000 HD
ENDBRANCH  10  11
ENDBRANCH   9  10
ENDBRANCH   8   9
BRANCH   8  14
ATOM     14  C   UNL     1      44.253   4.052   9.045  0.00  0.00    +0.000 C 
BRANCH  14  15
ATOM     15  C   UNL     1      45.418   3.266   8.470  0.00  0.00    +0.000 A 
ATOM     16  C   UNL     1      45.539   1.886   8.689  0.00  0.00    +0.000 A 
ATOM     17  C   UNL     1      46.494   1.140   7.992  0.00  0.00    +0.000 A 
ATOM     18  C   UNL     1      47.346   1.766   7.083  0.00  0.00    +0.000 A 
ATOM     19  C   UNL     1      47.272   3.144   6.898  0.00  0.00    +0.000 A 
ATOM     20  C   UNL     1      46.315   3.891   7.590  0.00  0.00    +0.000 A 
ENDBRANCH  14  15
ENDBRANCH   8  14
ENDBRANCH   7   8
ENDBRANCH   1   7
BRANCH   4  21
ATOM     21  C   UNL     1      48.176   8.189  14.370  0.00  0.00    +0.000 C 
BRANCH  21  22
ATOM     22  N   UNL     1      48.061   7.474  15.614  0.00  0.00    +0.000 N 
ATOM     23  C   UNL     1      49.068   6.659  16.060  0.00  0.00    +0.000 C 
ATOM     24  O   UNL     1      50.125   6.533  15.446  0.00  0.00    +0.000 OA
ATOM     25  H   UNL     1      47.130   7.382  16.007  0.00  0.00    +0.000 HD
BRANCH  23  26
ATOM     26  C   UNL     1      48.848   5.990  17.349  0.00  0.00    +0.000 A 
ATOM     27  C   UNL     1      49.096   4.630  17.468  0.00  0.00    +0.000 A 
ATOM     28  S   UNL     1      48.852   4.024  19.043  0.00  0.00    +0.000 S 
ATOM     29  C   UNL     1      48.349   5.549  19.609  0.00  0.00    +0.000 A 
ATOM     30  N   UNL     1      47.969   5.725  20.904  0.00  0.00    +0.000 NA
ATOM     31  C   UNL     1      47.590   6.925  21.189  0.00  0.00    +0.000 A 
ATOM     32  N   UNL     1      47.561   7.966  20.298  0.00  0.00    +0.000 N 
ATOM     33  C   UNL     1      47.957   7.843  18.991  0.00  0.00    +0.000 A 
ATOM     34  O   UNL     1      47.945   8.804  18.227  0.00  0.00    +0.000 OA
ATOM     35  C   UNL     1      48.387   6.509  18.615  0.00  0.00    +0.000 A 
ATOM     36  H   UNL     1      47.258   8.885  20.588  0.00  0.00    +0.000 HD
ENDBRANCH  23  26
ENDBRANCH  21  22
ENDBRANCH   4  21
TORSDOF 10
ENDMDL
MODEL 3
REMARK VINA RESULT:    -7.636      2.669      3.788
REMARK INTER + INTRA:         -13.500
REMARK INTER:                 -12.118
REMARK INTRA:                  -1.382
REMARK UNBOUND:                -1.624
REMARK  Name = 
REMARK  10 active torsions:
REMARK  status: ('A' for Active; 'I' for Inactive)
REMARK    1  A    between atoms: N_1  and  C_2
REMARK    2  A    between atoms: C_2  and  C_3
REMARK    3  A    between atoms: C_3  and  N_4
REMARK    4  A    between atoms: N_4  and  C_5
REMARK    5  A    between atoms: N_4  and  C_12
REMARK    6  A    between atoms: C_5  and  C_6
REMARK    7  A    between atoms: C_12  and  C_13
REMARK    8  A    between atoms: C_16  and  C_17
REMARK    9  A    between atoms: C_17  and  N_18
REMARK   10  A    between atoms: C_19  and  C_21
REMARK                            x       y       z     vdW  Elec       q    Type
REMARK                         _______ _______ _______ _____ _____    ______ ____
ROOT
ATOM      1  C   UNL     1      46.276   5.383  12.109  0.00  0.00    +0.000 A 
ATOM      2  C   UNL     1      46.944   6.433  12.755  0.00  0.00    +0.000 A 
ATOM      3  C   UNL     1      47.503   6.246  14.023  0.00  0.00    +0.000 A 
ATOM      4  C   UNL     1      47.412   5.004  14.666  0.00  0.00    +0.000 A 
ATOM      5  C   UNL     1      46.700   3.971  14.042  0.00  0.00    +0.000 A 
ATOM      6  C   UNL     1      46.141   4.157  12.776  0.00  0.00    +0.000 A 
ENDROOT
BRANCH   1   7
ATOM      7  C   UNL     1      45.724   5.562  10.707  0.00  0.00    +0.000 C 
BRANCH   7   8
ATOM      8  N   UNL     1      44.591   4.659  10.381  0.00  0.00    +0.000 NA
BRANCH   8   9
ATOM      9  C   UNL     1      43.309   5.287  10.817  0.00  0.00    +0.000 C 
BRANCH   9  10
ATOM     10  C   UNL     1      42.693   4.735  12.126  0.00  0.00    +0.000 C 
BRANCH  10  11
ATOM     11  N   UNL     1      42.859   5.674  13.241  0.00  0.00    +0.000 NA
ATOM     12  H   UNL     1      43.811   6.039  13.231  0.00  0.00    +0.000 HD
ATOM     13  H   UNL     1      42.753   5.179  14.125  0.00  0.00    +0.000 HD
ENDBRANCH  10  11
ENDBRANCH   9  10
ENDBRANCH   8   9
BRANCH   8  14
ATOM     14  C   UNL     1      44.557   4.401   8.927  0.00  0.00    +0.000 C 
BRANCH  14  15
ATOM     15  C   UNL     1      45.554   3.390   8.390  0.00  0.00    +0.000 A 
ATOM     16  C   UNL     1      45.487   2.039   8.759  0.00  0.00    +0.000 A 
ATOM     17  C   UNL     1      46.276   1.087   8.106  0.00  0.00    +0.000 A 
ATOM     18  C   UNL     1      47.149   1.476   7.091  0.00  0.00    +0.000 A 
ATOM     19  C   UNL     1      47.264   2.822   6.753  0.00  0.00    +0.000 A 
ATOM     20  C   UNL     1      46.474   3.775   7.401  0.00  0.00    +0.000 A 
ENDBRANCH  14  15
ENDBRANCH   8  14
ENDBRANCH   7   8
ENDBRANCH   1   7
BRANCH   4  21
ATOM     21  C   UNL     1      48.041   4.781  16.016  0.00  0.00    +0.000 C 
BRANCH  21  22
ATOM     22  N   UNL     1      47.732   5.858  16.920  0.00  0.00    +0.000 N 
ATOM     23  C   UNL     1      48.527   6.125  18.003  0.00  0.00    +0.000 C 
ATOM     24  O   UNL     1      49.555   5.493  18.229  0.00  0.00    +0.000 OA
ATOM     25  H   UNL     1      46.788   6.230  16.885  0.00  0.00    +0.000 HD
BRANCH  23  26
ATOM     26  C   UNL     1      48.123   7.256  18.848  0.00  0.00    +0.000 A 
ATOM     27  C   UNL     1      47.874   7.049  20.198  0.00  0.00    +0.000 A 
ATOM     28  S   UNL     1      47.479   8.474  21.048  0.00  0.00    +0.000 S 
ATOM     29  C   UNL     1      47.570   9.409  19.629  0.00  0.00    +0.000 A 
ATOM     30  N   UNL     1      47.317  10.747  19.654  0.00  0.00    +0.000 NA
ATOM     31  C   UNL     1      47.400  11.326  18.504  0.00  0.00    +0.000 A 
ATOM     32  N   UNL     1      47.716  10.690  17.331  0.00  0.00    +0.000 N 
ATOM     33  C   UNL     1      48.002   9.350  17.261  0.00  0.00    +0.000 A 
ATOM     34  O   UNL     1      48.309   8.819  16.197  0.00  0.00    +0.000 OA
ATOM     35  C   UNL     1      47.916   8.648  18.527  0.00  0.00    +0.000 A 
ATOM     36  H   UNL     1      47.769  11.204  16.463  0.00  0.00    +0.000 HD
ENDBRANCH  23  26
ENDBRANCH  21  22
ENDBRANCH   4  21
TORSDOF 10
ENDMDL
MODEL 4
REMARK VINA RESULT:    -7.612      1.825      2.243
REMARK INTER + INTRA:         -13.462
REMARK INTER:                 -12.268
REMARK INTRA:                  -1.194
REMARK UNBOUND:                -1.624
REMARK  Name = 
REMARK  10 active torsions:
REMARK  status: ('A' for Active; 'I' for Inactive)
REMARK    1  A    between atoms: N_1  and  C_2
REMARK    2  A    between atoms: C_2  and  C_3
REMARK    3  A    between atoms: C_3  and  N_4
REMARK    4  A    between atoms: N_4  and  C_5
REMARK    5  A    between atoms: N_4  and  C_12
REMARK    6  A    between atoms: C_5  and  C_6
REMARK    7  A    between atoms: C_12  and  C_13
REMARK    8  A    between atoms: C_16  and  C_17
REMARK    9  A    between atoms: C_17  and  N_18
REMARK   10  A    between atoms: C_19  and  C_21
REMARK                            x       y       z     vdW  Elec       q    Type
REMARK                         _______ _______ _______ _____ _____    ______ ____
ROOT
ATOM      1  C   UNL     1      46.109   5.922  11.478  0.00  0.00    +0.000 A 
ATOM      2  C   UNL     1      46.248   5.330  12.741  0.00  0.00    +0.000 A 
ATOM      3  C   UNL     1      47.284   5.715  13.598  0.00  0.00    +0.000 A 
ATOM      4  C   UNL     1      48.196   6.706  13.211  0.00  0.00    +0.000 A 
ATOM      5  C   UNL     1      48.087   7.262  11.929  0.00  0.00    +0.000 A 
ATOM      6  C   UNL     1      47.053   6.877  11.073  0.00  0.00    +0.000 A 
ENDROOT
BRANCH   1   7
ATOM      7  C   UNL     1      44.950   5.553  10.571  0.00  0.00    +0.000 C 
BRANCH   7   8
ATOM      8  N   UNL     1      44.602   4.110  10.588  0.00  0.00    +0.000 NA
BRANCH   8   9
ATOM      9  C   UNL     1      43.402   3.894  11.447  0.00  0.00    +0.000 C 
BRANCH   9  10
ATOM     10  C   UNL     1      42.595   5.162  11.818  0.00  0.00    +0.000 C 
BRANCH  10  11
ATOM     11  N   UNL     1      42.587   5.394  13.267  0.00  0.00    +0.000 NA
ATOM     12  H   UNL     1      43.539   5.321  13.623  0.00  0.00    +0.000 HD
ATOM     13  H   UNL     1      42.053   4.659  13.728  0.00  0.00    +0.000 HD
ENDBRANCH  10  11
ENDBRANCH   9  10
ENDBRANCH   8   9
BRANCH   8  14
ATOM     14  C   UNL     1      44.328   3.644   9.212  0.00  0.00    +0.000 C 
BRANCH  14  15
ATOM     15  C   UNL     1      45.485   3.006   8.465  0.00  0.00    +0.000 A 
ATOM     16  C   UNL     1      45.754   1.634   8.579  0.00  0.00    +0.000 A 
ATOM     17  C   UNL     1      46.686   1.023   7.735  0.00  0.00    +0.000 A 
ATOM     18  C   UNL     1      47.368   1.777   6.781  0.00  0.00    +0.000 A 
ATOM     19  C   UNL     1      47.149   3.149   6.694  0.00  0.00    +0.000 A 
ATOM     20  C   UNL     1      46.215   3.761   7.533  0.00  0.00    +0.000 A 
ENDBRANCH  14  15
ENDBRANCH   8  14
ENDBRANCH   7   8
ENDBRANCH   1   7
BRANCH   4  21
ATOM     21  C   UNL     1      49.294   7.156  14.139  0.00  0.00    +0.000 C 
BRANCH  21  22
ATOM     22  N   UNL     1      48.926   6.957  15.517  0.00  0.00    +0.000 N 
ATOM     23  C   UNL     1      49.408   7.773  16.505  0.00  0.00    +0.000 C 
ATOM     24  O   UNL     1      50.137   8.731  16.261  0.00  0.00    +0.000 OA
ATOM     25  H   UNL     1      48.526   6.055  15.759  0.00  0.00    +0.000 HD
BRANCH  23  26
ATOM     26  C   UNL     1      48.955   7.485  17.872  0.00  0.00    +0.000 A 
ATOM     27  C   UNL     1      48.397   8.499  18.638  0.00  0.00    +0.000 A 
ATOM     28  S   UNL     1      47.865   7.983  20.174  0.00  0.00    +0.000 S 
ATOM     29  C   UNL     1      48.415   6.397  19.891  0.00  0.00    +0.000 A 
ATOM     30  N   UNL     1      48.280   5.429  20.839  0.00  0.00    +0.000 NA
ATOM     31  C   UNL     1      48.761   4.281  20.499  0.00  0.00    +0.000 A 
ATOM     32  N   UNL     1      49.360   4.011  19.296  0.00  0.00    +0.000 N 
ATOM     33  C   UNL     1      49.495   4.947  18.302  0.00  0.00    +0.000 A 
ATOM     34  O   UNL     1      50.011   4.662  17.224  0.00  0.00    +0.000 OA
ATOM     35  C   UNL     1      48.977   6.260  18.635  0.00  0.00    +0.000 A 
ATOM     36  H   UNL     1      49.711   3.087  19.090  0.00  0.00    +0.000 HD
ENDBRANCH  23  26
ENDBRANCH  21  22
ENDBRANCH   4  21
TORSDOF 10
ENDMDL
MODEL 5
REMARK VINA RESULT:    -6.820      2.547      3.102
REMARK INTER + INTRA:         -12.231
REMARK INTER:                 -11.970
REMARK INTRA:                  -0.261
REMARK UNBOUND:                -1.624
REMARK  Name = 
REMARK  10 active torsions:
REMARK  status: ('A' for Active; 'I' for Inactive)
REMARK    1  A    between atoms: N_1  and  C_2
REMARK    2  A    between atoms: C_2  and  C_3
REMARK    3  A    between atoms: C_3  and  N_4
REMARK    4  A    between atoms: N_4  and  C_5
REMARK    5  A    between atoms: N_4  and  C_12
REMARK    6  A    between atoms: C_5  and  C_6
REMARK    7  A    between atoms: C_12  and  C_13
REMARK    8  A    between atoms: C_16  and  C_17
REMARK    9  A    between atoms: C_17  and  N_18
REMARK   10  A    between atoms: C_19  and  C_21
REMARK                            x       y       z     vdW  Elec       q    Type
REMARK                         _______ _______ _______ _____ _____    ______ ____
ROOT
ATOM      1  C   UNL     1      46.229   4.981  12.164  0.00  0.00    +0.000 A 
ATOM      2  C   UNL     1      46.333   4.241  13.351  0.00  0.00    +0.000 A 
ATOM      3  C   UNL     1      47.006   4.765  14.459  0.00  0.00    +0.000 A 
ATOM      4  C   UNL     1      47.581   6.042  14.405  0.00  0.00    +0.000 A 
ATOM      5  C   UNL     1      47.521   6.760  13.203  0.00  0.00    +0.000 A 
ATOM      6  C   UNL     1      46.849   6.237  12.096  0.00  0.00    +0.000 A 
ENDROOT
BRANCH   1   7
ATOM      7  C   UNL     1      45.447   4.443  10.981  0.00  0.00    +0.000 C 
BRANCH   7   8
ATOM      8  N   UNL     1      44.379   3.478  11.347  0.00  0.00    +0.000 NA
BRANCH   8   9
ATOM      9  C   UNL     1      43.092   4.207  11.541  0.00  0.00    +0.000 C 
BRANCH   9  10
ATOM     10  C   UNL     1      43.058   5.672  11.040  0.00  0.00    +0.000 C 
BRANCH  10  11
ATOM     11  N   UNL     1      42.073   6.473  11.776  0.00  0.00    +0.000 NA
ATOM     12  H   UNL     1      42.084   7.428  11.418  0.00  0.00    +0.000 HD
ATOM     13  H   UNL     1      42.343   6.532  12.756  0.00  0.00    +0.000 HD
ENDBRANCH  10  11
ENDBRANCH   9  10
ENDBRANCH   8   9
BRANCH   8  14
ATOM     14  C   UNL     1      44.230   2.467  10.280  0.00  0.00    +0.000 C 
BRANCH  14  15
ATOM     15  C   UNL     1      45.079   2.656   9.037  0.00  0.00    +0.000 A 
ATOM     16  C   UNL     1      45.194   3.911   8.420  0.00  0.00    +0.000 A 
ATOM     17  C   UNL     1      46.132   4.117   7.405  0.00  0.00    +0.000 A 
ATOM     18  C   UNL     1      46.953   3.071   6.985  0.00  0.00    +0.000 A 
ATOM     19  C   UNL     1      46.811   1.807   7.552  0.00  0.00    +0.000 A 
ATOM     20  C   UNL     1      45.878   1.599   8.570  0.00  0.00    +0.000 A 
ENDBRANCH  14  15
ENDBRANCH   8  14
ENDBRANCH   7   8
ENDBRANCH   1   7
BRANCH   4  21
ATOM     21  C   UNL     1      48.276   6.632  15.604  0.00  0.00    +0.000 C 
BRANCH  21  22
ATOM     22  N   UNL     1      49.390   5.817  16.013  0.00  0.00    +0.000 N 
ATOM     23  C   UNL     1      49.914   5.914  17.275  0.00  0.00    +0.000 C 
ATOM     24  O   UNL     1      49.436   6.662  18.123  0.00  0.00    +0.000 OA
ATOM     25  H   UNL     1      49.933   5.378  15.276  0.00  0.00    +0.000 HD
BRANCH  23  26
ATOM     26  C   UNL     1      51.041   5.025  17.586  0.00  0.00    +0.000 A 
ATOM     27  C   UNL     1      52.238   5.565  18.035  0.00  0.00    +0.000 A 
ATOM     28  S   UNL     1      53.419   4.395  18.411  0.00  0.00    +0.000 S 
ATOM     29  C   UNL     1      52.391   3.126  17.932  0.00  0.00    +0.000 A 
ATOM     30  N   UNL     1      52.806   1.830  17.986  0.00  0.00    +0.000 NA
ATOM     31  C   UNL     1      51.934   0.974  17.571  0.00  0.00    +0.000 A 
ATOM     32  N   UNL     1      50.683   1.296  17.110  0.00  0.00    +0.000 N 
ATOM     33  C   UNL     1      50.213   2.584  17.061  0.00  0.00    +0.000 A 
ATOM     34  O   UNL     1      49.076   2.833  16.669  0.00  0.00    +0.000 OA
ATOM     35  C   UNL     1      51.158   3.588  17.510  0.00  0.00    +0.000 A 
ATOM     36  H   UNL     1      50.045   0.575  16.804  0.00  0.00    +0.000 HD
ENDBRANCH  23  26
ENDBRANCH  21  22
ENDBRANCH   4  21
TORSDOF 10
ENDMDL
MODEL 6
REMARK VINA RESULT:    -6.465      3.016      8.471
REMARK INTER + INTRA:         -11.680
REMARK INTER:                  -9.730
REMARK INTRA:                  -1.949
REMARK UNBOUND:                -1.624
REMARK  Name = 
REMARK  10 active torsions:
REMARK  status: ('A' for Active; 'I' for Inactive)
REMARK    1  A    between atoms: N_1  and  C_2
REMARK    2  A    between atoms: C_2  and  C_3
REMARK    3  A    between atoms: C_3  and  N_4
REMARK    4  A    between atoms: N_4  and  C_5
REMARK    5  A    between atoms: N_4  and  C_12
REMARK    6  A    between atoms: C_5  and  C_6
REMARK    7  A    between atoms: C_12  and  C_13
REMARK    8  A    between atoms: C_16  and  C_17
REMARK    9  A    between atoms: C_17  and  N_18
REMARK   10  A    between atoms: C_19  and  C_21
REMARK                            x       y       z     vdW  Elec       q    Type
REMARK                         _______ _______ _______ _____ _____    ______ ____
ROOT
ATOM      1  C   UNL     1      49.404   8.258  15.759  0.00  0.00    +0.000 A 
ATOM      2  C   UNL     1      50.024   7.461  14.788  0.00  0.00    +0.000 A 
ATOM      3  C   UNL     1      49.461   7.322  13.515  0.00  0.00    +0.000 A 
ATOM      4  C   UNL     1      48.270   7.984  13.188  0.00  0.00    +0.000 A 
ATOM      5  C   UNL     1      47.623   8.739  14.175  0.00  0.00    +0.000 A 
ATOM      6  C   UNL     1      48.186   8.878  15.446  0.00  0.00    +0.000 A 
ENDROOT
BRANCH   1   7
ATOM      7  C   UNL     1      50.044   8.463  17.119  0.00  0.00    +0.000 C 
BRANCH   7   8
ATOM      8  N   UNL     1      50.500   7.209  17.771  0.00  0.00    +0.000 NA
BRANCH   8   9
ATOM      9  C   UNL     1      51.352   7.539  18.951  0.00  0.00    +0.000 C 
BRANCH   9  10
ATOM     10  C   UNL     1      50.638   7.540  20.325  0.00  0.00    +0.000 C 
BRANCH  10  11
ATOM     11  N   UNL     1      50.238   8.894  20.726  0.00  0.00    +0.000 NA
ATOM     12  H   UNL     1      49.781   9.354  19.941  0.00  0.00    +0.000 HD
ATOM     13  H   UNL     1      51.068   9.447  20.938  0.00  0.00    +0.000 HD
ENDBRANCH  10  11
ENDBRANCH   9  10
ENDBRANCH   8   9
BRANCH   8  14
ATOM     14  C   UNL     1      49.332   6.413  18.199  0.00  0.00    +0.000 C 
BRANCH  14  15
ATOM     15  C   UNL     1      49.151   5.057  17.540  0.00  0.00    +0.000 A 
ATOM     16  C   UNL     1      50.019   3.992  17.821  0.00  0.00    +0.000 A 
ATOM     17  C   UNL     1      49.726   2.702  17.370  0.00  0.00    +0.000 A 
ATOM     18  C   UNL     1      48.572   2.465  16.623  0.00  0.00    +0.000 A 
ATOM     19  C   UNL     1      47.730   3.524  16.292  0.00  0.00    +0.000 A 
ATOM     20  C   UNL     1      48.019   4.814  16.745  0.00  0.00    +0.000 A 
ENDBRANCH  14  15
ENDBRANCH   8  14
ENDBRANCH   7   8
ENDBRANCH   1   7
BRANCH   4  21
ATOM     21  C   UNL     1      47.673   7.872  11.810  0.00  0.00    +0.000 C 
BRANCH  21  22
ATOM     22  N   UNL     1      46.977   6.622  11.645  0.00  0.00    +0.000 N 
ATOM     23  C   UNL     1      45.609   6.560  11.691  0.00  0.00    +0.000 C 
ATOM     24  O   UNL     1      44.916   7.563  11.833  0.00  0.00    +0.000 OA
ATOM     25  H   UNL     1      47.523   5.774  11.759  0.00  0.00    +0.000 HD
BRANCH  23  26
ATOM     26  C   UNL     1      45.007   5.235  11.496  0.00  0.00    +0.000 A 
ATOM     27  C   UNL     1      44.316   4.634  12.539  0.00  0.00    +0.000 A 
ATOM     28  S   UNL     1      43.626   3.130  12.128  0.00  0.00    +0.000 S 
ATOM     29  C   UNL     1      44.275   3.202  10.556  0.00  0.00    +0.000 A 
ATOM     30  N   UNL     1      44.071   2.192   9.666  0.00  0.00    +0.000 NA
ATOM     31  C   UNL     1      44.639   2.367   8.522  0.00  0.00    +0.000 A 
ATOM     32  N   UNL     1      45.391   3.463   8.184  0.00  0.00    +0.000 N 
ATOM     33  C   UNL     1      45.604   4.516   9.037  0.00  0.00    +0.000 A 
ATOM     34  O   UNL     1      46.258   5.495   8.690  0.00  0.00    +0.000 OA
ATOM     35  C   UNL     1      44.991   4.366  10.343  0.00  0.00    +0.000 A 
ATOM     36  H   UNL     1      45.805   3.541   7.265  0.00  0.00    +0.000 HD
ENDBRANCH  23  26
ENDBRANCH  21  22
ENDBRANCH   4  21
TORSDOF 10
ENDMDL
MODEL 7
REMARK VINA RESULT:    -6.319      3.110      8.660
REMARK INTER + INTRA:         -11.452
REMARK INTER:                  -9.668
REMARK INTRA:                  -1.785
REMARK UNBOUND:                -1.624
REMARK  Name = 
REMARK  10 active torsions:
REMARK  status: ('A' for Active; 'I' for Inactive)
REMARK    1  A    between atoms: N_1  and  C_2
REMARK    2  A    between atoms: C_2  and  C_3
REMARK    3  A    between atoms: C_3  and  N_4
REMARK    4  A    between atoms: N_4  and  C_5
REMARK    5  A    between atoms: N_4  and  C_12
REMARK    6  A    between atoms: C_5  and  C_6
REMARK    7  A    between atoms: C_12  and  C_13
REMARK    8  A    between atoms: C_16  and  C_17
REMARK    9  A    between atoms: C_17  and  N_18
REMARK   10  A    between atoms: C_19  and  C_21
REMARK                            x       y       z     vdW  Elec       q    Type
REMARK                         _______ _______ _______ _____ _____    ______ ____
ROOT
ATOM      1  C   UNL     1      50.373   7.315  15.382  0.00  0.00    +0.000 A 
ATOM      2  C   UNL     1      50.826   7.905  14.194  0.00  0.00    +0.000 A 
ATOM      3  C   UNL     1      49.976   8.029  13.091  0.00  0.00    +0.000 A 
ATOM      4  C   UNL     1      48.653   7.571  13.157  0.00  0.00    +0.000 A 
ATOM      5  C   UNL     1      48.216   6.935  14.326  0.00  0.00    +0.000 A 
ATOM      6  C   UNL     1      49.065   6.811  15.428  0.00  0.00    +0.000 A 
ENDROOT
BRANCH   1   7
ATOM      7  C   UNL     1      51.272   7.235  16.601  0.00  0.00    +0.000 C 
BRANCH   7   8
ATOM      8  N   UNL     1      51.719   5.860  16.938  0.00  0.00    +0.000 NA
BRANCH   8   9
ATOM      9  C   UNL     1      53.202   5.841  17.100  0.00  0.00    +0.000 C 
BRANCH   9  10
ATOM     10  C   UNL     1      53.767   4.772  18.067  0.00  0.00    +0.000 C 
BRANCH  10  11
ATOM     11  N   UNL     1      54.767   3.923  17.410  0.00  0.00    +0.000 NA
ATOM     12  H   UNL     1      55.673   4.388  17.442  0.00  0.00    +0.000 HD
ATOM     13  H   UNL     1      54.533   3.819  16.424  0.00  0.00    +0.000 HD
ENDBRANCH  10  11
ENDBRANCH   9  10
ENDBRANCH   8   9
BRANCH   8  14
ATOM     14  C   UNL     1      51.069   5.413  18.187  0.00  0.00    +0.000 C 
BRANCH  14  15
ATOM     15  C   UNL     1      49.771   4.639  18.042  0.00  0.00    +0.000 A 
ATOM     16  C   UNL     1      48.548   5.190  18.452  0.00  0.00    +0.000 A 
ATOM     17  C   UNL     1      47.344   4.558  18.130  0.00  0.00    +0.000 A 
ATOM     18  C   UNL     1      47.349   3.364  17.410  0.00  0.00    +0.000 A 
ATOM     19  C   UNL     1      48.558   2.779  17.045  0.00  0.00    +0.000 A 
ATOM     20  C   UNL     1      49.763   3.411  17.362  0.00  0.00    +0.000 A 
ENDBRANCH  14  15
ENDBRANCH   8  14
ENDBRANCH   7   8
ENDBRANCH   1   7
BRANCH   4  21
ATOM     21  C   UNL     1      47.717   7.732  11.989  0.00  0.00    +0.000 C 
BRANCH  21  22
ATOM     22  N   UNL     1      46.993   6.514  11.730  0.00  0.00    +0.000 N 
ATOM     23  C   UNL     1      45.653   6.415  11.997  0.00  0.00    +0.000 C 
ATOM     24  O   UNL     1      45.002   7.363  12.426  0.00  0.00    +0.000 OA
ATOM     25  H   UNL     1      47.544   5.672  11.601  0.00  0.00    +0.000 HD
BRANCH  23  26
ATOM     26  C   UNL     1      45.017   5.130  11.679  0.00  0.00    +0.000 A 
ATOM     27  C   UNL     1      44.331   4.440  12.670  0.00  0.00    +0.000 A 
ATOM     28  S   UNL     1      43.598   3.002  12.122  0.00  0.00    +0.000 S 
ATOM     29  C   UNL     1      44.220   3.220  10.553  0.00  0.00    +0.000 A 
ATOM     30  N   UNL     1      43.976   2.311   9.568  0.00  0.00    +0.000 NA
ATOM     31  C   UNL     1      44.527   2.590   8.437  0.00  0.00    +0.000 A 
ATOM     32  N   UNL     1      45.298   3.698   8.197  0.00  0.00    +0.000 N 
ATOM     33  C   UNL     1      45.552   4.653   9.148  0.00  0.00    +0.000 A 
ATOM     34  O   UNL     1      46.223   5.648   8.890  0.00  0.00    +0.000 OA
ATOM     35  C   UNL     1      44.959   4.384  10.445  0.00  0.00    +0.000 A 
ATOM     36  H   UNL     1      45.698   3.861   7.283  0.00  0.00    +0.000 HD
ENDBRANCH  23  26
ENDBRANCH  21  22
ENDBRANCH   4  21
TORSDOF 10
ENDMDL
MODEL 8
REMARK VINA RESULT:    -6.288      3.503      8.306
REMARK INTER + INTRA:         -11.404
REMARK INTER:                  -8.874
REMARK INTRA:                  -2.530
REMARK UNBOUND:                -1.624
REMARK  Name = 
REMARK  10 active torsions:
REMARK  status: ('A' for Active; 'I' for Inactive)
REMARK    1  A    between atoms: N_1  and  C_2
REMARK    2  A    between atoms: C_2  and  C_3
REMARK    3  A    between atoms: C_3  and  N_4
REMARK    4  A    between atoms: N_4  and  C_5
REMARK    5  A    between atoms: N_4  and  C_12
REMARK    6  A    between atoms: C_5  and  C_6
REMARK    7  A    between atoms: C_12  and  C_13
REMARK    8  A    between atoms: C_16  and  C_17
REMARK    9  A    between atoms: C_17  and  N_18
REMARK   10  A    between atoms: C_19  and  C_21
REMARK                            x       y       z     vdW  Elec       q    Type
REMARK                         _______ _______ _______ _____ _____    ______ ____
ROOT
ATOM      1  C   UNL     1      51.164   7.081  17.287  0.00  0.00    +0.000 A 
ATOM      2  C   UNL     1      50.361   8.056  17.894  0.00  0.00    +0.000 A 
ATOM      3  C   UNL     1      49.415   8.765  17.147  0.00  0.00    +0.000 A 
ATOM      4  C   UNL     1      49.248   8.507  15.779  0.00  0.00    +0.000 A 
ATOM      5  C   UNL     1      50.087   7.569  15.162  0.00  0.00    +0.000 A 
ATOM      6  C   UNL     1      51.032   6.860  15.908  0.00  0.00    +0.000 A 
ENDROOT
BRANCH   1   7
ATOM      7  C   UNL     1      52.147   6.265  18.106  0.00  0.00    +0.000 C 
BRANCH   7   8
ATOM      8  N   UNL     1      51.985   4.796  17.962  0.00  0.00    +0.000 NA
BRANCH   8   9
ATOM      9  C   UNL     1      53.291   4.122  18.220  0.00  0.00    +0.000 C 
BRANCH   9  10
ATOM     10  C   UNL     1      53.290   2.577  18.116  0.00  0.00    +0.000 C 
BRANCH  10  11
ATOM     11  N   UNL     1      53.886   1.954  19.303  0.00  0.00    +0.000 NA
ATOM     12  H   UNL     1      53.977   0.952  19.145  0.00  0.00    +0.000 HD
ATOM     13  H   UNL     1      53.257   2.062  20.098  0.00  0.00    +0.000 HD
ENDBRANCH  10  11
ENDBRANCH   9  10
ENDBRANCH   8   9
BRANCH   8  14
ATOM     14  C   UNL     1      50.968   4.308  18.917  0.00  0.00    +0.000 C 
BRANCH  14  15
ATOM     15  C   UNL     1      49.579   4.050  18.362  0.00  0.00    +0.000 A 
ATOM     16  C   UNL     1      48.516   4.924  18.630  0.00  0.00    +0.000 A 
ATOM     17  C   UNL     1      47.301   4.790  17.953  0.00  0.00    +0.000 A 
ATOM     18  C   UNL     1      47.129   3.773  17.014  0.00  0.00    +0.000 A 
ATOM     19  C   UNL     1      48.159   2.866  16.779  0.00  0.00    +0.000 A 
ATOM     20  C   UNL     1      49.376   3.001  17.450  0.00  0.00    +0.000 A 
ENDBRANCH  14  15
ENDBRANCH   8  14
ENDBRANCH   7   8
ENDBRANCH   1   7
BRANCH   4  21
ATOM     21  C   UNL     1      48.209   9.237  14.972  0.00  0.00    +0.000 C 
BRANCH  21  22
ATOM     22  N   UNL     1      47.258   8.322  14.396  0.00  0.00    +0.000 N 
ATOM     23  C   UNL     1      47.085   8.239  13.039  0.00  0.00    +0.000 C 
ATOM     24  O   UNL     1      47.756   8.905  12.255  0.00  0.00    +0.000 OA
ATOM     25  H   UNL     1      46.549   7.946  15.017  0.00  0.00    +0.000 HD
BRANCH  23  26
ATOM     26  C   UNL     1      46.098   7.261  12.564  0.00  0.00    +0.000 A 
ATOM     27  C   UNL     1      44.992   7.696  11.847  0.00  0.00    +0.000 A 
ATOM     28  S   UNL     1      43.981   6.431  11.314  0.00  0.00    +0.000 S 
ATOM     29  C   UNL     1      44.956   5.260  12.074  0.00  0.00    +0.000 A 
ATOM     30  N   UNL     1      44.634   3.938  12.021  0.00  0.00    +0.000 NA
ATOM     31  C   UNL     1      45.447   3.166  12.659  0.00  0.00    +0.000 A 
ATOM     32  N   UNL     1      46.555   3.595  13.342  0.00  0.00    +0.000 N 
ATOM     33  C   UNL     1      46.933   4.912  13.403  0.00  0.00    +0.000 A 
ATOM     34  O   UNL     1      47.949   5.257  14.001  0.00  0.00    +0.000 OA
ATOM     35  C   UNL     1      46.047   5.826  12.707  0.00  0.00    +0.000 A 
ATOM     36  H   UNL     1      47.155   2.936  13.818  0.00  0.00    +0.000 HD
ENDBRANCH  23  26
ENDBRANCH  21  22
ENDBRANCH   4  21
TORSDOF 10
ENDMDL
MODEL 9
REMARK VINA RESULT:    -6.274      4.388      7.423
REMARK INTER + INTRA:         -11.382
REMARK INTER:                  -9.613
REMARK INTRA:                  -1.769
REMARK UNBOUND:                -1.624
REMARK  Name = 
REMARK  10 active torsions:
REMARK  status: ('A' for Active; 'I' for Inactive)
REMARK    1  A    between atoms: N_1  and  C_2
REMARK    2  A    between atoms: C_2  and  C_3
REMARK    3  A    between atoms: C_3  and  N_4
REMARK    4  A    between atoms: N_4  and  C_5
REMARK    5  A    between atoms: N_4  and  C_12
REMARK    6  A    between atoms: C_5  and  C_6
REMARK    7  A    between atoms: C_12  and  C_13
REMARK    8  A    between atoms: C_16  and  C_17
REMARK    9  A    between atoms: C_17  and  N_18
REMARK   10  A    between atoms: C_19  and  C_21
REMARK                            x       y       z     vdW  Elec       q    Type
REMARK                         _______ _______ _______ _____ _____    ______ ____
ROOT
ATOM      1  C   UNL     1      48.482   7.123  14.164  0.00  0.00    +0.000 A 
ATOM      2  C   UNL     1      48.087   8.412  14.549  0.00  0.00    +0.000 A 
ATOM      3  C   UNL     1      48.256   9.497  13.683  0.00  0.00    +0.000 A 
ATOM      4  C   UNL     1      48.816   9.313  12.412  0.00  0.00    +0.000 A 
ATOM      5  C   UNL     1      49.257   8.034  12.047  0.00  0.00    +0.000 A 
ATOM      6  C   UNL     1      49.088   6.950  12.911  0.00  0.00    +0.000 A 
ENDROOT
BRANCH   1   7
ATOM      7  C   UNL     1      48.243   5.934  15.074  0.00  0.00    +0.000 C 
BRANCH   7   8
ATOM      8  N   UNL     1      47.563   4.790  14.414  0.00  0.00    +0.000 NA
BRANCH   8   9
ATOM      9  C   UNL     1      47.424   3.664  15.383  0.00  0.00    +0.000 C 
BRANCH   9  10
ATOM     10  C   UNL     1      47.136   4.063  16.852  0.00  0.00    +0.000 C 
BRANCH  10  11
ATOM     11  N   UNL     1      46.705   2.910  17.651  0.00  0.00    +0.000 NA
ATOM     12  H   UNL     1      47.364   2.145  17.517  0.00  0.00    +0.000 HD
ATOM     13  H   UNL     1      45.805   2.574  17.309  0.00  0.00    +0.000 HD
ENDBRANCH  10  11
ENDBRANCH   9  10
ENDBRANCH   8   9
BRANCH   8  14
ATOM     14  C   UNL     1      46.230   5.209  13.933  0.00  0.00    +0.000 C 
BRANCH  14  15
ATOM     15  C   UNL     1      45.867   4.825  12.510  0.00  0.00    +0.000 A 
ATOM     16  C   UNL     1      45.271   3.589  12.222  0.00  0.00    +0.000 A 
ATOM     17  C   UNL     1      44.757   3.331  10.947  0.00  0.00    +0.000 A 
ATOM     18  C   UNL     1      44.848   4.296   9.945  0.00  0.00    +0.000 A 
ATOM     19  C   UNL     1      45.487   5.507  10.204  0.00  0.00    +0.000 A 
ATOM     20  C   UNL     1      45.996   5.769  11.478  0.00  0.00    +0.000 A 
ENDBRANCH  14  15
ENDBRANCH   8  14
ENDBRANCH   7   8
ENDBRANCH   1   7
BRANCH   4  21
ATOM     21  C   UNL     1      48.969  10.466  11.457  0.00  0.00    +0.000 C 
BRANCH  21  22
ATOM     22  N   UNL     1      47.745  10.717  10.741  0.00  0.00    +0.000 N 
ATOM     23  C   UNL     1      46.902  11.732  11.111  0.00  0.00    +0.000 C 
ATOM     24  O   UNL     1      47.168  12.496  12.035  0.00  0.00    +0.000 OA
ATOM     25  H   UNL     1      47.403   9.973  10.142  0.00  0.00    +0.000 HD
BRANCH  23  26
ATOM     26  C   UNL     1      45.690  11.904  10.301  0.00  0.00    +0.000 A 
ATOM     27  C   UNL     1      45.728  12.706   9.169  0.00  0.00    +0.000 A 
ATOM     28  S   UNL     1      44.257  12.747   8.308  0.00  0.00    +0.000 S 
ATOM     29  C   UNL     1      43.499  11.740   9.451  0.00  0.00    +0.000 A 
ATOM     30  N   UNL     1      42.189  11.389   9.317  0.00  0.00    +0.000 NA
ATOM     31  C   UNL     1      41.739  10.641  10.267  0.00  0.00    +0.000 A 
ATOM     32  N   UNL     1      42.478  10.209  11.337  0.00  0.00    +0.000 N 
ATOM     33  C   UNL     1      43.805  10.516  11.502  0.00  0.00    +0.000 A 
ATOM     34  O   UNL     1      44.445  10.087  12.458  0.00  0.00    +0.000 OA
ATOM     35  C   UNL     1      44.362  11.362  10.463  0.00  0.00    +0.000 A 
ATOM     36  H   UNL     1      42.065   9.620  12.046  0.00  0.00    +0.000 HD
ENDBRANCH  23  26
ENDBRANCH  21  22
ENDBRANCH   4  21
TORSDOF 10
ENDMDL
