MODEL 1
REMARK VINA RESULT:    -7.166      0.000      0.000
REMARK INTER + INTRA:         -11.269
REMARK INTER:                 -10.098
REMARK INTRA:                  -1.171
REMARK UNBOUND:                -1.171
REMARK  Name = 
REMARK  8 active torsions:
REMARK  status: ('A' for Active; 'I' for Inactive)
REMARK    1  A    between atoms: C_1  and  N_2
REMARK    2  A    between atoms: N_2  and  C_3
REMARK    3  A    between atoms: N_2  and  C_16
REMARK    4  A    between atoms: C_3  and  C_4
REMARK    5  A    between atoms: C_4  and  C_5
REMARK    6  A    between atoms: C_9  and  N_10
REMARK    7  A    between atoms: N_10  and  C_11
REMARK    8  A    between atoms: C_20  and  C_21
REMARK                            x       y       z     vdW  Elec       q    Type
REMARK                         _______ _______ _______ _____ _____    ______ ____
ROOT
ATOM      1  C   UNL     1      47.576   5.765  13.288  0.00  0.00    +0.000 C 
ENDROOT
BRANCH   1   3
ATOM      2  C   UNL     1      48.755   7.127  15.042  0.00  0.00    +0.000 C 
ATOM      3  N   UNL     1      47.756   7.058  13.983  0.00  0.00    +0.000 N 
BRANCH   3   4
ATOM      4  C   UNL     1      47.433   8.218  13.272  0.00  0.00    +0.000 A 
ATOM      5  C   UNL     1      48.393   9.158  12.871  0.00  0.00    +0.000 A 
ATOM      6  C   UNL     1      48.036  10.281  12.112  0.00  0.00    +0.000 A 
ATOM      7  C   UNL     1      46.707  10.486  11.754  0.00  0.00    +0.000 A 
ATOM      8  C   UNL     1      45.723   9.580  12.158  0.00  0.00    +0.000 A 
ATOM      9  C   UNL     1      46.096   8.464  12.921  0.00  0.00    +0.000 A 
BRANCH   8  10
ATOM     10  C   UNL     1      44.316   9.840  11.741  0.00  0.00    +0.000 C 
ATOM     11  N   UNL     1      43.656   8.889  11.013  0.00  0.00    +0.000 N 
ATOM     12  O   UNL     1      43.746  10.889  12.026  0.00  0.00    +0.000 OA
ATOM     13  H   UNL     1      44.030   7.997  10.742  0.00  0.00    +0.000 HD
ATOM     14  H   UNL     1      42.705   9.105  10.742  0.00  0.00    +0.000 HD
ENDBRANCH   8  10
ENDBRANCH   3   4
ENDBRANCH   1   3
BRANCH   1  15
ATOM     15  C   UNL     1      46.498   4.880  13.934  0.00  0.00    +0.000 C 
BRANCH  15  16
ATOM     16  C   UNL     1      45.321   4.630  13.015  0.00  0.00    +0.000 A 
ATOM     17  C   UNL     1      44.172   5.422  13.109  0.00  0.00    +0.000 A 
ATOM     18  C   UNL     1      43.077   5.172  12.281  0.00  0.00    +0.000 A 
ATOM     19  C   UNL     1      43.112   4.129  11.351  0.00  0.00    +0.000 A 
ATOM     20  C   UNL     1      44.252   3.333  11.228  0.00  0.00    +0.000 A 
ATOM     21  C   UNL     1      45.353   3.598  12.061  0.00  0.00    +0.000 A 
BRANCH  20  22
ATOM     22  N   UNL     1      44.357   2.276  10.292  0.00  0.00    +0.000 N 
ATOM     23  H   UNL     1      44.959   1.555  10.689  0.00  0.00    +0.000 HD
BRANCH  22  24
ATOM     24  C   UNL     1      44.551   2.407   8.876  0.00  0.00    +0.000 C 
ATOM     25  C   UNL     1      45.926   1.881   8.399  0.00  0.00    +0.000 C 
ATOM     26  C   UNL     1      46.065   3.166   7.558  0.00  0.00    +0.000 C 
ATOM     27  C   UNL     1      45.055   3.829   8.510  0.00  0.00    +0.000 C 
ENDBRANCH  22  24
ENDBRANCH  20  22
ENDBRANCH  15  16
ENDBRANCH   1  15
TORSDOF 7
ENDMDL
MODEL 2
REMARK VINA RESULT:    -6.982      3.022      4.836
REMARK INTER + INTRA:         -11.009
REMARK INTER:                 -10.259
REMARK INTRA:                  -0.751
REMARK UNBOUND:                -1.171
REMARK  Name = 
REMARK  8 active torsions:
REMARK  status: ('A' for Active; 'I' for Inactive)
REMARK    1  A    between atoms: C_1  and  N_2
REMARK    2  A    between atoms: N_2  and  C_3
REMARK    3  A    between atoms: N_2  and  C_16
REMARK    4  A    between atoms: C_3  and  C_4
REMARK    5  A    between atoms: C_4  and  C_5
REMARK    6  A    between atoms: C_9  and  N_10
REMARK    7  A    between atoms: N_10  and  C_11
REMARK    8  A    between atoms: C_20  and  C_21
REMARK                            x       y       z     vdW  Elec       q    Type
REMARK                         _______ _______ _______ _____ _____    ______ ____
ROOT
ATOM      1  C   UNL     1      47.513   6.046  13.200  0.00  0.00    +0.000 C 
ENDROOT
BRANCH   1   3
ATOM      2  C   UNL     1      47.813   8.327  14.214  0.00  0.00    +0.000 C 
ATOM      3  N   UNL     1      48.205   6.924  14.168  0.00  0.00    +0.000 N 
BRANCH   3   4
ATOM      4  C   UNL     1      48.728   6.323  15.317  0.00  0.00    +0.000 A 
ATOM      5  C   UNL     1      49.934   6.726  15.908  0.00  0.00    +0.000 A 
ATOM      6  C   UNL     1      50.398   6.135  17.091  0.00  0.00    +0.000 A 
ATOM      7  C   UNL     1      49.664   5.119  17.695  0.00  0.00    +0.000 A 
ATOM      8  C   UNL     1      48.469   4.678  17.120  0.00  0.00    +0.000 A 
ATOM      9  C   UNL     1      48.022   5.277  15.932  0.00  0.00    +0.000 A 
BRANCH   8  10
ATOM     10  C   UNL     1      47.716   3.593  17.811  0.00  0.00    +0.000 C 
ATOM     11  N   UNL     1      48.209   3.089  18.982  0.00  0.00    +0.000 N 
ATOM     12  O   UNL     1      46.675   3.139  17.346  0.00  0.00    +0.000 OA
ATOM     13  H   UNL     1      49.042   3.401  19.447  0.00  0.00    +0.000 HD
ATOM     14  H   UNL     1      47.673   2.349  19.417  0.00  0.00    +0.000 HD
ENDBRANCH   8  10
ENDBRANCH   3   4
ENDBRANCH   1   3
BRANCH   1  15
ATOM     15  C   UNL     1      46.197   6.645  12.680  0.00  0.00    +0.000 C 
BRANCH  15  16
ATOM     16  C   UNL     1      45.262   5.598  12.113  0.00  0.00    +0.000 A 
ATOM     17  C   UNL     1      44.510   4.785  12.968  0.00  0.00    +0.000 A 
ATOM     18  C   UNL     1      43.670   3.802  12.444  0.00  0.00    +0.000 A 
ATOM     19  C   UNL     1      43.572   3.612  11.063  0.00  0.00    +0.000 A 
ATOM     20  C   UNL     1      44.301   4.419  10.188  0.00  0.00    +0.000 A 
ATOM     21  C   UNL     1      45.138   5.413  10.724  0.00  0.00    +0.000 A 
BRANCH  20  22
ATOM     22  N   UNL     1      44.229   4.291   8.780  0.00  0.00    +0.000 N 
ATOM     23  H   UNL     1      43.305   4.599   8.476  0.00  0.00    +0.000 HD
BRANCH  22  24
ATOM     24  C   UNL     1      44.702   3.184   7.998  0.00  0.00    +0.000 C 
ATOM     25  C   UNL     1      45.532   2.170   8.822  0.00  0.00    +0.000 C 
ATOM     26  C   UNL     1      46.565   2.167   7.677  0.00  0.00    +0.000 C 
ATOM     27  C   UNL     1      46.019   3.544   7.260  0.00  0.00    +0.000 C 
ENDBRANCH  22  24
ENDBRANCH  20  22
ENDBRANCH  15  16
ENDBRANCH   1  15
TORSDOF 7
ENDMDL
MODEL 3
REMARK VINA RESULT:    -6.730      2.974      7.267
REMARK INTER + INTRA:         -10.655
REMARK INTER:                  -9.645
REMARK INTRA:                  -1.010
REMARK UNBOUND:                -1.171
REMARK  Name = 
REMARK  8 active torsions:
REMARK  status: ('A' for Active; 'I' for Inactive)
REMARK    1  A    between atoms: C_1  and  N_2
REMARK    2  A    between atoms: N_2  and  C_3
REMARK    3  A    between atoms: N_2  and  C_16
REMARK    4  A    between atoms: C_3  and  C_4
REMARK    5  A    between atoms: C_4  and  C_5
REMARK    6  A    between atoms: C_9  and  N_10
REMARK    7  A    between atoms: N_10  and  C_11
REMARK    8  A    between atoms: C_20  and  C_21
REMARK                            x       y       z     vdW  Elec       q    Type
REMARK                         _______ _______ _______ _____ _____    ______ ____
ROOT
ATOM      1  C   UNL     1      44.049   4.716  11.966  0.00  0.00    +0.000 C 
ENDROOT
BRANCH   1   3
ATOM      2  C   UNL     1      43.271   2.397  11.387  0.00  0.00    +0.000 C 
ATOM      3  N   UNL     1      44.246   3.464  11.204  0.00  0.00    +0.000 N 
BRANCH   3   4
ATOM      4  C   UNL     1      44.943   3.553   9.995  0.00  0.00    +0.000 A 
ATOM      5  C   UNL     1      45.175   4.768   9.335  0.00  0.00    +0.000 A 
ATOM      6  C   UNL     1      45.925   4.821   8.152  0.00  0.00    +0.000 A 
ATOM      7  C   UNL     1      46.445   3.652   7.604  0.00  0.00    +0.000 A 
ATOM      8  C   UNL     1      46.212   2.421   8.225  0.00  0.00    +0.000 A 
ATOM      9  C   UNL     1      45.454   2.386   9.405  0.00  0.00    +0.000 A 
BRANCH   8  10
ATOM     10  C   UNL     1      46.798   1.200   7.603  0.00  0.00    +0.000 C 
ATOM     11  N   UNL     1      47.761   1.345   6.643  0.00  0.00    +0.000 N 
ATOM     12  O   UNL     1      46.427   0.076   7.926  0.00  0.00    +0.000 OA
ATOM     13  H   UNL     1      48.138   2.218   6.322  0.00  0.00    +0.000 HD
ATOM     14  H   UNL     1      48.129   0.493   6.240  0.00  0.00    +0.000 HD
ENDBRANCH   8  10
ENDBRANCH   3   4
ENDBRANCH   1   3
BRANCH   1  15
ATOM     15  C   UNL     1      45.213   5.029  12.919  0.00  0.00    +0.000 C 
BRANCH  15  16
ATOM     16  C   UNL     1      45.799   6.406  12.692  0.00  0.00    +0.000 A 
ATOM     17  C   UNL     1      47.182   6.572  12.562  0.00  0.00    +0.000 A 
ATOM     18  C   UNL     1      47.724   7.845  12.380  0.00  0.00    +0.000 A 
ATOM     19  C   UNL     1      46.895   8.970  12.330  0.00  0.00    +0.000 A 
ATOM     20  C   UNL     1      45.511   8.830  12.443  0.00  0.00    +0.000 A 
ATOM     21  C   UNL     1      44.974   7.542  12.617  0.00  0.00    +0.000 A 
BRANCH  20  22
ATOM     22  N   UNL     1      44.617   9.926  12.378  0.00  0.00    +0.000 N 
ATOM     23  H   UNL     1      43.906   9.803  13.099  0.00  0.00    +0.000 HD
BRANCH  22  24
ATOM     24  C   UNL     1      44.069  10.510  11.186  0.00  0.00    +0.000 C 
ATOM     25  C   UNL     1      43.069  11.656  11.475  0.00  0.00    +0.000 C 
ATOM     26  C   UNL     1      42.125  11.021  10.435  0.00  0.00    +0.000 C 
ATOM     27  C   UNL     1      42.859   9.689  10.667  0.00  0.00    +0.000 C 
ENDBRANCH  22  24
ENDBRANCH  20  22
ENDBRANCH  15  16
ENDBRANCH   1  15
TORSDOF 7
ENDMDL
MODEL 4
REMARK VINA RESULT:    -6.356      1.997      2.744
REMARK INTER + INTRA:         -10.128
REMARK INTER:                  -9.209
REMARK INTRA:                  -0.919
REMARK UNBOUND:                -1.171
REMARK  Name = 
REMARK  8 active torsions:
REMARK  status: ('A' for Active; 'I' for Inactive)
REMARK    1  A    between atoms: C_1  and  N_2
REMARK    2  A    between atoms: N_2  and  C_3
REMARK    3  A    between atoms: N_2  and  C_16
REMARK    4  A    between atoms: C_3  and  C_4
REMARK    5  A    between atoms: C_4  and  C_5
REMARK    6  A    between atoms: C_9  and  N_10
REMARK    7  A    between atoms: N_10  and  C_11
REMARK    8  A    between atoms: C_20  and  C_21
REMARK                            x       y       z     vdW  Elec       q    Type
REMARK                         _______ _______ _______ _____ _____    ______ ____
ROOT
ATOM      1  C   UNL     1      45.124   6.885  12.523  0.00  0.00    +0.000 C 
ENDROOT
BRANCH   1   3
ATOM      2  C   UNL     1      46.915   5.519  13.639  0.00  0.00    +0.000 C 
ATOM      3  N   UNL     1      46.488   6.799  13.088  0.00  0.00    +0.000 N 
BRANCH   3   4
ATOM      4  C   UNL     1      47.448   7.678  12.579  0.00  0.00    +0.000 A 
ATOM      5  C   UNL     1      48.713   7.258  12.145  0.00  0.00    +0.000 A 
ATOM      6  C   UNL     1      49.629   8.164  11.590  0.00  0.00    +0.000 A 
ATOM      7  C   UNL     1      49.294   9.509  11.474  0.00  0.00    +0.000 A 
ATOM      8  C   UNL     1      48.049   9.964  11.918  0.00  0.00    +0.000 A 
ATOM      9  C   UNL     1      47.147   9.046  12.476  0.00  0.00    +0.000 A 
BRANCH   8  10
ATOM     10  C   UNL     1      47.736  11.413  11.763  0.00  0.00    +0.000 C 
ATOM     11  N   UNL     1      46.858  11.798  10.788  0.00  0.00    +0.000 N 
ATOM     12  O   UNL     1      48.256  12.262  12.481  0.00  0.00    +0.000 OA
ATOM     13  H   UNL     1      46.373  11.181  10.162  0.00  0.00    +0.000 HD
ATOM     14  H   UNL     1      46.676  12.790  10.709  0.00  0.00    +0.000 HD
ENDBRANCH   8  10
ENDBRANCH   3   4
ENDBRANCH   1   3
BRANCH   1  15
ATOM     15  C   UNL     1      45.071   6.541  11.026  0.00  0.00    +0.000 C 
BRANCH  15  16
ATOM     16  C   UNL     1      44.690   5.098  10.771  0.00  0.00    +0.000 A 
ATOM     17  C   UNL     1      43.808   4.438  11.633  0.00  0.00    +0.000 A 
ATOM     18  C   UNL     1      43.480   3.099  11.414  0.00  0.00    +0.000 A 
ATOM     19  C   UNL     1      44.029   2.401  10.334  0.00  0.00    +0.000 A 
ATOM     20  C   UNL     1      44.900   3.040   9.451  0.00  0.00    +0.000 A 
ATOM     21  C   UNL     1      45.218   4.391   9.676  0.00  0.00    +0.000 A 
BRANCH  20  22
ATOM     22  N   UNL     1      45.472   2.395   8.328  0.00  0.00    +0.000 N 
ATOM     23  H   UNL     1      45.395   1.387   8.463  0.00  0.00    +0.000 HD
BRANCH  22  24
ATOM     24  C   UNL     1      46.700   2.750   7.675  0.00  0.00    +0.000 C 
ATOM     25  C   UNL     1      46.501   3.185   6.203  0.00  0.00    +0.000 C 
ATOM     26  C   UNL     1      47.694   2.281   5.831  0.00  0.00    +0.000 C 
ATOM     27  C   UNL     1      47.424   1.493   7.125  0.00  0.00    +0.000 C 
ENDBRANCH  22  24
ENDBRANCH  20  22
ENDBRANCH  15  16
ENDBRANCH   1  15
TORSDOF 7
ENDMDL
MODEL 5
REMARK VINA RESULT:    -6.284      2.427      6.447
REMARK INTER + INTRA:         -10.026
REMARK INTER:                  -8.747
REMARK INTRA:                  -1.279
REMARK UNBOUND:                -1.171
REMARK  Name = 
REMARK  8 active torsions:
REMARK  status: ('A' for Active; 'I' for Inactive)
REMARK    1  A    between atoms: C_1  and  N_2
REMARK    2  A    between atoms: N_2  and  C_3
REMARK    3  A    between atoms: N_2  and  C_16
REMARK    4  A    between atoms: C_3  and  C_4
REMARK    5  A    between atoms: C_4  and  C_5
REMARK    6  A    between atoms: C_9  and  N_10
REMARK    7  A    between atoms: N_10  and  C_11
REMARK    8  A    between atoms: C_20  and  C_21
REMARK                            x       y       z     vdW  Elec       q    Type
REMARK                         _______ _______ _______ _____ _____    ______ ____
ROOT
ATOM      1  C   UNL     1      47.173   6.330  13.658  0.00  0.00    +0.000 C 
ENDROOT
BRANCH   1   3
ATOM      2  C   UNL     1      47.010   3.959  14.480  0.00  0.00    +0.000 C 
ATOM      3  N   UNL     1      46.657   4.956  13.476  0.00  0.00    +0.000 N 
BRANCH   3   4
ATOM      4  C   UNL     1      45.468   4.808  12.755  0.00  0.00    +0.000 A 
ATOM      5  C   UNL     1      44.241   5.327  13.193  0.00  0.00    +0.000 A 
ATOM      6  C   UNL     1      43.082   5.205  12.415  0.00  0.00    +0.000 A 
ATOM      7  C   UNL     1      43.132   4.549  11.189  0.00  0.00    +0.000 A 
ATOM      8  C   UNL     1      44.334   4.000  10.734  0.00  0.00    +0.000 A 
ATOM      9  C   UNL     1      45.484   4.127  11.528  0.00  0.00    +0.000 A 
BRANCH   8  10
ATOM     10  C   UNL     1      44.337   3.315   9.411  0.00  0.00    +0.000 C 
ATOM     11  N   UNL     1      44.179   4.065   8.279  0.00  0.00    +0.000 N 
ATOM     12  O   UNL     1      44.466   2.098   9.320  0.00  0.00    +0.000 OA
ATOM     13  H   UNL     1      44.079   5.063   8.249  0.00  0.00    +0.000 HD
ATOM     14  H   UNL     1      44.179   3.563   7.400  0.00  0.00    +0.000 HD
ENDBRANCH   8  10
ENDBRANCH   3   4
ENDBRANCH   1   3
BRANCH   1  15
ATOM     15  C   UNL     1      47.716   6.945  12.357  0.00  0.00    +0.000 C 
BRANCH  15  16
ATOM     16  C   UNL     1      47.214   8.354  12.125  0.00  0.00    +0.000 A 
ATOM     17  C   UNL     1      48.119   9.398  11.904  0.00  0.00    +0.000 A 
ATOM     18  C   UNL     1      47.657  10.702  11.718  0.00  0.00    +0.000 A 
ATOM     19  C   UNL     1      46.288  10.983  11.754  0.00  0.00    +0.000 A 
ATOM     20  C   UNL     1      45.364   9.957  11.958  0.00  0.00    +0.000 A 
ATOM     21  C   UNL     1      45.838   8.646  12.136  0.00  0.00    +0.000 A 
BRANCH  20  22
ATOM     22  N   UNL     1      43.965  10.173  11.983  0.00  0.00    +0.000 N 
ATOM     23  H   UNL     1      43.601   9.820  12.868  0.00  0.00    +0.000 HD
BRANCH  22  24
ATOM     24  C   UNL     1      43.047   9.942  10.903  0.00  0.00    +0.000 C 
ATOM     25  C   UNL     1      43.234  10.929   9.725  0.00  0.00    +0.000 C 
ATOM     26  C   UNL     1      41.704  11.109   9.704  0.00  0.00    +0.000 C 
ATOM     27  C   UNL     1      41.686  10.638  11.168  0.00  0.00    +0.000 C 
ENDBRANCH  22  24
ENDBRANCH  20  22
ENDBRANCH  15  16
ENDBRANCH   1  15
TORSDOF 7
ENDMDL
MODEL 6
REMARK VINA RESULT:    -6.245      2.984      7.544
REMARK INTER + INTRA:          -9.971
REMARK INTER:                  -9.071
REMARK INTRA:                  -0.900
REMARK UNBOUND:                -1.171
REMARK  Name = 
REMARK  8 active torsions:
REMARK  status: ('A' for Active; 'I' for Inactive)
REMARK    1  A    between atoms: C_1  and  N_2
REMARK    2  A    between atoms: N_2  and  C_3
REMARK    3  A    between atoms: N_2  and  C_16
REMARK    4  A    between atoms: C_3  and  C_4
REMARK    5  A    between atoms: C_4  and  C_5
REMARK    6  A    between atoms: C_9  and  N_10
REMARK    7  A    between atoms: N_10  and  C_11
REMARK    8  A    between atoms: C_20  and  C_21
REMARK                            x       y       z     vdW  Elec       q    Type
REMARK                         _______ _______ _______ _____ _____    ______ ____
ROOT
ATOM      1  C   UNL     1      44.101   4.429  11.724  0.00  0.00    +0.000 C 
ENDROOT
BRANCH   1   3
ATOM      2  C   UNL     1      43.421   2.091  11.097  0.00  0.00    +0.000 C 
ATOM      3  N   UNL     1      44.358   3.197  10.947  0.00  0.00    +0.000 N 
BRANCH   3   4
ATOM      4  C   UNL     1      45.071   3.330   9.751  0.00  0.00    +0.000 A 
ATOM      5  C   UNL     1      45.299   4.568   9.133  0.00  0.00    +0.000 A 
ATOM      6  C   UNL     1      46.065   4.666   7.963  0.00  0.00    +0.000 A 
ATOM      7  C   UNL     1      46.604   3.520   7.387  0.00  0.00    +0.000 A 
ATOM      8  C   UNL     1      46.376   2.268   7.965  0.00  0.00    +0.000 A 
ATOM      9  C   UNL     1      45.603   2.188   9.133  0.00  0.00    +0.000 A 
BRANCH   8  10
ATOM     10  C   UNL     1      46.984   1.073   7.314  0.00  0.00    +0.000 C 
ATOM     11  N   UNL     1      46.626  -0.172   7.752  0.00  0.00    +0.000 N 
ATOM     12  O   UNL     1      47.802   1.185   6.406  0.00  0.00    +0.000 OA
ATOM     13  H   UNL     1      45.958  -0.366   8.476  0.00  0.00    +0.000 HD
ATOM     14  H   UNL     1      47.065  -0.958   7.290  0.00  0.00    +0.000 HD
ENDBRANCH   8  10
ENDBRANCH   3   4
ENDBRANCH   1   3
BRANCH   1  15
ATOM     15  C   UNL     1      45.031   4.578  12.939  0.00  0.00    +0.000 C 
BRANCH  15  16
ATOM     16  C   UNL     1      45.767   5.901  12.952  0.00  0.00    +0.000 A 
ATOM     17  C   UNL     1      45.138   7.064  12.496  0.00  0.00    +0.000 A 
ATOM     18  C   UNL     1      45.827   8.277  12.483  0.00  0.00    +0.000 A 
ATOM     19  C   UNL     1      47.153   8.346  12.919  0.00  0.00    +0.000 A 
ATOM     20  C   UNL     1      47.800   7.204  13.392  0.00  0.00    +0.000 A 
ATOM     21  C   UNL     1      47.094   5.988  13.410  0.00  0.00    +0.000 A 
BRANCH  20  22
ATOM     22  N   UNL     1      49.133   7.212  13.867  0.00  0.00    +0.000 N 
ATOM     23  H   UNL     1      49.592   6.358  13.552  0.00  0.00    +0.000 HD
BRANCH  22  24
ATOM     24  C   UNL     1      49.567   7.594  15.182  0.00  0.00    +0.000 C 
ATOM     25  C   UNL     1      51.049   7.246  15.457  0.00  0.00    +0.000 C 
ATOM     26  C   UNL     1      50.607   6.681  16.822  0.00  0.00    +0.000 C 
ATOM     27  C   UNL     1      49.198   6.510  16.228  0.00  0.00    +0.000 C 
ENDBRANCH  22  24
ENDBRANCH  20  22
ENDBRANCH  15  16
ENDBRANCH   1  15
TORSDOF 7
ENDMDL
MODEL 7
REMARK VINA RESULT:    -6.227      3.581      5.457
REMARK INTER + INTRA:          -9.945
REMARK INTER:                  -9.278
REMARK INTRA:                  -0.667
REMARK UNBOUND:                -1.171
REMARK  Name = 
REMARK  8 active torsions:
REMARK  status: ('A' for Active; 'I' for Inactive)
REMARK    1  A    between atoms: C_1  and  N_2
REMARK    2  A    between atoms: N_2  and  C_3
REMARK    3  A    between atoms: N_2  and  C_16
REMARK    4  A    between atoms: C_3  and  C_4
REMARK    5  A    between atoms: C_4  and  C_5
REMARK    6  A    between atoms: C_9  and  N_10
REMARK    7  A    between atoms: N_10  and  C_11
REMARK    8  A    between atoms: C_20  and  C_21
REMARK                            x       y       z     vdW  Elec       q    Type
REMARK                         _______ _______ _______ _____ _____    ______ ____
ROOT
ATOM      1  C   UNL     1      47.075   4.849  14.733  0.00  0.00    +0.000 C 
ENDROOT
BRANCH   1   3
ATOM      2  C   UNL     1      48.566   6.815  15.217  0.00  0.00    +0.000 C 
ATOM      3  N   UNL     1      48.152   5.456  15.544  0.00  0.00    +0.000 N 
BRANCH   3   4
ATOM      4  C   UNL     1      48.307   4.991  16.853  0.00  0.00    +0.000 A 
ATOM      5  C   UNL     1      48.894   3.756  17.160  0.00  0.00    +0.000 A 
ATOM      6  C   UNL     1      49.081   3.350  18.489  0.00  0.00    +0.000 A 
ATOM      7  C   UNL     1      48.671   4.174  19.533  0.00  0.00    +0.000 A 
ATOM      8  C   UNL     1      48.061   5.402  19.260  0.00  0.00    +0.000 A 
ATOM      9  C   UNL     1      47.877   5.790  17.925  0.00  0.00    +0.000 A 
BRANCH   8  10
ATOM     10  C   UNL     1      47.648   6.251  20.413  0.00  0.00    +0.000 C 
ATOM     11  N   UNL     1      47.040   5.659  21.485  0.00  0.00    +0.000 N 
ATOM     12  O   UNL     1      47.831   7.464  20.414  0.00  0.00    +0.000 OA
ATOM     13  H   UNL     1      46.858   4.676  21.584  0.00  0.00    +0.000 HD
ATOM     14  H   UNL     1      46.767   6.269  22.245  0.00  0.00    +0.000 HD
ENDBRANCH   8  10
ENDBRANCH   3   4
ENDBRANCH   1   3
BRANCH   1  15
ATOM     15  C   UNL     1      46.703   5.691  13.501  0.00  0.00    +0.000 C 
BRANCH  15  16
ATOM     16  C   UNL     1      45.464   5.179  12.797  0.00  0.00    +0.000 A 
ATOM     17  C   UNL     1      44.223   5.781  13.026  0.00  0.00    +0.000 A 
ATOM     18  C   UNL     1      43.077   5.291  12.398  0.00  0.00    +0.000 A 
ATOM     19  C   UNL     1      43.153   4.193  11.536  0.00  0.00    +0.000 A 
ATOM     20  C   UNL     1      44.382   3.583  11.279  0.00  0.00    +0.000 A 
ATOM     21  C   UNL     1      45.532   4.090  11.910  0.00  0.00    +0.000 A 
BRANCH  20  22
ATOM     22  N   UNL     1      44.529   2.483  10.401  0.00  0.00    +0.000 N 
ATOM     23  H   UNL     1      45.259   1.873  10.770  0.00  0.00    +0.000 HD
BRANCH  22  24
ATOM     24  C   UNL     1      44.555   2.534   8.967  0.00  0.00    +0.000 C 
ATOM     25  C   UNL     1      45.848   1.938   8.360  0.00  0.00    +0.000 C 
ATOM     26  C   UNL     1      45.921   3.172   7.440  0.00  0.00    +0.000 C 
ATOM     27  C   UNL     1      45.051   3.917   8.466  0.00  0.00    +0.000 C 
ENDBRANCH  22  24
ENDBRANCH  20  22
ENDBRANCH  15  16
ENDBRANCH   1  15
TORSDOF 7
ENDMDL
MODEL 8
REMARK VINA RESULT:    -6.155      3.555      6.776
REMARK INTER + INTRA:          -9.845
REMARK INTER:                  -8.316
REMARK INTRA:                  -1.529
REMARK UNBOUND:                -1.171
REMARK  Name = 
REMARK  8 active torsions:
REMARK  status: ('A' for Active; 'I' for Inactive)
REMARK    1  A    between atoms: C_1  and  N_2
REMARK    2  A    between atoms: N_2  and  C_3
REMARK    3  A    between atoms: N_2  and  C_16
REMARK    4  A    between atoms: C_3  and  C_4
REMARK    5  A    between atoms: C_4  and  C_5
REMARK    6  A    between atoms: C_9  and  N_10
REMARK    7  A    between atoms: N_10  and  C_11
REMARK    8  A    between atoms: C_20  and  C_21
REMARK                            x       y       z     vdW  Elec       q    Type
REMARK                         _______ _______ _______ _____ _____    ______ ____
ROOT
ATOM      1  C   UNL     1      49.950   7.794  13.987  0.00  0.00    +0.000 C 
ENDROOT
BRANCH   1   3
ATOM      2  C   UNL     1      49.764   8.083  11.497  0.00  0.00    +0.000 C 
ATOM      3  N   UNL     1      49.101   7.889  12.780  0.00  0.00    +0.000 N 
BRANCH   3   4
ATOM      4  C   UNL     1      47.861   7.245  12.817  0.00  0.00    +0.000 A 
ATOM      5  C   UNL     1      46.651   7.902  12.551  0.00  0.00    +0.000 A 
ATOM      6  C   UNL     1      45.433   7.209  12.545  0.00  0.00    +0.000 A 
ATOM      7  C   UNL     1      45.407   5.845  12.818  0.00  0.00    +0.000 A 
ATOM      8  C   UNL     1      46.593   5.164  13.111  0.00  0.00    +0.000 A 
ATOM      9  C   UNL     1      47.803   5.875  13.118  0.00  0.00    +0.000 A 
BRANCH   8  10
ATOM     10  C   UNL     1      46.513   3.702  13.388  0.00  0.00    +0.000 C 
ATOM     11  N   UNL     1      45.571   2.956  12.735  0.00  0.00    +0.000 N 
ATOM     12  O   UNL     1      47.263   3.161  14.195  0.00  0.00    +0.000 OA
ATOM     13  H   UNL     1      44.923   3.303  12.052  0.00  0.00    +0.000 HD
ATOM     14  H   UNL     1      45.543   1.969  12.956  0.00  0.00    +0.000 HD
ENDBRANCH   8  10
ENDBRANCH   3   4
ENDBRANCH   1   3
BRANCH   1  15
ATOM     15  C   UNL     1      49.422   8.636  15.160  0.00  0.00    +0.000 C 
BRANCH  15  16
ATOM     16  C   UNL     1      48.913   7.786  16.305  0.00  0.00    +0.000 A 
ATOM     17  C   UNL     1      48.557   8.378  17.521  0.00  0.00    +0.000 A 
ATOM     18  C   UNL     1      48.114   7.591  18.584  0.00  0.00    +0.000 A 
ATOM     19  C   UNL     1      48.024   6.202  18.451  0.00  0.00    +0.000 A 
ATOM     20  C   UNL     1      48.360   5.587  17.244  0.00  0.00    +0.000 A 
ATOM     21  C   UNL     1      48.797   6.390  16.176  0.00  0.00    +0.000 A 
BRANCH  20  22
ATOM     22  N   UNL     1      48.270   4.189  17.039  0.00  0.00    +0.000 N 
ATOM     23  H   UNL     1      47.284   3.931  17.014  0.00  0.00    +0.000 HD
BRANCH  22  24
ATOM     24  C   UNL     1      49.067   3.181  17.679  0.00  0.00    +0.000 C 
ATOM     25  C   UNL     1      50.571   3.538  17.732  0.00  0.00    +0.000 C 
ATOM     26  C   UNL     1      50.874   2.103  17.259  0.00  0.00    +0.000 C 
ATOM     27  C   UNL     1      49.449   2.055  16.681  0.00  0.00    +0.000 C 
ENDBRANCH  22  24
ENDBRANCH  20  22
ENDBRANCH  15  16
ENDBRANCH   1  15
TORSDOF 7
ENDMDL
MODEL 9
REMARK VINA RESULT:    -6.048      2.823      6.698
REMARK INTER + INTRA:          -9.693
REMARK INTER:                  -8.457
REMARK INTRA:                  -1.236
REMARK UNBOUND:                -1.171
REMARK  Name = 
REMARK  8 active torsions:
REMARK  status: ('A' for Active; 'I' for Inactive)
REMARK    1  A    between atoms: C_1  and  N_2
REMARK    2  A    between atoms: N_2  and  C_3
REMARK    3  A    between atoms: N_2  and  C_16
REMARK    4  A    between atoms: C_3  and  C_4
REMARK    5  A    between atoms: C_4  and  C_5
REMARK    6  A    between atoms: C_9  and  N_10
REMARK    7  A    between atoms: N_10  and  C_11
REMARK    8  A    between atoms: C_20  and  C_21
REMARK                            x       y       z     vdW  Elec       q    Type
REMARK                         _______ _______ _______ _____ _____    ______ ____
ROOT
ATOM      1  C   UNL     1      47.796   7.707  11.895  0.00  0.00    +0.000 C 
ENDROOT
BRANCH   1   3
ATOM      2  C   UNL     1      45.610   8.787  12.507  0.00  0.00    +0.000 C 
ATOM      3  N   UNL     1      46.393   7.569  12.341  0.00  0.00    +0.000 N 
BRANCH   3   4
ATOM      4  C   UNL     1      45.737   6.373  12.034  0.00  0.00    +0.000 A 
ATOM      5  C   UNL     1      45.025   5.628  12.984  0.00  0.00    +0.000 A 
ATOM      6  C   UNL     1      44.335   4.461  12.625  0.00  0.00    +0.000 A 
ATOM      7  C   UNL     1      44.360   4.016  11.307  0.00  0.00    +0.000 A 
ATOM      8  C   UNL     1      45.080   4.724  10.339  0.00  0.00    +0.000 A 
ATOM      9  C   UNL     1      45.769   5.886  10.718  0.00  0.00    +0.000 A 
BRANCH   8  10
ATOM     10  C   UNL     1      45.067   4.211   8.940  0.00  0.00    +0.000 C 
ATOM     11  N   UNL     1      44.261   3.150   8.633  0.00  0.00    +0.000 N 
ATOM     12  O   UNL     1      45.770   4.712   8.068  0.00  0.00    +0.000 OA
ATOM     13  H   UNL     1      43.644   2.682   9.271  0.00  0.00    +0.000 HD
ATOM     14  H   UNL     1      44.286   2.826   7.675  0.00  0.00    +0.000 HD
ENDBRANCH   8  10
ENDBRANCH   3   4
ENDBRANCH   1   3
BRANCH   1  15
ATOM     15  C   UNL     1      48.742   6.700  12.569  0.00  0.00    +0.000 C 
BRANCH  15  16
ATOM     16  C   UNL     1      48.871   6.929  14.060  0.00  0.00    +0.000 A 
ATOM     17  C   UNL     1      49.613   8.010  14.547  0.00  0.00    +0.000 A 
ATOM     18  C   UNL     1      49.755   8.204  15.922  0.00  0.00    +0.000 A 
ATOM     19  C   UNL     1      49.161   7.321  16.829  0.00  0.00    +0.000 A 
ATOM     20  C   UNL     1      48.403   6.243  16.370  0.00  0.00    +0.000 A 
ATOM     21  C   UNL     1      48.260   6.061  14.983  0.00  0.00    +0.000 A 
BRANCH  20  22
ATOM     22  N   UNL     1      47.759   5.328  17.236  0.00  0.00    +0.000 N 
ATOM     23  H   UNL     1      47.198   5.857  17.903  0.00  0.00    +0.000 HD
BRANCH  22  24
ATOM     24  C   UNL     1      48.350   4.168  17.842  0.00  0.00    +0.000 C 
ATOM     25  C   UNL     1      49.848   3.995  17.492  0.00  0.00    +0.000 C 
ATOM     26  C   UNL     1      49.556   2.507  17.215  0.00  0.00    +0.000 C 
ATOM     27  C   UNL     1      48.085   2.897  16.992  0.00  0.00    +0.000 C 
ENDBRANCH  22  24
ENDBRANCH  20  22
ENDBRANCH  15  16
ENDBRANCH   1  15
TORSDOF 7
ENDMDL
