MODEL 1
REMARK VINA RESULT:    -8.201      0.000      0.000
REMARK INTER + INTRA:         -12.146
REMARK INTER:                 -11.078
REMARK INTRA:                  -1.068
REMARK UNBOUND:                -1.068
REMARK  Name = 
REMARK  7 active torsions:
REMARK  status: ('A' for Active; 'I' for Inactive)
REMARK    1  A    between atoms: C_1  and  C_2
REMARK    2  A    between atoms: C_6  and  C_7
REMARK    3  A    between atoms: N_9  and  C_10
REMARK    4  A    between atoms: C_10  and  C_11
REMARK    5  A    between atoms: C_14  and  C_15
REMARK    6  A    between atoms: C_15  and  N_16
REMARK    7  A    between atoms: C_17  and  C_19
REMARK                            x       y       z     vdW  Elec       q    Type
REMARK                         _______ _______ _______ _____ _____    ______ ____
ROOT
ATOM      1  C   UNL     1      45.171   6.442  11.529  0.00  0.00    +0.000 A 
ATOM      2  C   UNL     1      46.459   6.000  11.861  0.00  0.00    +0.000 A 
ATOM      3  C   UNL     1      47.302   6.772  12.677  0.00  0.00    +0.000 A 
ATOM      4  C   UNL     1      46.870   7.996  13.204  0.00  0.00    +0.000 A 
ATOM      5  C   UNL     1      45.592   8.452  12.852  0.00  0.00    +0.000 A 
ATOM      6  C   UNL     1      44.747   7.677  12.040  0.00  0.00    +0.000 A 
ENDROOT
BRANCH   1   7
ATOM      7  C   UNL     1      44.281   5.623  10.620  0.00  0.00    +0.000 C 
BRANCH   7  10
ATOM      8  C   UNL     1      44.789   3.496   9.457  0.00  0.00    +0.000 C 
ATOM      9  O   UNL     1      43.986   2.843  10.110  0.00  0.00    +0.000 OA
ATOM     10  N   UNL     1      45.009   4.851   9.640  0.00  0.00    +0.000 N 
ATOM     11  H   UNL     1      45.682   5.293   9.022  0.00  0.00    +0.000 HD
BRANCH   8  17
ATOM     12  C   UNL     1      46.850  -0.540   7.718  0.00  0.00    +0.000 C 
ATOM     13  C   UNL     1      46.602   0.928   7.548  0.00  0.00    +0.000 A 
ATOM     14  C   UNL     1      47.119   1.618   6.453  0.00  0.00    +0.000 A 
ATOM     15  C   UNL     1      46.869   2.983   6.339  0.00  0.00    +0.000 A 
ATOM     16  C   UNL     1      46.109   3.620   7.314  0.00  0.00    +0.000 A 
ATOM     17  C   UNL     1      45.625   2.863   8.374  0.00  0.00    +0.000 A 
ATOM     18  N   UNL     1      45.860   1.528   8.511  0.00  0.00    +0.000 NA
ENDBRANCH   8  17
ENDBRANCH   7  10
ENDBRANCH   1   7
BRANCH   4  19
ATOM     19  C   UNL     1      47.755   8.792  14.136  0.00  0.00    +0.000 C 
BRANCH  19  20
ATOM     20  N   UNL     1      48.125   8.051  15.316  0.00  0.00    +0.000 N 
ATOM     21  C   UNL     1      49.373   7.488  15.449  0.00  0.00    +0.000 C 
ATOM     22  O   UNL     1      50.253   7.636  14.605  0.00  0.00    +0.000 OA
ATOM     23  H   UNL     1      47.368   7.721  15.906  0.00  0.00    +0.000 HD
BRANCH  21  24
ATOM     24  C   UNL     1      49.624   6.742  16.689  0.00  0.00    +0.000 A 
ATOM     25  C   UNL     1      50.518   7.233  17.634  0.00  0.00    +0.000 A 
ATOM     26  S   UNL     1      50.659   6.245  19.019  0.00  0.00    +0.000 S 
ATOM     27  C   UNL     1      49.563   5.107  18.389  0.00  0.00    +0.000 A 
ATOM     28  N   UNL     1      49.250   3.976  19.078  0.00  0.00    +0.000 NA
ATOM     29  C   UNL     1      48.416   3.197  18.472  0.00  0.00    +0.000 A 
ATOM     30  N   UNL     1      47.863   3.447  17.246  0.00  0.00    +0.000 N 
ATOM     31  C   UNL     1      48.133   4.584  16.522  0.00  0.00    +0.000 A 
ATOM     32  O   UNL     1      47.587   4.798  15.446  0.00  0.00    +0.000 OA
ATOM     33  C   UNL     1      49.077   5.489  17.150  0.00  0.00    +0.000 A 
ATOM     34  H   UNL     1      47.201   2.809  16.832  0.00  0.00    +0.000 HD
ENDBRANCH  21  24
ENDBRANCH  19  20
ENDBRANCH   4  19
TORSDOF 6
ENDMDL
MODEL 2
REMARK VINA RESULT:    -7.464      2.115      2.611
REMARK INTER + INTRA:         -11.151
REMARK INTER:                 -10.190
REMARK INTRA:                  -0.960
REMARK UNBOUND:                -1.068
REMARK  Name = 
REMARK  7 active torsions:
REMARK  status: ('A' for Active; 'I' for Inactive)
REMARK    1  A    between atoms: C_1  and  C_2
REMARK    2  A    between atoms: C_6  and  C_7
REMARK    3  A    between atoms: N_9  and  C_10
REMARK    4  A    between atoms: C_10  and  C_11
REMARK    5  A    between atoms: C_14  and  C_15
REMARK    6  A    between atoms: C_15  and  N_16
REMARK    7  A    between atoms: C_17  and  C_19
REMARK                            x       y       z     vdW  Elec       q    Type
REMARK                         _______ _______ _______ _____ _____    ______ ____
ROOT
ATOM      1  C   UNL     1      45.648   6.418  11.835  0.00  0.00    +0.000 A 
ATOM      2  C   UNL     1      45.666   7.789  12.126  0.00  0.00    +0.000 A 
ATOM      3  C   UNL     1      46.552   8.315  13.081  0.00  0.00    +0.000 A 
ATOM      4  C   UNL     1      47.460   7.487  13.753  0.00  0.00    +0.000 A 
ATOM      5  C   UNL     1      47.426   6.112  13.482  0.00  0.00    +0.000 A 
ATOM      6  C   UNL     1      46.543   5.587  12.523  0.00  0.00    +0.000 A 
ENDROOT
BRANCH   1   7
ATOM      7  C   UNL     1      44.667   5.853  10.831  0.00  0.00    +0.000 C 
BRANCH   7  10
ATOM      8  C   UNL     1      44.966   3.744   9.565  0.00  0.00    +0.000 C 
ATOM      9  O   UNL     1      44.151   3.123  10.233  0.00  0.00    +0.000 OA
ATOM     10  N   UNL     1      45.291   5.073   9.788  0.00  0.00    +0.000 N 
ATOM     11  H   UNL     1      45.964   5.492   9.155  0.00  0.00    +0.000 HD
BRANCH   8  17
ATOM     12  C   UNL     1      46.781  -0.328   7.648  0.00  0.00    +0.000 C 
ATOM     13  C   UNL     1      46.563   1.148   7.508  0.00  0.00    +0.000 A 
ATOM     14  C   UNL     1      47.017   1.834   6.385  0.00  0.00    +0.000 A 
ATOM     15  C   UNL     1      46.799   3.207   6.299  0.00  0.00    +0.000 A 
ATOM     16  C   UNL     1      46.130   3.854   7.333  0.00  0.00    +0.000 A 
ATOM     17  C   UNL     1      45.703   3.100   8.419  0.00  0.00    +0.000 A 
ATOM     18  N   UNL     1      45.910   1.757   8.528  0.00  0.00    +0.000 NA
ENDBRANCH   8  17
ENDBRANCH   7  10
ENDBRANCH   1   7
BRANCH   4  19
ATOM     19  C   UNL     1      48.458   8.065  14.731  0.00  0.00    +0.000 C 
BRANCH  19  20
ATOM     20  N   UNL     1      48.268   7.575  16.074  0.00  0.00    +0.000 N 
ATOM     21  C   UNL     1      49.303   7.019  16.789  0.00  0.00    +0.000 C 
ATOM     22  O   UNL     1      50.449   6.965  16.350  0.00  0.00    +0.000 OA
ATOM     23  H   UNL     1      47.312   7.394  16.363  0.00  0.00    +0.000 HD
BRANCH  21  24
ATOM     24  C   UNL     1      48.979   6.539  18.139  0.00  0.00    +0.000 A 
ATOM     25  C   UNL     1      49.265   5.228  18.504  0.00  0.00    +0.000 A 
ATOM     26  S   UNL     1      48.844   4.861  20.116  0.00  0.00    +0.000 S 
ATOM     27  C   UNL     1      48.227   6.425  20.372  0.00  0.00    +0.000 A 
ATOM     28  N   UNL     1      47.676   6.777  21.565  0.00  0.00    +0.000 NA
ATOM     29  C   UNL     1      47.237   7.992  21.611  0.00  0.00    +0.000 A 
ATOM     30  N   UNL     1      47.302   8.886  20.577  0.00  0.00    +0.000 N 
ATOM     31  C   UNL     1      47.867   8.582  19.361  0.00  0.00    +0.000 A 
ATOM     32  O   UNL     1      47.949   9.421  18.471  0.00  0.00    +0.000 OA
ATOM     33  C   UNL     1      48.365   7.224  19.250  0.00  0.00    +0.000 A 
ATOM     34  H   UNL     1      46.960   9.828  20.680  0.00  0.00    +0.000 HD
ENDBRANCH  21  24
ENDBRANCH  19  20
ENDBRANCH   4  19
TORSDOF 6
ENDMDL
MODEL 3
REMARK VINA RESULT:    -7.262      1.611      2.027
REMARK INTER + INTRA:         -10.877
REMARK INTER:                  -9.875
REMARK INTRA:                  -1.002
REMARK UNBOUND:                -1.068
REMARK  Name = 
REMARK  7 active torsions:
REMARK  status: ('A' for Active; 'I' for Inactive)
REMARK    1  A    between atoms: C_1  and  C_2
REMARK    2  A    between atoms: C_6  and  C_7
REMARK    3  A    between atoms: N_9  and  C_10
REMARK    4  A    between atoms: C_10  and  C_11
REMARK    5  A    between atoms: C_14  and  C_15
REMARK    6  A    between atoms: C_15  and  N_16
REMARK    7  A    between atoms: C_17  and  C_19
REMARK                            x       y       z     vdW  Elec       q    Type
REMARK                         _______ _______ _______ _____ _____    ______ ____
ROOT
ATOM      1  C   UNL     1      45.115   5.715  11.772  0.00  0.00    +0.000 A 
ATOM      2  C   UNL     1      45.346   7.089  11.613  0.00  0.00    +0.000 A 
ATOM      3  C   UNL     1      46.261   7.770  12.433  0.00  0.00    +0.000 A 
ATOM      4  C   UNL     1      46.988   7.090  13.419  0.00  0.00    +0.000 A 
ATOM      5  C   UNL     1      46.740   5.722  13.596  0.00  0.00    +0.000 A 
ATOM      6  C   UNL     1      45.829   5.040  12.772  0.00  0.00    +0.000 A 
ENDROOT
BRANCH   1   7
ATOM      7  C   UNL     1      44.102   4.995  10.910  0.00  0.00    +0.000 C 
BRANCH   7  10
ATOM      8  C   UNL     1      45.436   4.255   8.958  0.00  0.00    +0.000 C 
ATOM      9  O   UNL     1      45.664   5.393   8.569  0.00  0.00    +0.000 OA
ATOM     10  N   UNL     1      44.678   3.963  10.080  0.00  0.00    +0.000 N 
ATOM     11  H   UNL     1      44.576   2.982  10.321  0.00  0.00    +0.000 HD
BRANCH   8  17
ATOM     12  C   UNL     1      47.937   2.553   5.162  0.00  0.00    +0.000 C 
ATOM     13  C   UNL     1      47.174   2.246   6.415  0.00  0.00    +0.000 A 
ATOM     14  C   UNL     1      47.002   0.931   6.842  0.00  0.00    +0.000 A 
ATOM     15  C   UNL     1      46.281   0.691   8.009  0.00  0.00    +0.000 A 
ATOM     16  C   UNL     1      45.756   1.767   8.718  0.00  0.00    +0.000 A 
ATOM     17  C   UNL     1      45.974   3.050   8.230  0.00  0.00    +0.000 A 
ATOM     18  N   UNL     1      46.671   3.309   7.088  0.00  0.00    +0.000 NA
ENDBRANCH   8  17
ENDBRANCH   7  10
ENDBRANCH   1   7
BRANCH   4  19
ATOM     19  C   UNL     1      48.021   7.812  14.254  0.00  0.00    +0.000 C 
BRANCH  19  20
ATOM     20  N   UNL     1      48.949   6.910  14.890  0.00  0.00    +0.000 N 
ATOM     21  C   UNL     1      49.303   7.057  16.211  0.00  0.00    +0.000 C 
ATOM     22  O   UNL     1      48.807   7.921  16.931  0.00  0.00    +0.000 OA
ATOM     23  H   UNL     1      49.536   6.352  14.280  0.00  0.00    +0.000 HD
BRANCH  21  24
ATOM     24  C   UNL     1      50.270   6.086  16.740  0.00  0.00    +0.000 A 
ATOM     25  C   UNL     1      51.542   6.499  17.117  0.00  0.00    +0.000 A 
ATOM     26  S   UNL     1      52.516   5.239  17.731  0.00  0.00    +0.000 S 
ATOM     27  C   UNL     1      51.287   4.090  17.478  0.00  0.00    +0.000 A 
ATOM     28  N   UNL     1      51.481   2.777  17.777  0.00  0.00    +0.000 NA
ATOM     29  C   UNL     1      50.467   2.017  17.520  0.00  0.00    +0.000 A 
ATOM     30  N   UNL     1      49.279   2.451  16.998  0.00  0.00    +0.000 N 
ATOM     31  C   UNL     1      49.030   3.769  16.700  0.00  0.00    +0.000 A 
ATOM     32  O   UNL     1      47.939   4.130  16.275  0.00  0.00    +0.000 OA
ATOM     33  C   UNL     1      50.142   4.666  16.956  0.00  0.00    +0.000 A 
ATOM     34  H   UNL     1      48.516   1.811  16.838  0.00  0.00    +0.000 HD
ENDBRANCH  21  24
ENDBRANCH  19  20
ENDBRANCH   4  19
TORSDOF 6
ENDMDL
MODEL 4
REMARK VINA RESULT:    -7.242      4.166      7.060
REMARK INTER + INTRA:         -10.850
REMARK INTER:                  -9.932
REMARK INTRA:                  -0.918
REMARK UNBOUND:                -1.068
REMARK  Name = 
REMARK  7 active torsions:
REMARK  status: ('A' for Active; 'I' for Inactive)
REMARK    1  A    between atoms: C_1  and  C_2
REMARK    2  A    between atoms: C_6  and  C_7
REMARK    3  A    between atoms: N_9  and  C_10
REMARK    4  A    between atoms: C_10  and  C_11
REMARK    5  A    between atoms: C_14  and  C_15
REMARK    6  A    between atoms: C_15  and  N_16
REMARK    7  A    between atoms: C_17  and  C_19
REMARK                            x       y       z     vdW  Elec       q    Type
REMARK                         _______ _______ _______ _____ _____    ______ ____
ROOT
ATOM      1  C   UNL     1      44.874   9.231  11.908  0.00  0.00    +0.000 A 
ATOM      2  C   UNL     1      44.293   8.062  11.398  0.00  0.00    +0.000 A 
ATOM      3  C   UNL     1      44.810   6.796  11.720  0.00  0.00    +0.000 A 
ATOM      4  C   UNL     1      45.909   6.665  12.579  0.00  0.00    +0.000 A 
ATOM      5  C   UNL     1      46.507   7.835  13.069  0.00  0.00    +0.000 A 
ATOM      6  C   UNL     1      45.985   9.100  12.752  0.00  0.00    +0.000 A 
ENDROOT
BRANCH   1   7
ATOM      7  C   UNL     1      44.334  10.593  11.529  0.00  0.00    +0.000 C 
BRANCH   7  10
ATOM      8  C   UNL     1      41.898  10.746  11.101  0.00  0.00    +0.000 C 
ATOM      9  O   UNL     1      42.002  10.505   9.906  0.00  0.00    +0.000 OA
ATOM     10  N   UNL     1      42.977  10.820  11.968  0.00  0.00    +0.000 N 
ATOM     11  H   UNL     1      42.767  11.002  12.945  0.00  0.00    +0.000 HD
BRANCH   8  17
ATOM     12  C   UNL     1      37.257   9.388  11.509  0.00  0.00    +0.000 C 
ATOM     13  C   UNL     1      38.341  10.331  11.935  0.00  0.00    +0.000 A 
ATOM     14  C   UNL     1      38.087  11.340  12.861  0.00  0.00    +0.000 A 
ATOM     15  C   UNL     1      39.123  12.197  13.224  0.00  0.00    +0.000 A 
ATOM     16  C   UNL     1      40.381  12.022  12.657  0.00  0.00    +0.000 A 
ATOM     17  C   UNL     1      40.556  10.990  11.743  0.00  0.00    +0.000 A 
ATOM     18  N   UNL     1      39.558  10.142  11.369  0.00  0.00    +0.000 NA
ENDBRANCH   8  17
ENDBRANCH   7  10
ENDBRANCH   1   7
BRANCH   4  19
ATOM     19  C   UNL     1      46.422   5.300  12.977  0.00  0.00    +0.000 C 
BRANCH  19  20
ATOM     20  N   UNL     1      46.961   5.277  14.314  0.00  0.00    +0.000 N 
ATOM     21  C   UNL     1      47.378   4.106  14.901  0.00  0.00    +0.000 C 
ATOM     22  O   UNL     1      47.371   3.033  14.302  0.00  0.00    +0.000 OA
ATOM     23  H   UNL     1      46.764   6.082  14.900  0.00  0.00    +0.000 HD
BRANCH  21  24
ATOM     24  C   UNL     1      47.891   4.210  16.274  0.00  0.00    +0.000 A 
ATOM     25  C   UNL     1      47.478   3.307  17.246  0.00  0.00    +0.000 A 
ATOM     26  S   UNL     1      48.199   3.568  18.771  0.00  0.00    +0.000 S 
ATOM     27  C   UNL     1      49.056   4.921  18.198  0.00  0.00    +0.000 A 
ATOM     28  N   UNL     1      49.865   5.641  19.021  0.00  0.00    +0.000 NA
ATOM     29  C   UNL     1      50.442   6.649  18.453  0.00  0.00    +0.000 A 
ATOM     30  N   UNL     1      50.288   6.997  17.139  0.00  0.00    +0.000 N 
ATOM     31  C   UNL     1      49.499   6.288  16.265  0.00  0.00    +0.000 A 
ATOM     32  O   UNL     1      49.419   6.603  15.083  0.00  0.00    +0.000 OA
ATOM     33  C   UNL     1      48.815   5.153  16.855  0.00  0.00    +0.000 A 
ATOM     34  H   UNL     1      50.781   7.785  16.747  0.00  0.00    +0.000 HD
ENDBRANCH  21  24
ENDBRANCH  19  20
ENDBRANCH   4  19
TORSDOF 6
ENDMDL
MODEL 5
REMARK VINA RESULT:    -7.177      4.100      6.897
REMARK INTER + INTRA:         -10.763
REMARK INTER:                 -10.024
REMARK INTRA:                  -0.739
REMARK UNBOUND:                -1.068
REMARK  Name = 
REMARK  7 active torsions:
REMARK  status: ('A' for Active; 'I' for Inactive)
REMARK    1  A    between atoms: C_1  and  C_2
REMARK    2  A    between atoms: C_6  and  C_7
REMARK    3  A    between atoms: N_9  and  C_10
REMARK    4  A    between atoms: C_10  and  C_11
REMARK    5  A    between atoms: C_14  and  C_15
REMARK    6  A    between atoms: C_15  and  N_16
REMARK    7  A    between atoms: C_17  and  C_19
REMARK                            x       y       z     vdW  Elec       q    Type
REMARK                         _______ _______ _______ _____ _____    ______ ____
ROOT
ATOM      1  C   UNL     1      44.969   7.749  11.804  0.00  0.00    +0.000 A 
ATOM      2  C   UNL     1      44.243   6.550  11.766  0.00  0.00    +0.000 A 
ATOM      3  C   UNL     1      44.678   5.417  12.472  0.00  0.00    +0.000 A 
ATOM      4  C   UNL     1      45.840   5.458  13.255  0.00  0.00    +0.000 A 
ATOM      5  C   UNL     1      46.581   6.647  13.273  0.00  0.00    +0.000 A 
ATOM      6  C   UNL     1      46.142   7.783  12.572  0.00  0.00    +0.000 A 
ENDROOT
BRANCH   1   7
ATOM      7  C   UNL     1      44.515   8.955  11.013  0.00  0.00    +0.000 C 
BRANCH   7  10
ATOM      8  C   UNL     1      42.473  10.304  10.630  0.00  0.00    +0.000 C 
ATOM      9  O   UNL     1      42.817  10.673   9.516  0.00  0.00    +0.000 OA
ATOM     10  N   UNL     1      43.237   9.477  11.437  0.00  0.00    +0.000 N 
ATOM     11  H   UNL     1      42.838   9.216  12.334  0.00  0.00    +0.000 HD
BRANCH   8  17
ATOM     12  C   UNL     1      40.180  12.534  14.280  0.00  0.00    +0.000 C 
ATOM     13  C   UNL     1      40.071  11.803  12.977  0.00  0.00    +0.000 A 
ATOM     14  C   UNL     1      38.829  11.560  12.395  0.00  0.00    +0.000 A 
ATOM     15  C   UNL     1      38.774  10.871  11.187  0.00  0.00    +0.000 A 
ATOM     16  C   UNL     1      39.957  10.448  10.591  0.00  0.00    +0.000 A 
ATOM     17  C   UNL     1      41.158  10.731  11.231  0.00  0.00    +0.000 A 
ATOM     18  N   UNL     1      41.237  11.399  12.416  0.00  0.00    +0.000 NA
ENDBRANCH   8  17
ENDBRANCH   7  10
ENDBRANCH   1   7
BRANCH   4  19
ATOM     19  C   UNL     1      46.269   4.256  14.066  0.00  0.00    +0.000 C 
BRANCH  19  20
ATOM     20  N   UNL     1      47.397   4.538  14.919  0.00  0.00    +0.000 N 
ATOM     21  C   UNL     1      47.439   4.101  16.223  0.00  0.00    +0.000 C 
ATOM     22  O   UNL     1      46.553   3.403  16.710  0.00  0.00    +0.000 OA
ATOM     23  H   UNL     1      48.014   5.289  14.629  0.00  0.00    +0.000 HD
BRANCH  21  24
ATOM     24  C   UNL     1      48.633   4.467  16.996  0.00  0.00    +0.000 A 
ATOM     25  C   UNL     1      48.733   5.725  17.578  0.00  0.00    +0.000 A 
ATOM     26  S   UNL     1      50.177   5.958  18.457  0.00  0.00    +0.000 S 
ATOM     27  C   UNL     1      50.739   4.404  18.057  0.00  0.00    +0.000 A 
ATOM     28  N   UNL     1      51.955   3.965  18.481  0.00  0.00    +0.000 NA
ATOM     29  C   UNL     1      52.256   2.770  18.091  0.00  0.00    +0.000 A 
ATOM     30  N   UNL     1      51.452   1.975  17.321  0.00  0.00    +0.000 N 
ATOM     31  C   UNL     1      50.208   2.366  16.887  0.00  0.00    +0.000 A 
ATOM     32  O   UNL     1      49.495   1.611  16.235  0.00  0.00    +0.000 OA
ATOM     33  C   UNL     1      49.825   3.707  17.285  0.00  0.00    +0.000 A 
ATOM     34  H   UNL     1      51.735   1.041  17.064  0.00  0.00    +0.000 HD
ENDBRANCH  21  24
ENDBRANCH  19  20
ENDBRANCH   4  19
TORSDOF 6
ENDMDL
MODEL 6
REMARK VINA RESULT:    -6.934      3.400      9.095
REMARK INTER + INTRA:         -10.433
REMARK INTER:                  -9.540
REMARK INTRA:                  -0.893
REMARK UNBOUND:                -1.068
REMARK  Name = 
REMARK  7 active torsions:
REMARK  status: ('A' for Active; 'I' for Inactive)
REMARK    1  A    between atoms: C_1  and  C_2
REMARK    2  A    between atoms: C_6  and  C_7
REMARK    3  A    between atoms: N_9  and  C_10
REMARK    4  A    between atoms: C_10  and  C_11
REMARK    5  A    between atoms: C_14  and  C_15
REMARK    6  A    between atoms: C_15  and  N_16
REMARK    7  A    between atoms: C_17  and  C_19
REMARK                            x       y       z     vdW  Elec       q    Type
REMARK                         _______ _______ _______ _____ _____    ______ ____
ROOT
ATOM      1  C   UNL     1      50.129   7.260  15.458  0.00  0.00    +0.000 A 
ATOM      2  C   UNL     1      50.437   8.114  14.390  0.00  0.00    +0.000 A 
ATOM      3  C   UNL     1      49.599   8.199  13.266  0.00  0.00    +0.000 A 
ATOM      4  C   UNL     1      48.418   7.449  13.189  0.00  0.00    +0.000 A 
ATOM      5  C   UNL     1      48.122   6.576  14.245  0.00  0.00    +0.000 A 
ATOM      6  C   UNL     1      48.957   6.495  15.372  0.00  0.00    +0.000 A 
ENDROOT
BRANCH   1   7
ATOM      7  C   UNL     1      51.053   7.146  16.650  0.00  0.00    +0.000 C 
BRANCH   7  10
ATOM      8  C   UNL     1      50.960   4.918  17.730  0.00  0.00    +0.000 C 
ATOM      9  O   UNL     1      49.969   5.184  18.396  0.00  0.00    +0.000 OA
ATOM     10  N   UNL     1      51.565   5.812  16.861  0.00  0.00    +0.000 N 
ATOM     11  H   UNL     1      52.369   5.473  16.341  0.00  0.00    +0.000 HD
BRANCH   8  17
ATOM     12  C   UNL     1      54.870   2.344  19.009  0.00  0.00    +0.000 C 
ATOM     13  C   UNL     1      53.492   2.342  18.421  0.00  0.00    +0.000 A 
ATOM     14  C   UNL     1      52.900   1.158  17.991  0.00  0.00    +0.000 A 
ATOM     15  C   UNL     1      51.619   1.204  17.446  0.00  0.00    +0.000 A 
ATOM     16  C   UNL     1      50.965   2.428  17.348  0.00  0.00    +0.000 A 
ATOM     17  C   UNL     1      51.621   3.566  17.803  0.00  0.00    +0.000 A 
ATOM     18  N   UNL     1      52.875   3.546  18.335  0.00  0.00    +0.000 NA
ENDBRANCH   8  17
ENDBRANCH   7  10
ENDBRANCH   1   7
BRANCH   4  19
ATOM     19  C   UNL     1      47.485   7.593  12.009  0.00  0.00    +0.000 C 
BRANCH  19  20
ATOM     20  N   UNL     1      46.782   6.371  11.706  0.00  0.00    +0.000 N 
ATOM     21  C   UNL     1      45.408   6.329  11.647  0.00  0.00    +0.000 C 
ATOM     22  O   UNL     1      44.714   7.332  11.790  0.00  0.00    +0.000 OA
ATOM     23  H   UNL     1      47.299   5.506  11.815  0.00  0.00    +0.000 HD
BRANCH  21  24
ATOM     24  C   UNL     1      44.808   5.022  11.348  0.00  0.00    +0.000 A 
ATOM     25  C   UNL     1      44.024   4.377  12.297  0.00  0.00    +0.000 A 
ATOM     26  S   UNL     1      43.391   2.885  11.761  0.00  0.00    +0.000 S 
ATOM     27  C   UNL     1      44.174   3.028  10.258  0.00  0.00    +0.000 A 
ATOM     28  N   UNL     1      44.067   2.054   9.315  0.00  0.00    +0.000 NA
ATOM     29  C   UNL     1      44.725   2.291   8.227  0.00  0.00    +0.000 A 
ATOM     30  N   UNL     1      45.474   3.412   7.997  0.00  0.00    +0.000 N 
ATOM     31  C   UNL     1      45.595   4.431   8.911  0.00  0.00    +0.000 A 
ATOM     32  O   UNL     1      46.239   5.442   8.655  0.00  0.00    +0.000 OA
ATOM     33  C   UNL     1      44.887   4.210  10.158  0.00  0.00    +0.000 A 
ATOM     34  H   UNL     1      45.950   3.549   7.119  0.00  0.00    +0.000 HD
ENDBRANCH  21  24
ENDBRANCH  19  20
ENDBRANCH   4  19
TORSDOF 6
ENDMDL
MODEL 7
REMARK VINA RESULT:    -6.674      3.640      8.641
REMARK INTER + INTRA:         -10.083
REMARK INTER:                  -9.177
REMARK INTRA:                  -0.906
REMARK UNBOUND:                -1.068
REMARK  Name = 
REMARK  7 active torsions:
REMARK  status: ('A' for Active; 'I' for Inactive)
REMARK    1  A    between atoms: C_1  and  C_2
REMARK    2  A    between atoms: C_6  and  C_7
REMARK    3  A    between atoms: N_9  and  C_10
REMARK    4  A    between atoms: C_10  and  C_11
REMARK    5  A    between atoms: C_14  and  C_15
REMARK    6  A    between atoms: C_15  and  N_16
REMARK    7  A    between atoms: C_17  and  C_19
REMARK                            x       y       z     vdW  Elec       q    Type
REMARK                         _______ _______ _______ _____ _____    ______ ____
ROOT
ATOM      1  C   UNL     1      50.232   7.502  15.652  0.00  0.00    +0.000 A 
ATOM      2  C   UNL     1      50.927   7.788  14.469  0.00  0.00    +0.000 A 
ATOM      3  C   UNL     1      50.243   8.029  13.267  0.00  0.00    +0.000 A 
ATOM      4  C   UNL     1      48.843   8.013  13.219  0.00  0.00    +0.000 A 
ATOM      5  C   UNL     1      48.146   7.702  14.396  0.00  0.00    +0.000 A 
ATOM      6  C   UNL     1      48.831   7.467  15.600  0.00  0.00    +0.000 A 
ENDROOT
BRANCH   1   7
ATOM      7  C   UNL     1      50.975   7.209  16.936  0.00  0.00    +0.000 C 
BRANCH   7  10
ATOM      8  C   UNL     1      50.768   4.888  17.779  0.00  0.00    +0.000 C 
ATOM      9  O   UNL     1      49.749   5.116  18.416  0.00  0.00    +0.000 OA
ATOM     10  N   UNL     1      51.441   5.846  17.037  0.00  0.00    +0.000 N 
ATOM     11  H   UNL     1      52.264   5.536  16.528  0.00  0.00    +0.000 HD
BRANCH   8  17
ATOM     12  C   UNL     1      54.709   2.169  18.570  0.00  0.00    +0.000 C 
ATOM     13  C   UNL     1      53.277   2.223  18.133  0.00  0.00    +0.000 A 
ATOM     14  C   UNL     1      52.605   1.068  17.741  0.00  0.00    +0.000 A 
ATOM     15  C   UNL     1      51.276   1.166  17.337  0.00  0.00    +0.000 A 
ATOM     16  C   UNL     1      50.654   2.410  17.339  0.00  0.00    +0.000 A 
ATOM     17  C   UNL     1      51.390   3.516  17.748  0.00  0.00    +0.000 A 
ATOM     18  N   UNL     1      52.692   3.446  18.142  0.00  0.00    +0.000 NA
ENDBRANCH   8  17
ENDBRANCH   7  10
ENDBRANCH   1   7
BRANCH   4  19
ATOM     19  C   UNL     1      48.108   8.338  11.939  0.00  0.00    +0.000 C 
BRANCH  19  20
ATOM     20  N   UNL     1      47.467   7.184  11.358  0.00  0.00    +0.000 N 
ATOM     21  C   UNL     1      46.103   7.018  11.410  0.00  0.00    +0.000 C 
ATOM     22  O   UNL     1      45.357   7.864  11.896  0.00  0.00    +0.000 OA
ATOM     23  H   UNL     1      48.057   6.381  11.168  0.00  0.00    +0.000 HD
BRANCH  21  24
ATOM     24  C   UNL     1      45.572   5.792  10.800  0.00  0.00    +0.000 A 
ATOM     25  C   UNL     1      45.784   5.532   9.451  0.00  0.00    +0.000 A 
ATOM     26  S   UNL     1      45.117   4.051   8.927  0.00  0.00    +0.000 S 
ATOM     27  C   UNL     1      44.485   3.724  10.472  0.00  0.00    +0.000 A 
ATOM     28  N   UNL     1      43.763   2.596  10.711  0.00  0.00    +0.000 NA
ATOM     29  C   UNL     1      43.335   2.485  11.926  0.00  0.00    +0.000 A 
ATOM     30  N   UNL     1      43.568   3.395  12.922  0.00  0.00    +0.000 N 
ATOM     31  C   UNL     1      44.309   4.537  12.733  0.00  0.00    +0.000 A 
ATOM     32  O   UNL     1      44.535   5.309  13.658  0.00  0.00    +0.000 OA
ATOM     33  C   UNL     1      44.802   4.719  11.381  0.00  0.00    +0.000 A 
ATOM     34  H   UNL     1      43.223   3.243  13.857  0.00  0.00    +0.000 HD
ENDBRANCH  21  24
ENDBRANCH  19  20
ENDBRANCH   4  19
TORSDOF 6
ENDMDL
MODEL 8
REMARK VINA RESULT:    -6.650      2.561      3.988
REMARK INTER + INTRA:         -10.050
REMARK INTER:                  -9.119
REMARK INTRA:                  -0.931
REMARK UNBOUND:                -1.068
REMARK  Name = 
REMARK  7 active torsions:
REMARK  status: ('A' for Active; 'I' for Inactive)
REMARK    1  A    between atoms: C_1  and  C_2
REMARK    2  A    between atoms: C_6  and  C_7
REMARK    3  A    between atoms: N_9  and  C_10
REMARK    4  A    between atoms: C_10  and  C_11
REMARK    5  A    between atoms: C_14  and  C_15
REMARK    6  A    between atoms: C_15  and  N_16
REMARK    7  A    between atoms: C_17  and  C_19
REMARK                            x       y       z     vdW  Elec       q    Type
REMARK                         _______ _______ _______ _____ _____    ______ ____
ROOT
ATOM      1  C   UNL     1      47.990   7.838  13.329  0.00  0.00    +0.000 A 
ATOM      2  C   UNL     1      48.175   9.008  14.079  0.00  0.00    +0.000 A 
ATOM      3  C   UNL     1      48.558   8.950  15.429  0.00  0.00    +0.000 A 
ATOM      4  C   UNL     1      48.789   7.720  16.060  0.00  0.00    +0.000 A 
ATOM      5  C   UNL     1      48.580   6.549  15.318  0.00  0.00    +0.000 A 
ATOM      6  C   UNL     1      48.202   6.608  13.966  0.00  0.00    +0.000 A 
ENDROOT
BRANCH   1   7
ATOM      7  C   UNL     1      47.543   7.907  11.885  0.00  0.00    +0.000 C 
BRANCH   7  10
ATOM      8  C   UNL     1      45.548   6.512  11.423  0.00  0.00    +0.000 C 
ATOM      9  O   UNL     1      44.758   7.347  11.842  0.00  0.00    +0.000 OA
ATOM     10  N   UNL     1      46.922   6.691  11.413  0.00  0.00    +0.000 N 
ATOM     11  H   UNL     1      47.479   5.939  11.019  0.00  0.00    +0.000 HD
BRANCH   8  17
ATOM     12  C   UNL     1      45.498   3.441   7.666  0.00  0.00    +0.000 C 
ATOM     13  C   UNL     1      45.066   3.726   9.072  0.00  0.00    +0.000 A 
ATOM     14  C   UNL     1      44.296   2.809   9.784  0.00  0.00    +0.000 A 
ATOM     15  C   UNL     1      43.912   3.118  11.086  0.00  0.00    +0.000 A 
ATOM     16  C   UNL     1      44.310   4.329  11.643  0.00  0.00    +0.000 A 
ATOM     17  C   UNL     1      45.081   5.190  10.872  0.00  0.00    +0.000 A 
ATOM     18  N   UNL     1      45.464   4.912   9.594  0.00  0.00    +0.000 NA
ENDBRANCH   8  17
ENDBRANCH   7  10
ENDBRANCH   1   7
BRANCH   4  19
ATOM     19  C   UNL     1      49.265   7.664  17.493  0.00  0.00    +0.000 C 
BRANCH  19  20
ATOM     20  N   UNL     1      50.274   6.655  17.703  0.00  0.00    +0.000 N 
ATOM     21  C   UNL     1      50.154   5.715  18.700  0.00  0.00    +0.000 C 
ATOM     22  O   UNL     1      49.162   5.647  19.421  0.00  0.00    +0.000 OA
ATOM     23  H   UNL     1      51.185   6.827  17.291  0.00  0.00    +0.000 HD
BRANCH  21  24
ATOM     24  C   UNL     1      51.256   4.751  18.824  0.00  0.00    +0.000 A 
ATOM     25  C   UNL     1      52.377   5.064  19.583  0.00  0.00    +0.000 A 
ATOM     26  S   UNL     1      53.538   3.814  19.633  0.00  0.00    +0.000 S 
ATOM     27  C   UNL     1      52.604   2.827  18.611  0.00  0.00    +0.000 A 
ATOM     28  N   UNL     1      53.043   1.598  18.227  0.00  0.00    +0.000 NA
ATOM     29  C   UNL     1      52.235   0.966  17.440  0.00  0.00    +0.000 A 
ATOM     30  N   UNL     1      51.030   1.449  17.007  0.00  0.00    +0.000 N 
ATOM     31  C   UNL     1      50.536   2.674  17.384  0.00  0.00    +0.000 A 
ATOM     32  O   UNL     1      49.433   3.057  17.012  0.00  0.00    +0.000 OA
ATOM     33  C   UNL     1      51.410   3.433  18.258  0.00  0.00    +0.000 A 
ATOM     34  H   UNL     1      50.434   0.899  16.407  0.00  0.00    +0.000 HD
ENDBRANCH  21  24
ENDBRANCH  19  20
ENDBRANCH   4  19
TORSDOF 6
ENDMDL
MODEL 9
REMARK VINA RESULT:    -6.542      4.311     10.957
REMARK INTER + INTRA:          -9.904
REMARK INTER:                  -9.115
REMARK INTRA:                  -0.789
REMARK UNBOUND:                -1.068
REMARK  Name = 
REMARK  7 active torsions:
REMARK  status: ('A' for Active; 'I' for Inactive)
REMARK    1  A    between atoms: C_1  and  C_2
REMARK    2  A    between atoms: C_6  and  C_7
REMARK    3  A    between atoms: N_9  and  C_10
REMARK    4  A    between atoms: C_10  and  C_11
REMARK    5  A    between atoms: C_14  and  C_15
REMARK    6  A    between atoms: C_15  and  N_16
REMARK    7  A    between atoms: C_17  and  C_19
REMARK                            x       y       z     vdW  Elec       q    Type
REMARK                         _______ _______ _______ _____ _____    ______ ____
ROOT
ATOM      1  C   UNL     1      48.296   5.365  20.284  0.00  0.00    +0.000 A 
ATOM      2  C   UNL     1      49.089   4.311  19.811  0.00  0.00    +0.000 A 
ATOM      3  C   UNL     1      48.846   3.728  18.557  0.00  0.00    +0.000 A 
ATOM      4  C   UNL     1      47.817   4.199  17.731  0.00  0.00    +0.000 A 
ATOM      5  C   UNL     1      47.007   5.237  18.214  0.00  0.00    +0.000 A 
ATOM      6  C   UNL     1      47.254   5.823  19.466  0.00  0.00    +0.000 A 
ENDROOT
BRANCH   1   7
ATOM      7  C   UNL     1      48.541   5.965  21.651  0.00  0.00    +0.000 C 
BRANCH   7  10
ATOM      8  C   UNL     1      48.906   8.412  21.515  0.00  0.00    +0.000 C 
ATOM      9  O   UNL     1      50.078   8.308  21.180  0.00  0.00    +0.000 OA
ATOM     10  N   UNL     1      48.082   7.329  21.776  0.00  0.00    +0.000 N 
ATOM     11  H   UNL     1      47.119   7.535  22.022  0.00  0.00    +0.000 HD
BRANCH   8  17
ATOM     12  C   UNL     1      44.845  11.043  21.145  0.00  0.00    +0.000 C 
ATOM     13  C   UNL     1      46.300  11.007  21.500  0.00  0.00    +0.000 A 
ATOM     14  C   UNL     1      46.956  12.151  21.945  0.00  0.00    +0.000 A 
ATOM     15  C   UNL     1      48.311  12.073  22.257  0.00  0.00    +0.000 A 
ATOM     16  C   UNL     1      48.971  10.856  22.121  0.00  0.00    +0.000 A 
ATOM     17  C   UNL     1      48.247   9.758  21.675  0.00  0.00    +0.000 A 
ATOM     18  N   UNL     1      46.922   9.811  21.358  0.00  0.00    +0.000 NA
ENDBRANCH   8  17
ENDBRANCH   7  10
ENDBRANCH   1   7
BRANCH   4  19
ATOM     19  C   UNL     1      47.601   3.614  16.354  0.00  0.00    +0.000 C 
BRANCH  19  20
ATOM     20  N   UNL     1      46.951   4.537  15.455  0.00  0.00    +0.000 N 
ATOM     21  C   UNL     1      46.738   4.222  14.134  0.00  0.00    +0.000 C 
ATOM     22  O   UNL     1      47.032   3.126  13.664  0.00  0.00    +0.000 OA
ATOM     23  H   UNL     1      46.914   5.508  15.746  0.00  0.00    +0.000 HD
BRANCH  21  24
ATOM     24  C   UNL     1      46.084   5.252  13.315  0.00  0.00    +0.000 A 
ATOM     25  C   UNL     1      46.748   6.435  13.015  0.00  0.00    +0.000 A 
ATOM     26  S   UNL     1      45.842   7.497  12.033  0.00  0.00    +0.000 S 
ATOM     27  C   UNL     1      44.515   6.433  12.009  0.00  0.00    +0.000 A 
ATOM     28  N   UNL     1      43.370   6.754  11.348  0.00  0.00    +0.000 NA
ATOM     29  C   UNL     1      42.442   5.858  11.425  0.00  0.00    +0.000 A 
ATOM     30  N   UNL     1      42.556   4.671  12.097  0.00  0.00    +0.000 N 
ATOM     31  C   UNL     1      43.700   4.295  12.760  0.00  0.00    +0.000 A 
ATOM     32  O   UNL     1      43.784   3.205  13.315  0.00  0.00    +0.000 OA
ATOM     33  C   UNL     1      44.771   5.273  12.718  0.00  0.00    +0.000 A 
ATOM     34  H   UNL     1      41.802   4.002  12.105  0.00  0.00    +0.000 HD
ENDBRANCH  21  24
ENDBRANCH  19  20
ENDBRANCH   4  19
TORSDOF 6
ENDMDL
