MODEL 1
REMARK VINA RESULT:    -8.222      0.000      0.000
REMARK INTER + INTRA:         -15.121
REMARK INTER:                 -13.510
REMARK INTRA:                  -1.611
REMARK UNBOUND:                -1.611
REMARK  Name = 
REMARK  12 active torsions:
REMARK  status: ('A' for Active; 'I' for Inactive)
REMARK    1  A    between atoms: N_1  and  C_2
REMARK    2  A    between atoms: C_2  and  C_3
REMARK    3  A    between atoms: C_2  and  C_23
REMARK    4  A    between atoms: C_3  and  N_4
REMARK    5  A    between atoms: C_8  and  C_9
REMARK    6  A    between atoms: C_9  and  N_10
REMARK    7  A    between atoms: N_10  and  C_11
REMARK    8  A    between atoms: N_10  and  C_14
REMARK    9  A    between atoms: C_11  and  C_12
REMARK   10  A    between atoms: C_12  and  O_13
REMARK   11  A    between atoms: C_14  and  C_15
REMARK   12  A    between atoms: C_23  and  C_25
REMARK                            x       y       z     vdW  Elec       q    Type
REMARK                         _______ _______ _______ _____ _____    ______ ____
ROOT
ATOM      1  N   UNL     1      48.032   5.080  16.087  0.00  0.00    +0.000 N 
ATOM      2  C   UNL     1      47.423   5.130  14.804  0.00  0.00    +0.000 A 
ATOM      3  C   UNL     1      46.897   3.967  14.249  0.00  0.00    +0.000 A 
ATOM      4  C   UNL     1      46.222   4.035  13.026  0.00  0.00    +0.000 A 
ATOM      5  C   UNL     1      46.039   5.269  12.406  0.00  0.00    +0.000 A 
ATOM      6  C   UNL     1      46.658   6.361  12.991  0.00  0.00    +0.000 A 
ATOM      7  N   UNL     1      47.343   6.307  14.152  0.00  0.00    +0.000 NA
ATOM      8  H   UNL     1      47.334   4.711  16.726  0.00  0.00    +0.000 HD
ENDROOT
BRANCH   1   9
ATOM      9  C   UNL     1      48.504   6.428  16.472  0.00  0.00    +0.000 C 
BRANCH   9  10
ATOM     10  C   UNL     1      49.972   6.477  16.952  0.00  0.00    +0.000 C 
BRANCH  10  11
ATOM     11  N   UNL     1      50.957   6.174  15.877  0.00  0.00    +0.000 NA
ATOM     12  H   UNL     1      51.000   6.974  15.249  0.00  0.00    +0.000 HD
ATOM     13  H   UNL     1      50.595   5.397  15.319  0.00  0.00    +0.000 HD
ENDBRANCH  10  11
BRANCH  10  14
ATOM     14  C   UNL     1      50.109   5.413  18.073  0.00  0.00    +0.000 C 
ATOM     15  O   UNL     1      49.131   5.137  18.765  0.00  0.00    +0.000 OA
BRANCH  14  16
ATOM     16  C   UNL     1      51.323   4.587  18.209  0.00  0.00    +0.000 A 
ATOM     17  C   UNL     1      52.490   5.154  18.708  0.00  0.00    +0.000 A 
ATOM     18  S   UNL     1      53.751   4.029  18.937  0.00  0.00    +0.000 S 
ATOM     19  C   UNL     1      52.793   2.760  18.332  0.00  0.00    +0.000 A 
ATOM     20  N   UNL     1      53.257   1.480  18.297  0.00  0.00    +0.000 NA
ATOM     21  C   UNL     1      52.416   0.627  17.820  0.00  0.00    +0.000 A 
ATOM     22  N   UNL     1      51.171   0.939  17.334  0.00  0.00    +0.000 N 
ATOM     23  C   UNL     1      50.746   2.237  17.191  0.00  0.00    +0.000 A 
ATOM     24  O   UNL     1      49.806   2.530  16.460  0.00  0.00    +0.000 OA
ATOM     25  C   UNL     1      51.563   3.208  17.887  0.00  0.00    +0.000 A 
ATOM     26  H   UNL     1      50.610   0.238  16.872  0.00  0.00    +0.000 HD
ENDBRANCH  14  16
ENDBRANCH  10  14
ENDBRANCH   9  10
ENDBRANCH   1   9
BRANCH   5  27
ATOM     27  C   UNL     1      45.168   5.445  11.187  0.00  0.00    +0.000 C 
BRANCH  27  28
ATOM     28  N   UNL     1      44.482   4.192  10.748  0.00  0.00    +0.000 NA
BRANCH  28  29
ATOM     29  C   UNL     1      43.140   4.074  11.384  0.00  0.00    +0.000 C 
BRANCH  29  30
ATOM     30  C   UNL     1      42.537   5.376  11.956  0.00  0.00    +0.000 C 
BRANCH  30  31
ATOM     31  O   UNL     1      42.550   5.402  13.379  0.00  0.00    +0.000 OA
ATOM     32  H   UNL     1      43.349   4.926  13.661  0.00  0.00    +0.000 HD
ENDBRANCH  30  31
ENDBRANCH  29  30
ENDBRANCH  28  29
BRANCH  28  33
ATOM     33  C   UNL     1      44.336   4.227   9.271  0.00  0.00    +0.000 C 
BRANCH  33  34
ATOM     34  C   UNL     1      45.344   3.397   8.502  0.00  0.00    +0.000 A 
ATOM     35  C   UNL     1      45.514   2.043   8.785  0.00  0.00    +0.000 A 
ATOM     36  C   UNL     1      46.414   1.306   8.023  0.00  0.00    +0.000 A 
ATOM     37  C   UNL     1      47.120   1.935   7.006  0.00  0.00    +0.000 A 
ATOM     38  C   UNL     1      46.904   3.287   6.797  0.00  0.00    +0.000 A 
ATOM     39  N   UNL     1      46.038   4.029   7.520  0.00  0.00    +0.000 NA
ENDBRANCH  33  34
ENDBRANCH  28  33
ENDBRANCH  27  28
ENDBRANCH   5  27
TORSDOF 12
ENDMDL
MODEL 2
REMARK VINA RESULT:    -8.144      1.418      2.451
REMARK INTER + INTRA:         -14.991
REMARK INTER:                 -13.735
REMARK INTRA:                  -1.257
REMARK UNBOUND:                -1.611
REMARK  Name = 
REMARK  12 active torsions:
REMARK  status: ('A' for Active; 'I' for Inactive)
REMARK    1  A    between atoms: N_1  and  C_2
REMARK    2  A    between atoms: C_2  and  C_3
REMARK    3  A    between atoms: C_2  and  C_23
REMARK    4  A    between atoms: C_3  and  N_4
REMARK    5  A    between atoms: C_8  and  C_9
REMARK    6  A    between atoms: C_9  and  N_10
REMARK    7  A    between atoms: N_10  and  C_11
REMARK    8  A    between atoms: N_10  and  C_14
REMARK    9  A    between atoms: C_11  and  C_12
REMARK   10  A    between atoms: C_12  and  O_13
REMARK   11  A    between atoms: C_14  and  C_15
REMARK   12  A    between atoms: C_23  and  C_25
REMARK                            x       y       z     vdW  Elec       q    Type
REMARK                         _______ _______ _______ _____ _____    ______ ____
ROOT
ATOM      1  N   UNL     1      48.032   4.664  16.176  0.00  0.00    +0.000 N 
ATOM      2  C   UNL     1      47.312   4.957  14.986  0.00  0.00    +0.000 A 
ATOM      3  C   UNL     1      47.785   5.942  14.124  0.00  0.00    +0.000 A 
ATOM      4  C   UNL     1      47.123   6.167  12.912  0.00  0.00    +0.000 A 
ATOM      5  C   UNL     1      46.036   5.369  12.559  0.00  0.00    +0.000 A 
ATOM      6  C   UNL     1      45.591   4.464  13.509  0.00  0.00    +0.000 A 
ATOM      7  N   UNL     1      46.195   4.259  14.696  0.00  0.00    +0.000 NA
ATOM      8  H   UNL     1      48.974   4.413  15.892  0.00  0.00    +0.000 HD
ENDROOT
BRANCH   1   9
ATOM      9  C   UNL     1      47.351   3.583  16.922  0.00  0.00    +0.000 C 
BRANCH   9  10
ATOM     10  C   UNL     1      48.289   2.724  17.799  0.00  0.00    +0.000 C 
BRANCH  10  11
ATOM     11  N   UNL     1      48.857   3.464  18.960  0.00  0.00    +0.000 NA
ATOM     12  H   UNL     1      49.717   3.918  18.659  0.00  0.00    +0.000 HD
ATOM     13  H   UNL     1      49.132   2.783  19.672  0.00  0.00    +0.000 HD
ENDBRANCH  10  11
BRANCH  10  14
ATOM     14  C   UNL     1      49.452   2.259  16.882  0.00  0.00    +0.000 C 
ATOM     15  O   UNL     1      49.220   1.985  15.706  0.00  0.00    +0.000 OA
BRANCH  14  16
ATOM     16  C   UNL     1      50.857   2.317  17.327  0.00  0.00    +0.000 A 
ATOM     17  C   UNL     1      51.500   1.154  17.732  0.00  0.00    +0.000 A 
ATOM     18  S   UNL     1      53.156   1.374  18.074  0.00  0.00    +0.000 S 
ATOM     19  C   UNL     1      53.053   3.038  17.738  0.00  0.00    +0.000 A 
ATOM     20  N   UNL     1      54.154   3.838  17.787  0.00  0.00    +0.000 NA
ATOM     21  C   UNL     1      53.922   5.073  17.501  0.00  0.00    +0.000 A 
ATOM     22  N   UNL     1      52.686   5.594  17.211  0.00  0.00    +0.000 N 
ATOM     23  C   UNL     1      51.535   4.854  17.328  0.00  0.00    +0.000 A 
ATOM     24  O   UNL     1      50.433   5.385  17.407  0.00  0.00    +0.000 OA
ATOM     25  C   UNL     1      51.757   3.429  17.451  0.00  0.00    +0.000 A 
ATOM     26  H   UNL     1      52.560   6.590  17.107  0.00  0.00    +0.000 HD
ENDBRANCH  14  16
ENDBRANCH  10  14
ENDBRANCH   9  10
ENDBRANCH   1   9
BRANCH   5  27
ATOM     27  C   UNL     1      45.392   5.430  11.197  0.00  0.00    +0.000 C 
BRANCH  27  28
ATOM     28  N   UNL     1      44.705   4.165  10.795  0.00  0.00    +0.000 NA
BRANCH  28  29
ATOM     29  C   UNL     1      43.390   4.038  11.483  0.00  0.00    +0.000 C 
BRANCH  29  30
ATOM     30  C   UNL     1      42.559   5.334  11.619  0.00  0.00    +0.000 C 
BRANCH  30  31
ATOM     31  O   UNL     1      42.317   5.685  12.977  0.00  0.00    +0.000 OA
ATOM     32  H   UNL     1      42.713   4.985  13.523  0.00  0.00    +0.000 HD
ENDBRANCH  30  31
ENDBRANCH  29  30
ENDBRANCH  28  29
BRANCH  28  33
ATOM     33  C   UNL     1      44.502   4.185   9.325  0.00  0.00    +0.000 C 
BRANCH  33  34
ATOM     34  C   UNL     1      45.488   3.356   8.526  0.00  0.00    +0.000 A 
ATOM     35  C   UNL     1      45.598   1.983   8.737  0.00  0.00    +0.000 A 
ATOM     36  C   UNL     1      46.479   1.251   7.949  0.00  0.00    +0.000 A 
ATOM     37  C   UNL     1      47.226   1.904   6.977  0.00  0.00    +0.000 A 
ATOM     38  C   UNL     1      47.068   3.273   6.838  0.00  0.00    +0.000 A 
ATOM     39  N   UNL     1      46.222   4.011   7.589  0.00  0.00    +0.000 NA
ENDBRANCH  33  34
ENDBRANCH  28  33
ENDBRANCH  27  28
ENDBRANCH   5  27
TORSDOF 12
ENDMDL
MODEL 3
REMARK VINA RESULT:    -7.797      2.624      3.313
REMARK INTER + INTRA:         -14.422
REMARK INTER:                 -13.214
REMARK INTRA:                  -1.208
REMARK UNBOUND:                -1.611
REMARK  Name = 
REMARK  12 active torsions:
REMARK  status: ('A' for Active; 'I' for Inactive)
REMARK    1  A    between atoms: N_1  and  C_2
REMARK    2  A    between atoms: C_2  and  C_3
REMARK    3  A    between atoms: C_2  and  C_23
REMARK    4  A    between atoms: C_3  and  N_4
REMARK    5  A    between atoms: C_8  and  C_9
REMARK    6  A    between atoms: C_9  and  N_10
REMARK    7  A    between atoms: N_10  and  C_11
REMARK    8  A    between atoms: N_10  and  C_14
REMARK    9  A    between atoms: C_11  and  C_12
REMARK   10  A    between atoms: C_12  and  O_13
REMARK   11  A    between atoms: C_14  and  C_15
REMARK   12  A    between atoms: C_23  and  C_25
REMARK                            x       y       z     vdW  Elec       q    Type
REMARK                         _______ _______ _______ _____ _____    ______ ____
ROOT
ATOM      1  N   UNL     1      46.839   9.160  13.991  0.00  0.00    +0.000 N 
ATOM      2  C   UNL     1      46.374   8.136  13.121  0.00  0.00    +0.000 A 
ATOM      3  C   UNL     1      45.037   8.118  12.738  0.00  0.00    +0.000 A 
ATOM      4  C   UNL     1      44.601   7.162  11.814  0.00  0.00    +0.000 A 
ATOM      5  C   UNL     1      45.519   6.278  11.250  0.00  0.00    +0.000 A 
ATOM      6  C   UNL     1      46.813   6.321  11.742  0.00  0.00    +0.000 A 
ATOM      7  N   UNL     1      47.241   7.212  12.659  0.00  0.00    +0.000 NA
ATOM      8  H   UNL     1      46.625  10.044  13.540  0.00  0.00    +0.000 HD
ENDROOT
BRANCH   1   9
ATOM      9  C   UNL     1      48.286   8.983  14.247  0.00  0.00    +0.000 C 
BRANCH   9  10
ATOM     10  C   UNL     1      48.626   8.480  15.668  0.00  0.00    +0.000 C 
BRANCH  10  11
ATOM     11  N   UNL     1      49.425   9.452  16.465  0.00  0.00    +0.000 NA
ATOM     12  H   UNL     1      48.981   9.561  17.373  0.00  0.00    +0.000 HD
ATOM     13  H   UNL     1      49.365  10.366  16.010  0.00  0.00    +0.000 HD
ENDBRANCH  10  11
BRANCH  10  14
ATOM     14  C   UNL     1      49.450   7.177  15.493  0.00  0.00    +0.000 C 
ATOM     15  O   UNL     1      50.213   7.071  14.533  0.00  0.00    +0.000 OA
BRANCH  14  16
ATOM     16  C   UNL     1      49.489   6.141  16.541  0.00  0.00    +0.000 A 
ATOM     17  C   UNL     1      50.459   6.202  17.534  0.00  0.00    +0.000 A 
ATOM     18  S   UNL     1      50.272   5.014  18.744  0.00  0.00    +0.000 S 
ATOM     19  C   UNL     1      48.920   4.353  17.953  0.00  0.00    +0.000 A 
ATOM     20  N   UNL     1      48.225   3.314  18.492  0.00  0.00    +0.000 NA
ATOM     21  C   UNL     1      47.221   2.926  17.782  0.00  0.00    +0.000 A 
ATOM     22  N   UNL     1      46.871   3.450  16.563  0.00  0.00    +0.000 N 
ATOM     23  C   UNL     1      47.652   4.373  15.913  0.00  0.00    +0.000 A 
ATOM     24  O   UNL     1      47.535   4.583  14.711  0.00  0.00    +0.000 OA
ATOM     25  C   UNL     1      48.671   4.979  16.744  0.00  0.00    +0.000 A 
ATOM     26  H   UNL     1      46.142   3.023  16.011  0.00  0.00    +0.000 HD
ENDBRANCH  14  16
ENDBRANCH  10  14
ENDBRANCH   9  10
ENDBRANCH   1   9
BRANCH   5  27
ATOM     27  C   UNL     1      45.161   5.348  10.118  0.00  0.00    +0.000 C 
BRANCH  27  28
ATOM     28  N   UNL     1      45.361   3.902  10.436  0.00  0.00    +0.000 NA
BRANCH  28  29
ATOM     29  C   UNL     1      44.769   3.567  11.762  0.00  0.00    +0.000 C 
BRANCH  29  30
ATOM     30  C   UNL     1      43.319   3.035  11.750  0.00  0.00    +0.000 C 
BRANCH  30  31
ATOM     31  O   UNL     1      43.240   1.662  12.118  0.00  0.00    +0.000 OA
ATOM     32  H   UNL     1      43.941   1.507  12.774  0.00  0.00    +0.000 HD
ENDBRANCH  30  31
ENDBRANCH  29  30
ENDBRANCH  28  29
BRANCH  28  33
ATOM     33  C   UNL     1      44.711   3.092   9.377  0.00  0.00    +0.000 C 
BRANCH  33  34
ATOM     34  C   UNL     1      45.633   2.606   8.277  0.00  0.00    +0.000 A 
ATOM     35  C   UNL     1      45.957   3.433   7.203  0.00  0.00    +0.000 A 
ATOM     36  C   UNL     1      46.845   2.966   6.240  0.00  0.00    +0.000 A 
ATOM     37  C   UNL     1      47.383   1.692   6.371  0.00  0.00    +0.000 A 
ATOM     38  C   UNL     1      47.000   0.927   7.460  0.00  0.00    +0.000 A 
ATOM     39  N   UNL     1      46.139   1.352   8.410  0.00  0.00    +0.000 NA
ENDBRANCH  33  34
ENDBRANCH  28  33
ENDBRANCH  27  28
ENDBRANCH   5  27
TORSDOF 12
ENDMDL
MODEL 4
REMARK VINA RESULT:    -7.666      2.594      3.016
REMARK INTER + INTRA:         -14.207
REMARK INTER:                 -12.470
REMARK INTRA:                  -1.737
REMARK UNBOUND:                -1.611
REMARK  Name = 
REMARK  12 active torsions:
REMARK  status: ('A' for Active; 'I' for Inactive)
REMARK    1  A    between atoms: N_1  and  C_2
REMARK    2  A    between atoms: C_2  and  C_3
REMARK    3  A    between atoms: C_2  and  C_23
REMARK    4  A    between atoms: C_3  and  N_4
REMARK    5  A    between atoms: C_8  and  C_9
REMARK    6  A    between atoms: C_9  and  N_10
REMARK    7  A    between atoms: N_10  and  C_11
REMARK    8  A    between atoms: N_10  and  C_14
REMARK    9  A    between atoms: C_11  and  C_12
REMARK   10  A    between atoms: C_12  and  O_13
REMARK   11  A    between atoms: C_14  and  C_15
REMARK   12  A    between atoms: C_23  and  C_25
REMARK                            x       y       z     vdW  Elec       q    Type
REMARK                         _______ _______ _______ _____ _____    ______ ____
ROOT
ATOM      1  N   UNL     1      49.147   7.946  13.302  0.00  0.00    +0.000 N 
ATOM      2  C   UNL     1      47.894   7.599  12.726  0.00  0.00    +0.000 A 
ATOM      3  C   UNL     1      47.863   6.940  11.501  0.00  0.00    +0.000 A 
ATOM      4  C   UNL     1      46.634   6.522  10.979  0.00  0.00    +0.000 A 
ATOM      5  C   UNL     1      45.467   6.722  11.714  0.00  0.00    +0.000 A 
ATOM      6  C   UNL     1      45.584   7.450  12.887  0.00  0.00    +0.000 A 
ATOM      7  N   UNL     1      46.756   7.891  13.387  0.00  0.00    +0.000 NA
ATOM      8  H   UNL     1      49.675   7.084  13.391  0.00  0.00    +0.000 HD
ENDROOT
BRANCH   1   9
ATOM      9  C   UNL     1      48.933   8.624  14.600  0.00  0.00    +0.000 C 
BRANCH   9  10
ATOM     10  C   UNL     1      49.881   8.158  15.727  0.00  0.00    +0.000 C 
BRANCH  10  11
ATOM     11  N   UNL     1      50.645   6.926  15.386  0.00  0.00    +0.000 NA
ATOM     12  H   UNL     1      50.449   6.222  16.095  0.00  0.00    +0.000 HD
ATOM     13  H   UNL     1      51.643   7.135  15.465  0.00  0.00    +0.000 HD
ENDBRANCH  10  11
BRANCH  10  14
ATOM     14  C   UNL     1      48.992   7.870  16.966  0.00  0.00    +0.000 C 
ATOM     15  O   UNL     1      48.086   8.651  17.252  0.00  0.00    +0.000 OA
BRANCH  14  16
ATOM     16  C   UNL     1      49.078   6.594  17.699  0.00  0.00    +0.000 A 
ATOM     17  C   UNL     1      49.800   6.528  18.885  0.00  0.00    +0.000 A 
ATOM     18  S   UNL     1      49.677   5.022  19.676  0.00  0.00    +0.000 S 
ATOM     19  C   UNL     1      48.695   4.397  18.436  0.00  0.00    +0.000 A 
ATOM     20  N   UNL     1      48.179   3.139  18.509  0.00  0.00    +0.000 NA
ATOM     21  C   UNL     1      47.449   2.808  17.500  0.00  0.00    +0.000 A 
ATOM     22  N   UNL     1      47.221   3.600  16.402  0.00  0.00    +0.000 N 
ATOM     23  C   UNL     1      47.868   4.797  16.216  0.00  0.00    +0.000 A 
ATOM     24  O   UNL     1      47.934   5.329  15.114  0.00  0.00    +0.000 OA
ATOM     25  C   UNL     1      48.537   5.298  17.398  0.00  0.00    +0.000 A 
ATOM     26  H   UNL     1      46.732   3.234  15.598  0.00  0.00    +0.000 HD
ENDBRANCH  14  16
ENDBRANCH  10  14
ENDBRANCH   9  10
ENDBRANCH   1   9
BRANCH   5  27
ATOM     27  C   UNL     1      44.139   6.139  11.304  0.00  0.00    +0.000 C 
BRANCH  27  28
ATOM     28  N   UNL     1      44.204   4.696  10.919  0.00  0.00    +0.000 NA
BRANCH  28  29
ATOM     29  C   UNL     1      43.137   3.918  11.609  0.00  0.00    +0.000 C 
BRANCH  29  30
ATOM     30  C   UNL     1      43.609   2.749  12.502  0.00  0.00    +0.000 C 
BRANCH  30  31
ATOM     31  O   UNL     1      45.028   2.664  12.583  0.00  0.00    +0.000 OA
ATOM     32  H   UNL     1      45.233   2.145  13.379  0.00  0.00    +0.000 HD
ENDBRANCH  30  31
ENDBRANCH  29  30
ENDBRANCH  28  29
BRANCH  28  33
ATOM     33  C   UNL     1      44.030   4.591   9.449  0.00  0.00    +0.000 C 
BRANCH  33  34
ATOM     34  C   UNL     1      45.044   3.716   8.740  0.00  0.00    +0.000 A 
ATOM     35  C   UNL     1      45.137   2.356   9.031  0.00  0.00    +0.000 A 
ATOM     36  C   UNL     1      46.047   1.579   8.322  0.00  0.00    +0.000 A 
ATOM     37  C   UNL     1      46.838   2.175   7.348  0.00  0.00    +0.000 A 
ATOM     38  C   UNL     1      46.694   3.534   7.128  0.00  0.00    +0.000 A 
ATOM     39  N   UNL     1      45.821   4.315   7.800  0.00  0.00    +0.000 NA
ENDBRANCH  33  34
ENDBRANCH  28  33
ENDBRANCH  27  28
ENDBRANCH   5  27
TORSDOF 12
ENDMDL
MODEL 5
REMARK VINA RESULT:    -7.614      2.669      3.847
REMARK INTER + INTRA:         -14.121
REMARK INTER:                 -12.553
REMARK INTRA:                  -1.568
REMARK UNBOUND:                -1.611
REMARK  Name = 
REMARK  12 active torsions:
REMARK  status: ('A' for Active; 'I' for Inactive)
REMARK    1  A    between atoms: N_1  and  C_2
REMARK    2  A    between atoms: C_2  and  C_3
REMARK    3  A    between atoms: C_2  and  C_23
REMARK    4  A    between atoms: C_3  and  N_4
REMARK    5  A    between atoms: C_8  and  C_9
REMARK    6  A    between atoms: C_9  and  N_10
REMARK    7  A    between atoms: N_10  and  C_11
REMARK    8  A    between atoms: N_10  and  C_14
REMARK    9  A    between atoms: C_11  and  C_12
REMARK   10  A    between atoms: C_12  and  O_13
REMARK   11  A    between atoms: C_14  and  C_15
REMARK   12  A    between atoms: C_23  and  C_25
REMARK                            x       y       z     vdW  Elec       q    Type
REMARK                         _______ _______ _______ _____ _____    ______ ____
ROOT
ATOM      1  N   UNL     1      47.963   5.341  15.770  0.00  0.00    +0.000 N 
ATOM      2  C   UNL     1      47.290   5.420  14.520  0.00  0.00    +0.000 A 
ATOM      3  C   UNL     1      47.358   6.596  13.779  0.00  0.00    +0.000 A 
ATOM      4  C   UNL     1      46.769   6.641  12.511  0.00  0.00    +0.000 A 
ATOM      5  C   UNL     1      46.169   5.498  11.986  0.00  0.00    +0.000 A 
ATOM      6  C   UNL     1      46.084   4.397  12.822  0.00  0.00    +0.000 A 
ATOM      7  N   UNL     1      46.615   4.348  14.060  0.00  0.00    +0.000 NA
ATOM      8  H   UNL     1      48.941   5.545  15.587  0.00  0.00    +0.000 HD
ENDROOT
BRANCH   1   9
ATOM      9  C   UNL     1      47.760   4.002  16.366  0.00  0.00    +0.000 C 
BRANCH   9  10
ATOM     10  C   UNL     1      47.577   4.008  17.900  0.00  0.00    +0.000 C 
BRANCH  10  11
ATOM     11  N   UNL     1      46.600   5.028  18.376  0.00  0.00    +0.000 NA
ATOM     12  H   UNL     1      47.069   5.628  19.051  0.00  0.00    +0.000 HD
ATOM     13  H   UNL     1      45.860   4.547  18.893  0.00  0.00    +0.000 HD
ENDBRANCH  10  11
BRANCH  10  14
ATOM     14  C   UNL     1      48.968   4.322  18.513  0.00  0.00    +0.000 C 
ATOM     15  O   UNL     1      49.983   3.968  17.915  0.00  0.00    +0.000 OA
BRANCH  14  16
ATOM     16  C   UNL     1      49.114   5.195  19.692  0.00  0.00    +0.000 A 
ATOM     17  C   UNL     1      49.146   4.636  20.964  0.00  0.00    +0.000 A 
ATOM     18  S   UNL     1      49.465   5.768  22.199  0.00  0.00    +0.000 S 
ATOM     19  C   UNL     1      49.522   7.046  21.078  0.00  0.00    +0.000 A 
ATOM     20  N   UNL     1      49.814   8.317  21.470  0.00  0.00    +0.000 NA
ATOM     21  C   UNL     1      49.828   9.176  20.509  0.00  0.00    +0.000 A 
ATOM     22  N   UNL     1      49.535   8.893  19.198  0.00  0.00    +0.000 N 
ATOM     23  C   UNL     1      49.065   7.665  18.802  0.00  0.00    +0.000 A 
ATOM     24  O   UNL     1      48.490   7.510  17.731  0.00  0.00    +0.000 OA
ATOM     25  C   UNL     1      49.219   6.623  19.796  0.00  0.00    +0.000 A 
ATOM     26  H   UNL     1      49.455   9.635  18.518  0.00  0.00    +0.000 HD
ENDBRANCH  14  16
ENDBRANCH  10  14
ENDBRANCH   9  10
ENDBRANCH   1   9
BRANCH   5  27
ATOM     27  C   UNL     1      45.679   5.419  10.562  0.00  0.00    +0.000 C 
BRANCH  27  28
ATOM     28  N   UNL     1      44.463   4.567  10.387  0.00  0.00    +0.000 NA
BRANCH  28  29
ATOM     29  C   UNL     1      43.259   5.245  10.945  0.00  0.00    +0.000 C 
BRANCH  29  30
ATOM     30  C   UNL     1      42.787   4.767  12.336  0.00  0.00    +0.000 C 
BRANCH  30  31
ATOM     31  O   UNL     1      42.838   5.800  13.313  0.00  0.00    +0.000 OA
ATOM     32  H   UNL     1      43.297   6.553  12.903  0.00  0.00    +0.000 HD
ENDBRANCH  30  31
ENDBRANCH  29  30
ENDBRANCH  28  29
BRANCH  28  33
ATOM     33  C   UNL     1      44.270   4.314   8.938  0.00  0.00    +0.000 C 
BRANCH  33  34
ATOM     34  C   UNL     1      45.266   3.361   8.309  0.00  0.00    +0.000 A 
ATOM     35  C   UNL     1      46.173   3.810   7.351  0.00  0.00    +0.000 A 
ATOM     36  C   UNL     1      47.103   2.914   6.835  0.00  0.00    +0.000 A 
ATOM     37  C   UNL     1      47.103   1.599   7.284  0.00  0.00    +0.000 A 
ATOM     38  C   UNL     1      46.161   1.229   8.228  0.00  0.00    +0.000 A 
ATOM     39  N   UNL     1      45.245   2.075   8.747  0.00  0.00    +0.000 NA
ENDBRANCH  33  34
ENDBRANCH  28  33
ENDBRANCH  27  28
ENDBRANCH   5  27
TORSDOF 12
ENDMDL
MODEL 6
REMARK VINA RESULT:    -7.556      1.953      2.520
REMARK INTER + INTRA:         -14.026
REMARK INTER:                 -12.560
REMARK INTRA:                  -1.466
REMARK UNBOUND:                -1.611
REMARK  Name = 
REMARK  12 active torsions:
REMARK  status: ('A' for Active; 'I' for Inactive)
REMARK    1  A    between atoms: N_1  and  C_2
REMARK    2  A    between atoms: C_2  and  C_3
REMARK    3  A    between atoms: C_2  and  C_23
REMARK    4  A    between atoms: C_3  and  N_4
REMARK    5  A    between atoms: C_8  and  C_9
REMARK    6  A    between atoms: C_9  and  N_10
REMARK    7  A    between atoms: N_10  and  C_11
REMARK    8  A    between atoms: N_10  and  C_14
REMARK    9  A    between atoms: C_11  and  C_12
REMARK   10  A    between atoms: C_12  and  O_13
REMARK   11  A    between atoms: C_14  and  C_15
REMARK   12  A    between atoms: C_23  and  C_25
REMARK                            x       y       z     vdW  Elec       q    Type
REMARK                         _______ _______ _______ _____ _____    ______ ____
ROOT
ATOM      1  N   UNL     1      48.105   8.106  14.876  0.00  0.00    +0.000 N 
ATOM      2  C   UNL     1      47.332   7.525  13.835  0.00  0.00    +0.000 A 
ATOM      3  C   UNL     1      46.278   8.244  13.280  0.00  0.00    +0.000 A 
ATOM      4  C   UNL     1      45.576   7.705  12.197  0.00  0.00    +0.000 A 
ATOM      5  C   UNL     1      45.972   6.484  11.655  0.00  0.00    +0.000 A 
ATOM      6  C   UNL     1      46.983   5.806  12.315  0.00  0.00    +0.000 A 
ATOM      7  N   UNL     1      47.647   6.295  13.382  0.00  0.00    +0.000 NA
ATOM      8  H   UNL     1      48.473   8.981  14.512  0.00  0.00    +0.000 HD
ENDROOT
BRANCH   1   9
ATOM      9  C   UNL     1      49.169   7.168  15.297  0.00  0.00    +0.000 C 
BRANCH   9  10
ATOM     10  C   UNL     1      49.728   7.431  16.713  0.00  0.00    +0.000 C 
BRANCH  10  11
ATOM     11  N   UNL     1      51.192   7.184  16.827  0.00  0.00    +0.000 NA
ATOM     12  H   UNL     1      51.334   6.376  17.430  0.00  0.00    +0.000 HD
ATOM     13  H   UNL     1      51.615   7.977  17.315  0.00  0.00    +0.000 HD
ENDBRANCH  10  11
BRANCH  10  14
ATOM     14  C   UNL     1      48.980   6.466  17.672  0.00  0.00    +0.000 C 
ATOM     15  O   UNL     1      48.293   6.931  18.579  0.00  0.00    +0.000 OA
BRANCH  14  16
ATOM     16  C   UNL     1      48.917   5.016  17.414  0.00  0.00    +0.000 A 
ATOM     17  C   UNL     1      47.754   4.458  16.895  0.00  0.00    +0.000 A 
ATOM     18  S   UNL     1      47.900   2.801  16.522  0.00  0.00    +0.000 S 
ATOM     19  C   UNL     1      49.504   2.766  17.085  0.00  0.00    +0.000 A 
ATOM     20  N   UNL     1      50.256   1.634  17.006  0.00  0.00    +0.000 NA
ATOM     21  C   UNL     1      51.453   1.762  17.465  0.00  0.00    +0.000 A 
ATOM     22  N   UNL     1      51.957   2.903  18.037  0.00  0.00    +0.000 N 
ATOM     23  C   UNL     1      51.173   4.001  18.293  0.00  0.00    +0.000 A 
ATOM     24  O   UNL     1      51.516   4.865  19.092  0.00  0.00    +0.000 OA
ATOM     25  C   UNL     1      49.889   3.980  17.625  0.00  0.00    +0.000 A 
ATOM     26  H   UNL     1      52.866   2.899  18.478  0.00  0.00    +0.000 HD
ENDBRANCH  14  16
ENDBRANCH  10  14
ENDBRANCH   9  10
ENDBRANCH   1   9
BRANCH   5  27
ATOM     27  C   UNL     1      45.384   5.932  10.381  0.00  0.00    +0.000 C 
BRANCH  27  28
ATOM     28  N   UNL     1      44.819   4.556  10.522  0.00  0.00    +0.000 NA
BRANCH  28  29
ATOM     29  C   UNL     1      43.669   4.552  11.469  0.00  0.00    +0.000 C 
BRANCH  29  30
ATOM     30  C   UNL     1      43.722   3.509  12.608  0.00  0.00    +0.000 C 
BRANCH  30  31
ATOM     31  O   UNL     1      44.855   2.653  12.509  0.00  0.00    +0.000 OA
ATOM     32  H   UNL     1      44.525   1.741  12.587  0.00  0.00    +0.000 HD
ENDBRANCH  30  31
ENDBRANCH  29  30
ENDBRANCH  28  29
BRANCH  28  33
ATOM     33  C   UNL     1      44.369   4.091   9.186  0.00  0.00    +0.000 C 
BRANCH  33  34
ATOM     34  C   UNL     1      45.389   3.288   8.404  0.00  0.00    +0.000 A 
ATOM     35  C   UNL     1      45.609   1.943   8.695  0.00  0.00    +0.000 A 
ATOM     36  C   UNL     1      46.518   1.229   7.921  0.00  0.00    +0.000 A 
ATOM     37  C   UNL     1      47.183   1.872   6.885  0.00  0.00    +0.000 A 
ATOM     38  C   UNL     1      46.918   3.214   6.669  0.00  0.00    +0.000 A 
ATOM     39  N   UNL     1      46.042   3.934   7.403  0.00  0.00    +0.000 NA
ENDBRANCH  33  34
ENDBRANCH  28  33
ENDBRANCH  27  28
ENDBRANCH   5  27
TORSDOF 12
ENDMDL
MODEL 7
REMARK VINA RESULT:    -7.496      2.808      3.090
REMARK INTER + INTRA:         -13.928
REMARK INTER:                 -12.342
REMARK INTRA:                  -1.586
REMARK UNBOUND:                -1.611
REMARK  Name = 
REMARK  12 active torsions:
REMARK  status: ('A' for Active; 'I' for Inactive)
REMARK    1  A    between atoms: N_1  and  C_2
REMARK    2  A    between atoms: C_2  and  C_3
REMARK    3  A    between atoms: C_2  and  C_23
REMARK    4  A    between atoms: C_3  and  N_4
REMARK    5  A    between atoms: C_8  and  C_9
REMARK    6  A    between atoms: C_9  and  N_10
REMARK    7  A    between atoms: N_10  and  C_11
REMARK    8  A    between atoms: N_10  and  C_14
REMARK    9  A    between atoms: C_11  and  C_12
REMARK   10  A    between atoms: C_12  and  O_13
REMARK   11  A    between atoms: C_14  and  C_15
REMARK   12  A    between atoms: C_23  and  C_25
REMARK                            x       y       z     vdW  Elec       q    Type
REMARK                         _______ _______ _______ _____ _____    ______ ____
ROOT
ATOM      1  N   UNL     1      48.477   6.508  15.264  0.00  0.00    +0.000 N 
ATOM      2  C   UNL     1      47.697   6.213  14.113  0.00  0.00    +0.000 A 
ATOM      3  C   UNL     1      46.934   5.050  14.081  0.00  0.00    +0.000 A 
ATOM      4  C   UNL     1      46.101   4.806  12.984  0.00  0.00    +0.000 A 
ATOM      5  C   UNL     1      46.006   5.752  11.965  0.00  0.00    +0.000 A 
ATOM      6  C   UNL     1      46.855   6.844  12.044  0.00  0.00    +0.000 A 
ATOM      7  N   UNL     1      47.690   7.076  13.077  0.00  0.00    +0.000 NA
ATOM      8  H   UNL     1      47.836   6.526  16.052  0.00  0.00    +0.000 HD
ENDROOT
BRANCH   1   9
ATOM      9  C   UNL     1      49.189   7.791  15.075  0.00  0.00    +0.000 C 
BRANCH   9  10
ATOM     10  C   UNL     1      50.295   8.067  16.117  0.00  0.00    +0.000 C 
BRANCH  10  11
ATOM     11  N   UNL     1      51.603   8.437  15.509  0.00  0.00    +0.000 NA
ATOM     12  H   UNL     1      51.742   7.865  14.679  0.00  0.00    +0.000 HD
ATOM     13  H   UNL     1      52.346   8.174  16.160  0.00  0.00    +0.000 HD
ENDBRANCH  10  11
BRANCH  10  14
ATOM     14  C   UNL     1      50.473   6.759  16.933  0.00  0.00    +0.000 C 
ATOM     15  O   UNL     1      50.936   5.762  16.380  0.00  0.00    +0.000 OA
BRANCH  14  16
ATOM     16  C   UNL     1      50.283   6.728  18.395  0.00  0.00    +0.000 A 
ATOM     17  C   UNL     1      51.316   7.131  19.233  0.00  0.00    +0.000 A 
ATOM     18  S   UNL     1      50.880   7.171  20.881  0.00  0.00    +0.000 S 
ATOM     19  C   UNL     1      49.315   6.606  20.531  0.00  0.00    +0.000 A 
ATOM     20  N   UNL     1      48.381   6.459  21.510  0.00  0.00    +0.000 NA
ATOM     21  C   UNL     1      47.240   6.029  21.092  0.00  0.00    +0.000 A 
ATOM     22  N   UNL     1      46.956   5.691  19.792  0.00  0.00    +0.000 N 
ATOM     23  C   UNL     1      47.923   5.657  18.818  0.00  0.00    +0.000 A 
ATOM     24  O   UNL     1      47.760   5.043  17.769  0.00  0.00    +0.000 OA
ATOM     25  C   UNL     1      49.160   6.313  19.187  0.00  0.00    +0.000 A 
ATOM     26  H   UNL     1      46.077   5.255  19.555  0.00  0.00    +0.000 HD
ENDBRANCH  14  16
ENDBRANCH  10  14
ENDBRANCH   9  10
ENDBRANCH   1   9
BRANCH   5  27
ATOM     27  C   UNL     1      44.997   5.645  10.849  0.00  0.00    +0.000 C 
BRANCH  27  28
ATOM     28  N   UNL     1      44.458   4.266  10.651  0.00  0.00    +0.000 NA
BRANCH  28  29
ATOM     29  C   UNL     1      43.183   4.086  11.401  0.00  0.00    +0.000 C 
BRANCH  29  30
ATOM     30  C   UNL     1      42.510   5.373  11.928  0.00  0.00    +0.000 C 
BRANCH  30  31
ATOM     31  O   UNL     1      42.531   5.456  13.348  0.00  0.00    +0.000 OA
ATOM     32  H   UNL     1      43.276   6.035  13.584  0.00  0.00    +0.000 HD
ENDBRANCH  30  31
ENDBRANCH  29  30
ENDBRANCH  28  29
BRANCH  28  33
ATOM     33  C   UNL     1      44.221   4.056   9.201  0.00  0.00    +0.000 C 
BRANCH  33  34
ATOM     34  C   UNL     1      45.330   3.335   8.463  0.00  0.00    +0.000 A 
ATOM     35  C   UNL     1      45.557   1.975   8.671  0.00  0.00    +0.000 A 
ATOM     36  C   UNL     1      46.553   1.341   7.937  0.00  0.00    +0.000 A 
ATOM     37  C   UNL     1      47.297   2.075   7.022  0.00  0.00    +0.000 A 
ATOM     38  C   UNL     1      47.019   3.425   6.884  0.00  0.00    +0.000 A 
ATOM     39  N   UNL     1      46.059   4.069   7.582  0.00  0.00    +0.000 NA
ENDBRANCH  33  34
ENDBRANCH  28  33
ENDBRANCH  27  28
ENDBRANCH   5  27
TORSDOF 12
ENDMDL
MODEL 8
REMARK VINA RESULT:    -6.740      3.834      9.194
REMARK INTER + INTRA:         -12.686
REMARK INTER:                 -10.441
REMARK INTRA:                  -2.244
REMARK UNBOUND:                -1.611
REMARK  Name = 
REMARK  12 active torsions:
REMARK  status: ('A' for Active; 'I' for Inactive)
REMARK    1  A    between atoms: N_1  and  C_2
REMARK    2  A    between atoms: C_2  and  C_3
REMARK    3  A    between atoms: C_2  and  C_23
REMARK    4  A    between atoms: C_3  and  N_4
REMARK    5  A    between atoms: C_8  and  C_9
REMARK    6  A    between atoms: C_9  and  N_10
REMARK    7  A    between atoms: N_10  and  C_11
REMARK    8  A    between atoms: N_10  and  C_14
REMARK    9  A    between atoms: C_11  and  C_12
REMARK   10  A    between atoms: C_12  and  O_13
REMARK   11  A    between atoms: C_14  and  C_15
REMARK   12  A    between atoms: C_23  and  C_25
REMARK                            x       y       z     vdW  Elec       q    Type
REMARK                         _______ _______ _______ _____ _____    ______ ____
ROOT
ATOM      1  N   UNL     1      47.416   9.083  15.121  0.00  0.00    +0.000 N 
ATOM      2  C   UNL     1      48.209   8.848  16.278  0.00  0.00    +0.000 A 
ATOM      3  C   UNL     1      47.866   9.460  17.480  0.00  0.00    +0.000 A 
ATOM      4  C   UNL     1      48.595   9.159  18.635  0.00  0.00    +0.000 A 
ATOM      5  C   UNL     1      49.617   8.213  18.580  0.00  0.00    +0.000 A 
ATOM      6  C   UNL     1      49.937   7.710  17.329  0.00  0.00    +0.000 A 
ATOM      7  N   UNL     1      49.267   8.017  16.200  0.00  0.00    +0.000 NA
ATOM      8  H   UNL     1      46.467   8.810  15.358  0.00  0.00    +0.000 HD
ENDROOT
BRANCH   1   9
ATOM      9  C   UNL     1      47.963   8.324  13.975  0.00  0.00    +0.000 C 
BRANCH   9  10
ATOM     10  C   UNL     1      47.401   6.892  13.832  0.00  0.00    +0.000 C 
BRANCH  10  11
ATOM     11  N   UNL     1      48.413   5.831  14.089  0.00  0.00    +0.000 NA
ATOM     12  H   UNL     1      48.910   5.646  13.220  0.00  0.00    +0.000 HD
ATOM     13  H   UNL     1      47.920   4.966  14.321  0.00  0.00    +0.000 HD
ENDBRANCH  10  11
BRANCH  10  14
ATOM     14  C   UNL     1      46.893   6.758  12.371  0.00  0.00    +0.000 C 
ATOM     15  O   UNL     1      47.683   6.915  11.442  0.00  0.00    +0.000 OA
BRANCH  14  16
ATOM     16  C   UNL     1      45.538   6.262  12.067  0.00  0.00    +0.000 A 
ATOM     17  C   UNL     1      44.560   7.150  11.635  0.00  0.00    +0.000 A 
ATOM     18  S   UNL     1      43.099   6.392  11.190  0.00  0.00    +0.000 S 
ATOM     19  C   UNL     1      43.711   4.861  11.607  0.00  0.00    +0.000 A 
ATOM     20  N   UNL     1      42.974   3.732  11.419  0.00  0.00    +0.000 NA
ATOM     21  C   UNL     1      43.573   2.646  11.774  0.00  0.00    +0.000 A 
ATOM     22  N   UNL     1      44.822   2.587  12.340  0.00  0.00    +0.000 N 
ATOM     23  C   UNL     1      45.513   3.715  12.705  0.00  0.00    +0.000 A 
ATOM     24  O   UNL     1      46.445   3.671  13.501  0.00  0.00    +0.000 OA
ATOM     25  C   UNL     1      44.979   4.943  12.154  0.00  0.00    +0.000 A 
ATOM     26  H   UNL     1      45.182   1.714  12.698  0.00  0.00    +0.000 HD
ENDBRANCH  14  16
ENDBRANCH  10  14
ENDBRANCH   9  10
ENDBRANCH   1   9
BRANCH   5  27
ATOM     27  C   UNL     1      50.320   7.704  19.813  0.00  0.00    +0.000 C 
BRANCH  27  28
ATOM     28  N   UNL     1      50.404   6.214  19.890  0.00  0.00    +0.000 NA
BRANCH  28  29
ATOM     29  C   UNL     1      51.220   5.792  21.063  0.00  0.00    +0.000 C 
BRANCH  29  30
ATOM     30  C   UNL     1      52.131   4.562  20.857  0.00  0.00    +0.000 C 
BRANCH  30  31
ATOM     31  O   UNL     1      52.037   4.029  19.541  0.00  0.00    +0.000 OA
ATOM     32  H   UNL     1      52.416   4.694  18.941  0.00  0.00    +0.000 HD
ENDBRANCH  30  31
ENDBRANCH  29  30
ENDBRANCH  28  29
BRANCH  28  33
ATOM     33  C   UNL     1      49.028   5.671  20.014  0.00  0.00    +0.000 C 
BRANCH  33  34
ATOM     34  C   UNL     1      48.586   4.768  18.880  0.00  0.00    +0.000 A 
ATOM     35  C   UNL     1      47.432   5.052  18.153  0.00  0.00    +0.000 A 
ATOM     36  C   UNL     1      47.088   4.225  17.089  0.00  0.00    +0.000 A 
ATOM     37  C   UNL     1      47.898   3.139  16.781  0.00  0.00    +0.000 A 
ATOM     38  C   UNL     1      49.021   2.917  17.561  0.00  0.00    +0.000 A 
ATOM     39  N   UNL     1      49.381   3.701  18.600  0.00  0.00    +0.000 NA
ENDBRANCH  33  34
ENDBRANCH  28  33
ENDBRANCH  27  28
ENDBRANCH   5  27
TORSDOF 12
ENDMDL
MODEL 9
REMARK VINA RESULT:    -6.462      3.543      4.419
REMARK INTER + INTRA:         -12.228
REMARK INTER:                 -11.475
REMARK INTRA:                  -0.752
REMARK UNBOUND:                -1.611
REMARK  Name = 
REMARK  12 active torsions:
REMARK  status: ('A' for Active; 'I' for Inactive)
REMARK    1  A    between atoms: N_1  and  C_2
REMARK    2  A    between atoms: C_2  and  C_3
REMARK    3  A    between atoms: C_2  and  C_23
REMARK    4  A    between atoms: C_3  and  N_4
REMARK    5  A    between atoms: C_8  and  C_9
REMARK    6  A    between atoms: C_9  and  N_10
REMARK    7  A    between atoms: N_10  and  C_11
REMARK    8  A    between atoms: N_10  and  C_14
REMARK    9  A    between atoms: C_11  and  C_12
REMARK   10  A    between atoms: C_12  and  O_13
REMARK   11  A    between atoms: C_14  and  C_15
REMARK   12  A    between atoms: C_23  and  C_25
REMARK                            x       y       z     vdW  Elec       q    Type
REMARK                         _______ _______ _______ _____ _____    ______ ____
ROOT
ATOM      1  N   UNL     1      47.143   9.634  13.322  0.00  0.00    +0.000 N 
ATOM      2  C   UNL     1      46.259   8.645  12.812  0.00  0.00    +0.000 A 
ATOM      3  C   UNL     1      45.289   9.006  11.882  0.00  0.00    +0.000 A 
ATOM      4  C   UNL     1      44.478   8.015  11.317  0.00  0.00    +0.000 A 
ATOM      5  C   UNL     1      44.686   6.679  11.651  0.00  0.00    +0.000 A 
ATOM      6  C   UNL     1      45.623   6.419  12.638  0.00  0.00    +0.000 A 
ATOM      7  N   UNL     1      46.388   7.366  13.219  0.00  0.00    +0.000 NA
ATOM      8  H   UNL     1      47.609  10.048  12.520  0.00  0.00    +0.000 HD
ENDROOT
BRANCH   1   9
ATOM      9  C   UNL     1      48.088   9.019  14.280  0.00  0.00    +0.000 C 
BRANCH   9  10
ATOM     10  C   UNL     1      49.511   9.618  14.246  0.00  0.00    +0.000 C 
BRANCH  10  11
ATOM     11  N   UNL     1      50.357   9.073  13.147  0.00  0.00    +0.000 NA
ATOM     12  H   UNL     1      51.329   9.110  13.444  0.00  0.00    +0.000 HD
ATOM     13  H   UNL     1      50.283   9.701  12.343  0.00  0.00    +0.000 HD
ENDBRANCH  10  11
BRANCH  10  14
ATOM     14  C   UNL     1      50.173   9.271  15.606  0.00  0.00    +0.000 C 
ATOM     15  O   UNL     1      50.936  10.082  16.129  0.00  0.00    +0.000 OA
BRANCH  14  16
ATOM     16  C   UNL     1      49.768   8.084  16.382  0.00  0.00    +0.000 A 
ATOM     17  C   UNL     1      50.246   6.830  16.022  0.00  0.00    +0.000 A 
ATOM     18  S   UNL     1      49.799   5.593  17.107  0.00  0.00    +0.000 S 
ATOM     19  C   UNL     1      48.914   6.686  18.063  0.00  0.00    +0.000 A 
ATOM     20  N   UNL     1      48.301   6.284  19.211  0.00  0.00    +0.000 NA
ATOM     21  C   UNL     1      47.675   7.224  19.832  0.00  0.00    +0.000 A 
ATOM     22  N   UNL     1      47.567   8.520  19.391  0.00  0.00    +0.000 N 
ATOM     23  C   UNL     1      48.019   8.913  18.156  0.00  0.00    +0.000 A 
ATOM     24  O   UNL     1      47.631   9.949  17.627  0.00  0.00    +0.000 OA
ATOM     25  C   UNL     1      48.893   7.955  17.513  0.00  0.00    +0.000 A 
ATOM     26  H   UNL     1      46.967   9.176  19.870  0.00  0.00    +0.000 HD
ENDBRANCH  14  16
ENDBRANCH  10  14
ENDBRANCH   9  10
ENDBRANCH   1   9
BRANCH   5  27
ATOM     27  C   UNL     1      43.980   5.546  10.949  0.00  0.00    +0.000 C 
BRANCH  27  28
ATOM     28  N   UNL     1      44.897   4.476  10.453  0.00  0.00    +0.000 NA
BRANCH  28  29
ATOM     29  C   UNL     1      44.786   3.253  11.297  0.00  0.00    +0.000 C 
BRANCH  29  30
ATOM     30  C   UNL     1      43.388   2.944  11.875  0.00  0.00    +0.000 C 
BRANCH  30  31
ATOM     31  O   UNL     1      42.993   1.595  11.653  0.00  0.00    +0.000 OA
ATOM     32  H   UNL     1      42.247   1.619  11.030  0.00  0.00    +0.000 HD
ENDBRANCH  30  31
ENDBRANCH  29  30
ENDBRANCH  28  29
BRANCH  28  33
ATOM     33  C   UNL     1      44.530   4.153   9.052  0.00  0.00    +0.000 C 
BRANCH  33  34
ATOM     34  C   UNL     1      45.556   3.343   8.285  0.00  0.00    +0.000 A 
ATOM     35  C   UNL     1      45.711   1.980   8.526  0.00  0.00    +0.000 A 
ATOM     36  C   UNL     1      46.630   1.264   7.766  0.00  0.00    +0.000 A 
ATOM     37  C   UNL     1      47.369   1.924   6.792  0.00  0.00    +0.000 A 
ATOM     38  C   UNL     1      47.165   3.283   6.623  0.00  0.00    +0.000 A 
ATOM     39  N   UNL     1      46.281   4.005   7.346  0.00  0.00    +0.000 NA
ENDBRANCH  33  34
ENDBRANCH  28  33
ENDBRANCH  27  28
ENDBRANCH   5  27
TORSDOF 12
ENDMDL
