MODEL 1
REMARK VINA RESULT:    -8.240      0.000      0.000
REMARK INTER + INTRA:         -14.002
REMARK INTER:                 -12.817
REMARK INTRA:                  -1.185
REMARK UNBOUND:                -1.185
REMARK  Name = 
REMARK  10 active torsions:
REMARK  status: ('A' for Active; 'I' for Inactive)
REMARK    1  A    between atoms: N_1  and  C_2
REMARK    2  A    between atoms: C_2  and  C_3
REMARK    3  A    between atoms: C_3  and  C_4
REMARK    4  A    between atoms: C_3  and  N_11
REMARK    5  A    between atoms: C_4  and  C_5
REMARK    6  A    between atoms: N_11  and  C_12
REMARK    7  A    between atoms: C_12  and  C_13
REMARK    8  A    between atoms: C_16  and  C_17
REMARK    9  A    between atoms: C_17  and  N_18
REMARK   10  A    between atoms: C_19  and  C_21
REMARK                            x       y       z     vdW  Elec       q    Type
REMARK                         _______ _______ _______ _____ _____    ______ ____
ROOT
ATOM      1  C   UNL     1      44.458   6.369  11.651  0.00  0.00    +0.000 A 
ATOM      2  C   UNL     1      44.491   7.766  11.557  0.00  0.00    +0.000 A 
ATOM      3  C   UNL     1      45.524   8.495  12.153  0.00  0.00    +0.000 A 
ATOM      4  C   UNL     1      46.538   7.838  12.859  0.00  0.00    +0.000 A 
ATOM      5  C   UNL     1      46.480   6.445  12.990  0.00  0.00    +0.000 A 
ATOM      6  C   UNL     1      45.459   5.715  12.380  0.00  0.00    +0.000 A 
ENDROOT
BRANCH   1   7
ATOM      7  C   UNL     1      43.353   5.581  10.987  0.00  0.00    +0.000 C 
BRANCH   7   8
ATOM      8  N   UNL     1      43.863   4.805   9.861  0.00  0.00    +0.000 NA
ATOM      9  H   UNL     1      43.319   5.019   9.027  0.00  0.00    +0.000 HD
BRANCH   8  10
ATOM     10  C   UNL     1      43.860   3.343  10.066  0.00  0.00    +0.000 C 
BRANCH  10  11
ATOM     11  C   UNL     1      43.240   2.915  11.429  0.00  0.00    +0.000 C 
BRANCH  11  12
ATOM     12  N   UNL     1      44.170   2.378  12.424  0.00  0.00    +0.000 NA
ATOM     13  H   UNL     1      44.544   1.499  12.062  0.00  0.00    +0.000 HD
ATOM     14  H   UNL     1      43.645   2.115  13.258  0.00  0.00    +0.000 HD
ENDBRANCH  11  12
ENDBRANCH  10  11
BRANCH  10  15
ATOM     15  C   UNL     1      45.296   2.790   9.816  0.00  0.00    +0.000 C 
BRANCH  15  16
ATOM     16  C   UNL     1      45.842   2.576   8.414  0.00  0.00    +0.000 A 
ATOM     17  C   UNL     1      45.911   3.567   7.429  0.00  0.00    +0.000 A 
ATOM     18  C   UNL     1      46.662   3.367   6.267  0.00  0.00    +0.000 A 
ATOM     19  C   UNL     1      47.275   2.141   6.028  0.00  0.00    +0.000 A 
ATOM     20  C   UNL     1      47.091   1.095   6.927  0.00  0.00    +0.000 A 
ATOM     21  C   UNL     1      46.387   1.315   8.113  0.00  0.00    +0.000 A 
ENDBRANCH  15  16
ENDBRANCH  10  15
ENDBRANCH   8  10
ENDBRANCH   7   8
ENDBRANCH   1   7
BRANCH   4  22
ATOM     22  C   UNL     1      47.668   8.602  13.499  0.00  0.00    +0.000 C 
BRANCH  22  23
ATOM     23  N   UNL     1      47.953   8.099  14.818  0.00  0.00    +0.000 N 
ATOM     24  C   UNL     1      49.043   7.307  15.057  0.00  0.00    +0.000 C 
ATOM     25  O   UNL     1      49.844   7.002  14.183  0.00  0.00    +0.000 OA
ATOM     26  H   UNL     1      47.179   8.091  15.476  0.00  0.00    +0.000 HD
BRANCH  24  27
ATOM     27  C   UNL     1      49.238   6.897  16.456  0.00  0.00    +0.000 A 
ATOM     28  C   UNL     1      49.870   7.754  17.345  0.00  0.00    +0.000 A 
ATOM     29  S   UNL     1      49.970   7.136  18.932  0.00  0.00    +0.000 S 
ATOM     30  C   UNL     1      49.212   5.681  18.473  0.00  0.00    +0.000 A 
ATOM     31  N   UNL     1      49.015   4.683  19.370  0.00  0.00    +0.000 NA
ATOM     32  C   UNL     1      48.459   3.624  18.881  0.00  0.00    +0.000 A 
ATOM     33  N   UNL     1      48.073   3.484  17.570  0.00  0.00    +0.000 N 
ATOM     34  C   UNL     1      48.221   4.478  16.638  0.00  0.00    +0.000 A 
ATOM     35  O   UNL     1      47.816   4.337  15.488  0.00  0.00    +0.000 OA
ATOM     36  C   UNL     1      48.865   5.682  17.134  0.00  0.00    +0.000 A 
ATOM     37  H   UNL     1      47.626   2.635  17.250  0.00  0.00    +0.000 HD
ENDBRANCH  24  27
ENDBRANCH  22  23
ENDBRANCH   4  22
TORSDOF 10
ENDMDL
MODEL 2
REMARK VINA RESULT:    -8.058      1.422      1.735
REMARK INTER + INTRA:         -13.718
REMARK INTER:                 -12.971
REMARK INTRA:                  -0.747
REMARK UNBOUND:                -1.185
REMARK  Name = 
REMARK  10 active torsions:
REMARK  status: ('A' for Active; 'I' for Inactive)
REMARK    1  A    between atoms: N_1  and  C_2
REMARK    2  A    between atoms: C_2  and  C_3
REMARK    3  A    between atoms: C_3  and  C_4
REMARK    4  A    between atoms: C_3  and  N_11
REMARK    5  A    between atoms: C_4  and  C_5
REMARK    6  A    between atoms: N_11  and  C_12
REMARK    7  A    between atoms: C_12  and  C_13
REMARK    8  A    between atoms: C_16  and  C_17
REMARK    9  A    between atoms: C_17  and  N_18
REMARK   10  A    between atoms: C_19  and  C_21
REMARK                            x       y       z     vdW  Elec       q    Type
REMARK                         _______ _______ _______ _____ _____    ______ ____
ROOT
ATOM      1  C   UNL     1      45.355   6.186  12.020  0.00  0.00    +0.000 A 
ATOM      2  C   UNL     1      45.816   7.501  12.152  0.00  0.00    +0.000 A 
ATOM      3  C   UNL     1      46.967   7.781  12.893  0.00  0.00    +0.000 A 
ATOM      4  C   UNL     1      47.672   6.748  13.522  0.00  0.00    +0.000 A 
ATOM      5  C   UNL     1      47.186   5.439  13.426  0.00  0.00    +0.000 A 
ATOM      6  C   UNL     1      46.047   5.157  12.671  0.00  0.00    +0.000 A 
ENDROOT
BRANCH   1   7
ATOM      7  C   UNL     1      44.123   5.882  11.199  0.00  0.00    +0.000 C 
BRANCH   7   8
ATOM      8  N   UNL     1      44.457   5.078  10.028  0.00  0.00    +0.000 NA
ATOM      9  H   UNL     1      44.106   5.538   9.189  0.00  0.00    +0.000 HD
BRANCH   8  10
ATOM     10  C   UNL     1      43.941   3.695  10.060  0.00  0.00    +0.000 C 
BRANCH  10  11
ATOM     11  C   UNL     1      43.111   3.378  11.339  0.00  0.00    +0.000 C 
BRANCH  11  12
ATOM     12  N   UNL     1      43.073   1.975  11.755  0.00  0.00    +0.000 NA
ATOM     13  H   UNL     1      42.557   1.452  11.046  0.00  0.00    +0.000 HD
ATOM     14  H   UNL     1      42.507   1.897  12.600  0.00  0.00    +0.000 HD
ENDBRANCH  11  12
ENDBRANCH  10  11
BRANCH  10  15
ATOM     15  C   UNL     1      45.117   2.706   9.800  0.00  0.00    +0.000 C 
BRANCH  15  16
ATOM     16  C   UNL     1      45.739   2.540   8.423  0.00  0.00    +0.000 A 
ATOM     17  C   UNL     1      45.795   3.545   7.451  0.00  0.00    +0.000 A 
ATOM     18  C   UNL     1      46.610   3.402   6.324  0.00  0.00    +0.000 A 
ATOM     19  C   UNL     1      47.304   2.216   6.103  0.00  0.00    +0.000 A 
ATOM     20  C   UNL     1      47.141   1.152   6.984  0.00  0.00    +0.000 A 
ATOM     21  C   UNL     1      46.371   1.316   8.138  0.00  0.00    +0.000 A 
ENDBRANCH  15  16
ENDBRANCH  10  15
ENDBRANCH   8  10
ENDBRANCH   7   8
ENDBRANCH   1   7
BRANCH   4  22
ATOM     22  C   UNL     1      48.923   7.025  14.316  0.00  0.00    +0.000 C 
BRANCH  22  23
ATOM     23  N   UNL     1      48.622   7.200  15.714  0.00  0.00    +0.000 N 
ATOM     24  C   UNL     1      49.358   6.573  16.683  0.00  0.00    +0.000 C 
ATOM     25  O   UNL     1      50.316   5.857  16.427  0.00  0.00    +0.000 OA
ATOM     26  H   UNL     1      47.690   7.538  15.937  0.00  0.00    +0.000 HD
BRANCH  24  27
ATOM     27  C   UNL     1      48.969   6.872  18.070  0.00  0.00    +0.000 A 
ATOM     28  C   UNL     1      48.753   8.185  18.459  0.00  0.00    +0.000 A 
ATOM     29  S   UNL     1      48.266   8.342  20.087  0.00  0.00    +0.000 S 
ATOM     30  C   UNL     1      48.372   6.661  20.338  0.00  0.00    +0.000 A 
ATOM     31  N   UNL     1      48.112   6.118  21.554  0.00  0.00    +0.000 NA
ATOM     32  C   UNL     1      48.261   4.836  21.613  0.00  0.00    +0.000 A 
ATOM     33  N   UNL     1      48.639   4.049  20.553  0.00  0.00    +0.000 N 
ATOM     34  C   UNL     1      48.878   4.548  19.300  0.00  0.00    +0.000 A 
ATOM     35  O   UNL     1      49.162   3.807  18.363  0.00  0.00    +0.000 OA
ATOM     36  C   UNL     1      48.747   5.991  19.188  0.00  0.00    +0.000 A 
ATOM     37  H   UNL     1      48.722   3.046  20.657  0.00  0.00    +0.000 HD
ENDBRANCH  24  27
ENDBRANCH  22  23
ENDBRANCH   4  22
TORSDOF 10
ENDMDL
MODEL 3
REMARK VINA RESULT:    -7.950      2.835      3.715
REMARK INTER + INTRA:         -13.550
REMARK INTER:                 -12.381
REMARK INTRA:                  -1.169
REMARK UNBOUND:                -1.185
REMARK  Name = 
REMARK  10 active torsions:
REMARK  status: ('A' for Active; 'I' for Inactive)
REMARK    1  A    between atoms: N_1  and  C_2
REMARK    2  A    between atoms: C_2  and  C_3
REMARK    3  A    between atoms: C_3  and  C_4
REMARK    4  A    between atoms: C_3  and  N_11
REMARK    5  A    between atoms: C_4  and  C_5
REMARK    6  A    between atoms: N_11  and  C_12
REMARK    7  A    between atoms: C_12  and  C_13
REMARK    8  A    between atoms: C_16  and  C_17
REMARK    9  A    between atoms: C_17  and  N_18
REMARK   10  A    between atoms: C_19  and  C_21
REMARK                            x       y       z     vdW  Elec       q    Type
REMARK                         _______ _______ _______ _____ _____    ______ ____
ROOT
ATOM      1  C   UNL     1      46.771   4.821  13.849  0.00  0.00    +0.000 A 
ATOM      2  C   UNL     1      47.406   6.007  13.461  0.00  0.00    +0.000 A 
ATOM      3  C   UNL     1      48.289   6.658  14.326  0.00  0.00    +0.000 A 
ATOM      4  C   UNL     1      48.546   6.136  15.600  0.00  0.00    +0.000 A 
ATOM      5  C   UNL     1      47.877   4.974  16.003  0.00  0.00    +0.000 A 
ATOM      6  C   UNL     1      47.010   4.314  15.133  0.00  0.00    +0.000 A 
ENDROOT
BRANCH   1   7
ATOM      7  C   UNL     1      45.833   4.106  12.904  0.00  0.00    +0.000 C 
BRANCH   7   8
ATOM      8  N   UNL     1      45.630   4.878  11.682  0.00  0.00    +0.000 NA
ATOM      9  H   UNL     1      46.090   5.783  11.772  0.00  0.00    +0.000 HD
BRANCH   8  10
ATOM     10  C   UNL     1      44.216   5.100  11.319  0.00  0.00    +0.000 C 
BRANCH  10  11
ATOM     11  C   UNL     1      43.216   4.505  12.355  0.00  0.00    +0.000 C 
BRANCH  11  12
ATOM     12  N   UNL     1      42.575   5.462  13.259  0.00  0.00    +0.000 NA
ATOM     13  H   UNL     1      43.311   5.985  13.735  0.00  0.00    +0.000 HD
ATOM     14  H   UNL     1      42.099   4.947  14.000  0.00  0.00    +0.000 HD
ENDBRANCH  11  12
ENDBRANCH  10  11
BRANCH  10  15
ATOM     15  C   UNL     1      43.983   4.616   9.856  0.00  0.00    +0.000 C 
BRANCH  15  16
ATOM     16  C   UNL     1      44.979   3.722   9.137  0.00  0.00    +0.000 A 
ATOM     17  C   UNL     1      45.108   2.345   9.349  0.00  0.00    +0.000 A 
ATOM     18  C   UNL     1      45.853   1.555   8.468  0.00  0.00    +0.000 A 
ATOM     19  C   UNL     1      46.558   2.141   7.421  0.00  0.00    +0.000 A 
ATOM     20  C   UNL     1      46.561   3.526   7.287  0.00  0.00    +0.000 A 
ATOM     21  C   UNL     1      45.772   4.307   8.133  0.00  0.00    +0.000 A 
ENDBRANCH  15  16
ENDBRANCH  10  15
ENDBRANCH   8  10
ENDBRANCH   7   8
ENDBRANCH   1   7
BRANCH   4  22
ATOM     22  C   UNL     1      49.504   6.813  16.545  0.00  0.00    +0.000 C 
BRANCH  22  23
ATOM     23  N   UNL     1      50.532   5.904  16.982  0.00  0.00    +0.000 N 
ATOM     24  C   UNL     1      50.609   5.491  18.284  0.00  0.00    +0.000 C 
ATOM     25  O   UNL     1      49.806   5.843  19.138  0.00  0.00    +0.000 OA
ATOM     26  H   UNL     1      51.353   5.830  16.387  0.00  0.00    +0.000 HD
BRANCH  24  27
ATOM     27  C   UNL     1      51.682   4.531  18.585  0.00  0.00    +0.000 A 
ATOM     28  C   UNL     1      52.761   4.922  19.363  0.00  0.00    +0.000 A 
ATOM     29  S   UNL     1      53.885   3.671  19.648  0.00  0.00    +0.000 S 
ATOM     30  C   UNL     1      52.988   2.574  18.703  0.00  0.00    +0.000 A 
ATOM     31  N   UNL     1      53.423   1.305  18.503  0.00  0.00    +0.000 NA
ATOM     32  C   UNL     1      52.663   0.590  17.740  0.00  0.00    +0.000 A 
ATOM     33  N   UNL     1      51.497   1.038  17.167  0.00  0.00    +0.000 N 
ATOM     34  C   UNL     1      51.003   2.300  17.368  0.00  0.00    +0.000 A 
ATOM     35  O   UNL     1      49.930   2.648  16.883  0.00  0.00    +0.000 OA
ATOM     36  C   UNL     1      51.835   3.151  18.201  0.00  0.00    +0.000 A 
ATOM     37  H   UNL     1      50.936   0.424  16.592  0.00  0.00    +0.000 HD
ENDBRANCH  24  27
ENDBRANCH  22  23
ENDBRANCH   4  22
TORSDOF 10
ENDMDL
MODEL 4
REMARK VINA RESULT:    -7.443      3.811     10.096
REMARK INTER + INTRA:         -12.761
REMARK INTER:                  -9.975
REMARK INTRA:                  -2.786
REMARK UNBOUND:                -1.185
REMARK  Name = 
REMARK  10 active torsions:
REMARK  status: ('A' for Active; 'I' for Inactive)
REMARK    1  A    between atoms: N_1  and  C_2
REMARK    2  A    between atoms: C_2  and  C_3
REMARK    3  A    between atoms: C_3  and  C_4
REMARK    4  A    between atoms: C_3  and  N_11
REMARK    5  A    between atoms: C_4  and  C_5
REMARK    6  A    between atoms: N_11  and  C_12
REMARK    7  A    between atoms: C_12  and  C_13
REMARK    8  A    between atoms: C_16  and  C_17
REMARK    9  A    between atoms: C_17  and  N_18
REMARK   10  A    between atoms: C_19  and  C_21
REMARK                            x       y       z     vdW  Elec       q    Type
REMARK                         _______ _______ _______ _____ _____    ______ ____
ROOT
ATOM      1  C   UNL     1      51.409   4.473  17.709  0.00  0.00    +0.000 A 
ATOM      2  C   UNL     1      50.543   5.501  17.318  0.00  0.00    +0.000 A 
ATOM      3  C   UNL     1      49.218   5.222  16.972  0.00  0.00    +0.000 A 
ATOM      4  C   UNL     1      48.740   3.906  17.003  0.00  0.00    +0.000 A 
ATOM      5  C   UNL     1      49.620   2.874  17.352  0.00  0.00    +0.000 A 
ATOM      6  C   UNL     1      50.937   3.154  17.716  0.00  0.00    +0.000 A 
ENDROOT
BRANCH   1   7
ATOM      7  C   UNL     1      52.836   4.779  18.105  0.00  0.00    +0.000 C 
BRANCH   7   8
ATOM      8  N   UNL     1      52.906   5.982  18.929  0.00  0.00    +0.000 NA
ATOM      9  H   UNL     1      53.646   6.590  18.580  0.00  0.00    +0.000 HD
BRANCH   8  10
ATOM     10  C   UNL     1      53.135   5.734  20.366  0.00  0.00    +0.000 C 
BRANCH  10  11
ATOM     11  C   UNL     1      53.431   4.240  20.692  0.00  0.00    +0.000 C 
BRANCH  11  12
ATOM     12  N   UNL     1      53.299   3.845  22.096  0.00  0.00    +0.000 NA
ATOM     13  H   UNL     1      52.741   2.990  22.129  0.00  0.00    +0.000 HD
ATOM     14  H   UNL     1      52.738   4.542  22.583  0.00  0.00    +0.000 HD
ENDBRANCH  11  12
ENDBRANCH  10  11
BRANCH  10  15
ATOM     15  C   UNL     1      51.957   6.344  21.183  0.00  0.00    +0.000 C 
BRANCH  15  16
ATOM     16  C   UNL     1      50.505   6.069  20.828  0.00  0.00    +0.000 A 
ATOM     17  C   UNL     1      49.874   4.828  20.969  0.00  0.00    +0.000 A 
ATOM     18  C   UNL     1      48.483   4.720  20.875  0.00  0.00    +0.000 A 
ATOM     19  C   UNL     1      47.712   5.830  20.544  0.00  0.00    +0.000 A 
ATOM     20  C   UNL     1      48.338   7.039  20.254  0.00  0.00    +0.000 A 
ATOM     21  C   UNL     1      49.721   7.157  20.402  0.00  0.00    +0.000 A 
ENDBRANCH  15  16
ENDBRANCH  10  15
ENDBRANCH   8  10
ENDBRANCH   7   8
ENDBRANCH   1   7
BRANCH   4  22
ATOM     22  C   UNL     1      47.313   3.583  16.646  0.00  0.00    +0.000 C 
BRANCH  22  23
ATOM     23  N   UNL     1      46.790   4.526  15.692  0.00  0.00    +0.000 N 
ATOM     24  C   UNL     1      46.765   4.242  14.353  0.00  0.00    +0.000 C 
ATOM     25  O   UNL     1      47.154   3.176  13.896  0.00  0.00    +0.000 OA
ATOM     26  H   UNL     1      46.735   5.494  15.996  0.00  0.00    +0.000 HD
BRANCH  24  27
ATOM     27  C   UNL     1      46.168   5.275  13.494  0.00  0.00    +0.000 A 
ATOM     28  C   UNL     1      46.861   6.450  13.242  0.00  0.00    +0.000 A 
ATOM     29  S   UNL     1      46.041   7.514  12.192  0.00  0.00    +0.000 S 
ATOM     30  C   UNL     1      44.708   6.459  12.074  0.00  0.00    +0.000 A 
ATOM     31  N   UNL     1      43.618   6.790  11.338  0.00  0.00    +0.000 NA
ATOM     32  C   UNL     1      42.668   5.914  11.362  0.00  0.00    +0.000 A 
ATOM     33  N   UNL     1      42.722   4.728  12.054  0.00  0.00    +0.000 N 
ATOM     34  C   UNL     1      43.815   4.338  12.781  0.00  0.00    +0.000 A 
ATOM     35  O   UNL     1      43.850   3.247  13.342  0.00  0.00    +0.000 OA
ATOM     36  C   UNL     1      44.903   5.301  12.805  0.00  0.00    +0.000 A 
ATOM     37  H   UNL     1      41.952   4.075  12.019  0.00  0.00    +0.000 HD
ENDBRANCH  24  27
ENDBRANCH  22  23
ENDBRANCH   4  22
TORSDOF 10
ENDMDL
MODEL 5
REMARK VINA RESULT:    -7.303      2.157      2.986
REMARK INTER + INTRA:         -12.544
REMARK INTER:                 -11.438
REMARK INTRA:                  -1.105
REMARK UNBOUND:                -1.185
REMARK  Name = 
REMARK  10 active torsions:
REMARK  status: ('A' for Active; 'I' for Inactive)
REMARK    1  A    between atoms: N_1  and  C_2
REMARK    2  A    between atoms: C_2  and  C_3
REMARK    3  A    between atoms: C_3  and  C_4
REMARK    4  A    between atoms: C_3  and  N_11
REMARK    5  A    between atoms: C_4  and  C_5
REMARK    6  A    between atoms: N_11  and  C_12
REMARK    7  A    between atoms: C_12  and  C_13
REMARK    8  A    between atoms: C_16  and  C_17
REMARK    9  A    between atoms: C_17  and  N_18
REMARK   10  A    between atoms: C_19  and  C_21
REMARK                            x       y       z     vdW  Elec       q    Type
REMARK                         _______ _______ _______ _____ _____    ______ ____
ROOT
ATOM      1  C   UNL     1      46.634   6.151  11.952  0.00  0.00    +0.000 A 
ATOM      2  C   UNL     1      47.557   7.140  11.591  0.00  0.00    +0.000 A 
ATOM      3  C   UNL     1      48.562   7.534  12.478  0.00  0.00    +0.000 A 
ATOM      4  C   UNL     1      48.657   6.947  13.746  0.00  0.00    +0.000 A 
ATOM      5  C   UNL     1      47.707   5.990  14.122  0.00  0.00    +0.000 A 
ATOM      6  C   UNL     1      46.714   5.584  13.230  0.00  0.00    +0.000 A 
ENDROOT
BRANCH   1   7
ATOM      7  C   UNL     1      45.561   5.711  10.983  0.00  0.00    +0.000 C 
BRANCH   7   8
ATOM      8  N   UNL     1      45.486   4.255  10.908  0.00  0.00    +0.000 NA
ATOM      9  H   UNL     1      46.230   3.908  10.305  0.00  0.00    +0.000 HD
BRANCH   8  10
ATOM     10  C   UNL     1      44.196   3.727  10.420  0.00  0.00    +0.000 C 
BRANCH  10  11
ATOM     11  C   UNL     1      43.143   3.535  11.551  0.00  0.00    +0.000 C 
BRANCH  11  12
ATOM     12  N   UNL     1      43.672   3.304  12.896  0.00  0.00    +0.000 NA
ATOM     13  H   UNL     1      43.514   2.323  13.131  0.00  0.00    +0.000 HD
ATOM     14  H   UNL     1      43.109   3.827  13.566  0.00  0.00    +0.000 HD
ENDBRANCH  11  12
ENDBRANCH  10  11
BRANCH  10  15
ATOM     15  C   UNL     1      44.458   2.449   9.568  0.00  0.00    +0.000 C 
BRANCH  15  16
ATOM     16  C   UNL     1      45.424   2.449   8.395  0.00  0.00    +0.000 A 
ATOM     17  C   UNL     1      45.651   3.543   7.552  0.00  0.00    +0.000 A 
ATOM     18  C   UNL     1      46.737   3.552   6.672  0.00  0.00    +0.000 A 
ATOM     19  C   UNL     1      47.554   2.432   6.550  0.00  0.00    +0.000 A 
ATOM     20  C   UNL     1      47.252   1.281   7.272  0.00  0.00    +0.000 A 
ATOM     21  C   UNL     1      46.201   1.294   8.191  0.00  0.00    +0.000 A 
ENDBRANCH  15  16
ENDBRANCH  10  15
ENDBRANCH   8  10
ENDBRANCH   7   8
ENDBRANCH   1   7
BRANCH   4  22
ATOM     22  C   UNL     1      49.740   7.346  14.714  0.00  0.00    +0.000 C 
BRANCH  22  23
ATOM     23  N   UNL     1      49.248   7.357  16.068  0.00  0.00    +0.000 N 
ATOM     24  C   UNL     1      49.617   6.393  16.966  0.00  0.00    +0.000 C 
ATOM     25  O   UNL     1      50.396   5.491  16.686  0.00  0.00    +0.000 OA
ATOM     26  H   UNL     1      48.406   7.900  16.238  0.00  0.00    +0.000 HD
BRANCH  24  27
ATOM     27  C   UNL     1      49.074   6.547  18.324  0.00  0.00    +0.000 A 
ATOM     28  C   UNL     1      48.304   5.536  18.879  0.00  0.00    +0.000 A 
ATOM     29  S   UNL     1      47.796   5.863  20.474  0.00  0.00    +0.000 S 
ATOM     30  C   UNL     1      48.553   7.389  20.461  0.00  0.00    +0.000 A 
ATOM     31  N   UNL     1      48.474   8.217  21.532  0.00  0.00    +0.000 NA
ATOM     32  C   UNL     1      49.065   9.356  21.375  0.00  0.00    +0.000 A 
ATOM     33  N   UNL     1      49.739   9.730  20.239  0.00  0.00    +0.000 N 
ATOM     34  C   UNL     1      49.874   8.914  19.147  0.00  0.00    +0.000 A 
ATOM     35  O   UNL     1      50.530   9.261  18.169  0.00  0.00    +0.000 OA
ATOM     36  C   UNL     1      49.205   7.630  19.265  0.00  0.00    +0.000 A 
ATOM     37  H   UNL     1      50.198  10.630  20.183  0.00  0.00    +0.000 HD
ENDBRANCH  24  27
ENDBRANCH  22  23
ENDBRANCH   4  22
TORSDOF 10
ENDMDL
MODEL 6
REMARK VINA RESULT:    -7.214      2.956      3.894
REMARK INTER + INTRA:         -12.406
REMARK INTER:                 -11.243
REMARK INTRA:                  -1.163
REMARK UNBOUND:                -1.185
REMARK  Name = 
REMARK  10 active torsions:
REMARK  status: ('A' for Active; 'I' for Inactive)
REMARK    1  A    between atoms: N_1  and  C_2
REMARK    2  A    between atoms: C_2  and  C_3
REMARK    3  A    between atoms: C_3  and  C_4
REMARK    4  A    between atoms: C_3  and  N_11
REMARK    5  A    between atoms: C_4  and  C_5
REMARK    6  A    between atoms: N_11  and  C_12
REMARK    7  A    between atoms: C_12  and  C_13
REMARK    8  A    between atoms: C_16  and  C_17
REMARK    9  A    between atoms: C_17  and  N_18
REMARK   10  A    between atoms: C_19  and  C_21
REMARK                            x       y       z     vdW  Elec       q    Type
REMARK                         _______ _______ _______ _____ _____    ______ ____
ROOT
ATOM      1  C   UNL     1      46.645   4.289  13.575  0.00  0.00    +0.000 A 
ATOM      2  C   UNL     1      47.021   5.513  13.007  0.00  0.00    +0.000 A 
ATOM      3  C   UNL     1      47.757   6.444  13.744  0.00  0.00    +0.000 A 
ATOM      4  C   UNL     1      48.123   6.168  15.067  0.00  0.00    +0.000 A 
ATOM      5  C   UNL     1      47.710   4.964  15.649  0.00  0.00    +0.000 A 
ATOM      6  C   UNL     1      46.990   4.026  14.907  0.00  0.00    +0.000 A 
ENDROOT
BRANCH   1   7
ATOM      7  C   UNL     1      45.867   3.274  12.769  0.00  0.00    +0.000 C 
BRANCH   7   8
ATOM      8  N   UNL     1      44.477   3.686  12.607  0.00  0.00    +0.000 NA
ATOM      9  H   UNL     1      43.864   2.894  12.798  0.00  0.00    +0.000 HD
BRANCH   8  10
ATOM     10  C   UNL     1      44.145   4.230  11.275  0.00  0.00    +0.000 C 
BRANCH  10  11
ATOM     11  C   UNL     1      42.898   5.163  11.286  0.00  0.00    +0.000 C 
BRANCH  11  12
ATOM     12  N   UNL     1      43.166   6.602  11.285  0.00  0.00    +0.000 NA
ATOM     13  H   UNL     1      44.044   6.757  10.787  0.00  0.00    +0.000 HD
ATOM     14  H   UNL     1      43.350   6.904  12.241  0.00  0.00    +0.000 HD
ENDBRANCH  11  12
ENDBRANCH  10  11
BRANCH  10  15
ATOM     15  C   UNL     1      44.055   3.057  10.253  0.00  0.00    +0.000 C 
BRANCH  15  16
ATOM     16  C   UNL     1      44.991   2.958   9.059  0.00  0.00    +0.000 A 
ATOM     17  C   UNL     1      45.416   4.047   8.291  0.00  0.00    +0.000 A 
ATOM     18  C   UNL     1      46.474   3.913   7.387  0.00  0.00    +0.000 A 
ATOM     19  C   UNL     1      47.058   2.669   7.166  0.00  0.00    +0.000 A 
ATOM     20  C   UNL     1      46.547   1.548   7.812  0.00  0.00    +0.000 A 
ATOM     21  C   UNL     1      45.528   1.694   8.755  0.00  0.00    +0.000 A 
ENDBRANCH  15  16
ENDBRANCH  10  15
ENDBRANCH   8  10
ENDBRANCH   7   8
ENDBRANCH   1   7
BRANCH   4  22
ATOM     22  C   UNL     1      48.928   7.151  15.877  0.00  0.00    +0.000 C 
BRANCH  22  23
ATOM     23  N   UNL     1      48.390   7.293  17.206  0.00  0.00    +0.000 N 
ATOM     24  C   UNL     1      49.209   7.398  18.297  0.00  0.00    +0.000 C 
ATOM     25  O   UNL     1      50.430   7.404  18.210  0.00  0.00    +0.000 OA
ATOM     26  H   UNL     1      47.423   7.007  17.335  0.00  0.00    +0.000 HD
BRANCH  24  27
ATOM     27  C   UNL     1      48.529   7.578  19.589  0.00  0.00    +0.000 A 
ATOM     28  C   UNL     1      48.655   6.613  20.577  0.00  0.00    +0.000 A 
ATOM     29  S   UNL     1      47.839   7.007  22.022  0.00  0.00    +0.000 S 
ATOM     30  C   UNL     1      47.250   8.461  21.359  0.00  0.00    +0.000 A 
ATOM     31  N   UNL     1      46.439   9.278  22.075  0.00  0.00    +0.000 NA
ATOM     32  C   UNL     1      46.040  10.331  21.440  0.00  0.00    +0.000 A 
ATOM     33  N   UNL     1      46.394  10.640  20.150  0.00  0.00    +0.000 N 
ATOM     34  C   UNL     1      47.237   9.862  19.401  0.00  0.00    +0.000 A 
ATOM     35  O   UNL     1      47.575  10.198  18.269  0.00  0.00    +0.000 OA
ATOM     36  C   UNL     1      47.695   8.653  20.063  0.00  0.00    +0.000 A 
ATOM     37  H   UNL     1      46.063  11.489  19.712  0.00  0.00    +0.000 HD
ENDBRANCH  24  27
ENDBRANCH  22  23
ENDBRANCH   4  22
TORSDOF 10
ENDMDL
MODEL 7
REMARK VINA RESULT:    -7.206      2.792      4.490
REMARK INTER + INTRA:         -12.393
REMARK INTER:                 -11.148
REMARK INTRA:                  -1.245
REMARK UNBOUND:                -1.185
REMARK  Name = 
REMARK  10 active torsions:
REMARK  status: ('A' for Active; 'I' for Inactive)
REMARK    1  A    between atoms: N_1  and  C_2
REMARK    2  A    between atoms: C_2  and  C_3
REMARK    3  A    between atoms: C_3  and  C_4
REMARK    4  A    between atoms: C_3  and  N_11
REMARK    5  A    between atoms: C_4  and  C_5
REMARK    6  A    between atoms: N_11  and  C_12
REMARK    7  A    between atoms: C_12  and  C_13
REMARK    8  A    between atoms: C_16  and  C_17
REMARK    9  A    between atoms: C_17  and  N_18
REMARK   10  A    between atoms: C_19  and  C_21
REMARK                            x       y       z     vdW  Elec       q    Type
REMARK                         _______ _______ _______ _____ _____    ______ ____
ROOT
ATOM      1  C   UNL     1      46.988   5.426  13.566  0.00  0.00    +0.000 A 
ATOM      2  C   UNL     1      46.773   4.360  14.447  0.00  0.00    +0.000 A 
ATOM      3  C   UNL     1      47.413   4.322  15.688  0.00  0.00    +0.000 A 
ATOM      4  C   UNL     1      48.286   5.349  16.067  0.00  0.00    +0.000 A 
ATOM      5  C   UNL     1      48.534   6.393  15.167  0.00  0.00    +0.000 A 
ATOM      6  C   UNL     1      47.881   6.440  13.935  0.00  0.00    +0.000 A 
ENDROOT
BRANCH   1   7
ATOM      7  C   UNL     1      46.278   5.477  12.233  0.00  0.00    +0.000 C 
BRANCH   7   8
ATOM      8  N   UNL     1      44.851   5.215  12.387  0.00  0.00    +0.000 NA
ATOM      9  H   UNL     1      44.716   4.269  12.741  0.00  0.00    +0.000 HD
BRANCH   8  10
ATOM     10  C   UNL     1      44.056   5.377  11.154  0.00  0.00    +0.000 C 
BRANCH  10  11
ATOM     11  C   UNL     1      42.703   6.112  11.387  0.00  0.00    +0.000 C 
BRANCH  11  12
ATOM     12  N   UNL     1      42.687   7.547  11.097  0.00  0.00    +0.000 NA
ATOM     13  H   UNL     1      43.617   7.811  10.769  0.00  0.00    +0.000 HD
ATOM     14  H   UNL     1      42.562   8.059  11.969  0.00  0.00    +0.000 HD
ENDBRANCH  11  12
ENDBRANCH  10  11
BRANCH  10  15
ATOM     15  C   UNL     1      43.917   3.993  10.451  0.00  0.00    +0.000 C 
BRANCH  15  16
ATOM     16  C   UNL     1      44.965   3.477   9.478  0.00  0.00    +0.000 A 
ATOM     17  C   UNL     1      45.286   2.127   9.299  0.00  0.00    +0.000 A 
ATOM     18  C   UNL     1      46.060   1.716   8.209  0.00  0.00    +0.000 A 
ATOM     19  C   UNL     1      46.604   2.656   7.339  0.00  0.00    +0.000 A 
ATOM     20  C   UNL     1      46.419   4.012   7.590  0.00  0.00    +0.000 A 
ATOM     21  C   UNL     1      45.600   4.417   8.646  0.00  0.00    +0.000 A 
ENDBRANCH  15  16
ENDBRANCH  10  15
ENDBRANCH   8  10
ENDBRANCH   7   8
ENDBRANCH   1   7
BRANCH   4  22
ATOM     22  C   UNL     1      48.977   5.336  17.405  0.00  0.00    +0.000 C 
BRANCH  22  23
ATOM     23  N   UNL     1      48.760   6.572  18.113  0.00  0.00    +0.000 N 
ATOM     24  C   UNL     1      47.655   6.755  18.900  0.00  0.00    +0.000 C 
ATOM     25  O   UNL     1      46.810   5.886  19.067  0.00  0.00    +0.000 OA
ATOM     26  H   UNL     1      49.270   7.383  17.774  0.00  0.00    +0.000 HD
BRANCH  24  27
ATOM     27  C   UNL     1      47.578   8.048  19.597  0.00  0.00    +0.000 A 
ATOM     28  C   UNL     1      47.467   8.081  20.980  0.00  0.00    +0.000 A 
ATOM     29  S   UNL     1      47.435   9.661  21.623  0.00  0.00    +0.000 S 
ATOM     30  C   UNL     1      47.523  10.355  20.069  0.00  0.00    +0.000 A 
ATOM     31  N   UNL     1      47.503  11.701  19.903  0.00  0.00    +0.000 NA
ATOM     32  C   UNL     1      47.543  12.091  18.671  0.00  0.00    +0.000 A 
ATOM     33  N   UNL     1      47.612  11.244  17.591  0.00  0.00    +0.000 N 
ATOM     34  C   UNL     1      47.669   9.881  17.713  0.00  0.00    +0.000 A 
ATOM     35  O   UNL     1      47.785   9.158  16.728  0.00  0.00    +0.000 OA
ATOM     36  C   UNL     1      47.602   9.392  19.079  0.00  0.00    +0.000 A 
ATOM     37  H   UNL     1      47.659  11.611  16.650  0.00  0.00    +0.000 HD
ENDBRANCH  24  27
ENDBRANCH  22  23
ENDBRANCH   4  22
TORSDOF 10
ENDMDL
MODEL 8
REMARK VINA RESULT:    -7.185      3.730      9.392
REMARK INTER + INTRA:         -12.360
REMARK INTER:                  -9.068
REMARK INTRA:                  -3.292
REMARK UNBOUND:                -1.185
REMARK  Name = 
REMARK  10 active torsions:
REMARK  status: ('A' for Active; 'I' for Inactive)
REMARK    1  A    between atoms: N_1  and  C_2
REMARK    2  A    between atoms: C_2  and  C_3
REMARK    3  A    between atoms: C_3  and  C_4
REMARK    4  A    between atoms: C_3  and  N_11
REMARK    5  A    between atoms: C_4  and  C_5
REMARK    6  A    between atoms: N_11  and  C_12
REMARK    7  A    between atoms: C_12  and  C_13
REMARK    8  A    between atoms: C_16  and  C_17
REMARK    9  A    between atoms: C_17  and  N_18
REMARK   10  A    between atoms: C_19  and  C_21
REMARK                            x       y       z     vdW  Elec       q    Type
REMARK                         _______ _______ _______ _____ _____    ______ ____
ROOT
ATOM      1  C   UNL     1      49.251   5.537  19.781  0.00  0.00    +0.000 A 
ATOM      2  C   UNL     1      47.921   5.826  19.450  0.00  0.00    +0.000 A 
ATOM      3  C   UNL     1      47.304   5.195  18.367  0.00  0.00    +0.000 A 
ATOM      4  C   UNL     1      48.011   4.268  17.591  0.00  0.00    +0.000 A 
ATOM      5  C   UNL     1      49.353   4.013  17.896  0.00  0.00    +0.000 A 
ATOM      6  C   UNL     1      49.964   4.629  18.988  0.00  0.00    +0.000 A 
ENDROOT
BRANCH   1   7
ATOM      7  C   UNL     1      49.910   6.204  20.966  0.00  0.00    +0.000 C 
BRANCH   7   8
ATOM      8  N   UNL     1      49.662   7.643  20.965  0.00  0.00    +0.000 NA
ATOM      9  H   UNL     1      48.819   7.841  20.427  0.00  0.00    +0.000 HD
BRANCH   8  10
ATOM     10  C   UNL     1      50.769   8.460  20.429  0.00  0.00    +0.000 C 
BRANCH  10  11
ATOM     11  C   UNL     1      51.417   9.391  21.496  0.00  0.00    +0.000 C 
BRANCH  11  12
ATOM     12  N   UNL     1      50.648  10.579  21.872  0.00  0.00    +0.000 NA
ATOM     13  H   UNL     1      51.237  11.156  22.475  0.00  0.00    +0.000 HD
ATOM     14  H   UNL     1      49.869  10.293  22.464  0.00  0.00    +0.000 HD
ENDBRANCH  11  12
ENDBRANCH  10  11
BRANCH  10  15
ATOM     15  C   UNL     1      50.282   9.200  19.146  0.00  0.00    +0.000 C 
BRANCH  15  16
ATOM     16  C   UNL     1      50.151   8.489  17.810  0.00  0.00    +0.000 A 
ATOM     17  C   UNL     1      51.154   7.711  17.222  0.00  0.00    +0.000 A 
ATOM     18  C   UNL     1      50.868   6.881  16.134  0.00  0.00    +0.000 A 
ATOM     19  C   UNL     1      49.602   6.889  15.557  0.00  0.00    +0.000 A 
ATOM     20  C   UNL     1      48.635   7.768  16.036  0.00  0.00    +0.000 A 
ATOM     21  C   UNL     1      48.906   8.555  17.157  0.00  0.00    +0.000 A 
ENDBRANCH  15  16
ENDBRANCH  10  15
ENDBRANCH   8  10
ENDBRANCH   7   8
ENDBRANCH   1   7
BRANCH   4  22
ATOM     22  C   UNL     1      47.362   3.565  16.427  0.00  0.00    +0.000 C 
BRANCH  22  23
ATOM     23  N   UNL     1      46.751   4.509  15.527  0.00  0.00    +0.000 N 
ATOM     24  C   UNL     1      46.806   4.335  14.170  0.00  0.00    +0.000 C 
ATOM     25  O   UNL     1      47.347   3.369  13.649  0.00  0.00    +0.000 OA
ATOM     26  H   UNL     1      46.559   5.433  15.902  0.00  0.00    +0.000 HD
BRANCH  24  27
ATOM     27  C   UNL     1      46.106   5.350  13.369  0.00  0.00    +0.000 A 
ATOM     28  C   UNL     1      46.713   6.572  13.118  0.00  0.00    +0.000 A 
ATOM     29  S   UNL     1      45.779   7.609  12.138  0.00  0.00    +0.000 S 
ATOM     30  C   UNL     1      44.510   6.476  12.052  0.00  0.00    +0.000 A 
ATOM     31  N   UNL     1      43.367   6.756  11.378  0.00  0.00    +0.000 NA
ATOM     32  C   UNL     1      42.475   5.822  11.421  0.00  0.00    +0.000 A 
ATOM     33  N   UNL     1      42.635   4.625  12.076  0.00  0.00    +0.000 N 
ATOM     34  C   UNL     1      43.784   4.286  12.741  0.00  0.00    +0.000 A 
ATOM     35  O   UNL     1      43.912   3.185  13.269  0.00  0.00    +0.000 OA
ATOM     36  C   UNL     1      44.810   5.314  12.741  0.00  0.00    +0.000 A 
ATOM     37  H   UNL     1      41.906   3.925  12.059  0.00  0.00    +0.000 HD
ENDBRANCH  24  27
ENDBRANCH  22  23
ENDBRANCH   4  22
TORSDOF 10
ENDMDL
MODEL 9
REMARK VINA RESULT:    -6.925      3.886      6.427
REMARK INTER + INTRA:         -11.956
REMARK INTER:                 -11.186
REMARK INTRA:                  -0.770
REMARK UNBOUND:                -1.185
REMARK  Name = 
REMARK  10 active torsions:
REMARK  status: ('A' for Active; 'I' for Inactive)
REMARK    1  A    between atoms: N_1  and  C_2
REMARK    2  A    between atoms: C_2  and  C_3
REMARK    3  A    between atoms: C_3  and  C_4
REMARK    4  A    between atoms: C_3  and  N_11
REMARK    5  A    between atoms: C_4  and  C_5
REMARK    6  A    between atoms: N_11  and  C_12
REMARK    7  A    between atoms: C_12  and  C_13
REMARK    8  A    between atoms: C_16  and  C_17
REMARK    9  A    between atoms: C_17  and  N_18
REMARK   10  A    between atoms: C_19  and  C_21
REMARK                            x       y       z     vdW  Elec       q    Type
REMARK                         _______ _______ _______ _____ _____    ______ ____
ROOT
ATOM      1  C   UNL     1      46.557   4.627  13.036  0.00  0.00    +0.000 A 
ATOM      2  C   UNL     1      46.334   5.540  11.998  0.00  0.00    +0.000 A 
ATOM      3  C   UNL     1      46.759   6.866  12.113  0.00  0.00    +0.000 A 
ATOM      4  C   UNL     1      47.411   7.302  13.273  0.00  0.00    +0.000 A 
ATOM      5  C   UNL     1      47.594   6.400  14.328  0.00  0.00    +0.000 A 
ATOM      6  C   UNL     1      47.186   5.071  14.206  0.00  0.00    +0.000 A 
ENDROOT
BRANCH   1   7
ATOM      7  C   UNL     1      46.116   3.188  12.902  0.00  0.00    +0.000 C 
BRANCH   7   8
ATOM      8  N   UNL     1      44.709   3.103  12.523  0.00  0.00    +0.000 NA
ATOM      9  H   UNL     1      44.396   2.135  12.593  0.00  0.00    +0.000 HD
BRANCH   8  10
ATOM     10  C   UNL     1      44.403   3.602  11.167  0.00  0.00    +0.000 C 
BRANCH  10  11
ATOM     11  C   UNL     1      43.039   4.350  11.081  0.00  0.00    +0.000 C 
BRANCH  11  12
ATOM     12  N   UNL     1      43.089   5.736  10.612  0.00  0.00    +0.000 NA
ATOM     13  H   UNL     1      42.650   6.323  11.323  0.00  0.00    +0.000 HD
ATOM     14  H   UNL     1      42.492   5.828   9.792  0.00  0.00    +0.000 HD
ENDBRANCH  11  12
ENDBRANCH  10  11
BRANCH  10  15
ATOM     15  C   UNL     1      44.556   2.433  10.147  0.00  0.00    +0.000 C 
BRANCH  15  16
ATOM     16  C   UNL     1      45.368   2.582   8.871  0.00  0.00    +0.000 A 
ATOM     17  C   UNL     1      45.594   3.794   8.210  0.00  0.00    +0.000 A 
ATOM     18  C   UNL     1      46.561   3.889   7.204  0.00  0.00    +0.000 A 
ATOM     19  C   UNL     1      47.246   2.755   6.778  0.00  0.00    +0.000 A 
ATOM     20  C   UNL     1      46.925   1.515   7.322  0.00  0.00    +0.000 A 
ATOM     21  C   UNL     1      46.000   1.432   8.364  0.00  0.00    +0.000 A 
ENDBRANCH  15  16
ENDBRANCH  10  15
ENDBRANCH   8  10
ENDBRANCH   7   8
ENDBRANCH   1   7
BRANCH   4  22
ATOM     22  C   UNL     1      47.890   8.724  13.414  0.00  0.00    +0.000 C 
BRANCH  22  23
ATOM     23  N   UNL     1      47.434   9.536  12.316  0.00  0.00    +0.000 N 
ATOM     24  C   UNL     1      47.860  10.828  12.163  0.00  0.00    +0.000 C 
ATOM     25  O   UNL     1      48.660  11.355  12.924  0.00  0.00    +0.000 OA
ATOM     26  H   UNL     1      46.580   9.237  11.855  0.00  0.00    +0.000 HD
BRANCH  24  27
ATOM     27  C   UNL     1      47.349  11.531  10.976  0.00  0.00    +0.000 A 
ATOM     28  C   UNL     1      48.235  12.119  10.086  0.00  0.00    +0.000 A 
ATOM     29  S   UNL     1      47.472  12.850   8.747  0.00  0.00    +0.000 S 
ATOM     30  C   UNL     1      45.926  12.443   9.335  0.00  0.00    +0.000 A 
ATOM     31  N   UNL     1      44.805  12.812   8.667  0.00  0.00    +0.000 NA
ATOM     32  C   UNL     1      43.700  12.467   9.242  0.00  0.00    +0.000 A 
ATOM     33  N   UNL     1      43.623  11.775  10.426  0.00  0.00    +0.000 N 
ATOM     34  C   UNL     1      44.728  11.353  11.117  0.00  0.00    +0.000 A 
ATOM     35  O   UNL     1      44.621  10.689  12.144  0.00  0.00    +0.000 OA
ATOM     36  C   UNL     1      45.997  11.737  10.523  0.00  0.00    +0.000 A 
ATOM     37  H   UNL     1      42.727  11.518  10.817  0.00  0.00    +0.000 HD
ENDBRANCH  24  27
ENDBRANCH  22  23
ENDBRANCH   4  22
TORSDOF 10
ENDMDL
