MODEL 1
REMARK VINA RESULT:    -8.237      0.000      0.000
REMARK INTER + INTRA:         -12.575
REMARK INTER:                 -11.608
REMARK INTRA:                  -0.967
REMARK UNBOUND:                -0.967
REMARK  Name = 
REMARK  8 active torsions:
REMARK  status: ('A' for Active; 'I' for Inactive)
REMARK    1  A    between atoms: C_1  and  N_2
REMARK    2  A    between atoms: C_4  and  C_5
REMARK    3  A    between atoms: N_7  and  C_8
REMARK    4  A    between atoms: C_8  and  C_9
REMARK    5  A    between atoms: C_12  and  C_13
REMARK    6  A    between atoms: C_13  and  O_14
REMARK    7  A    between atoms: O_14  and  C_15
REMARK    8  A    between atoms: C_15  and  C_16
REMARK                            x       y       z     vdW  Elec       q    Type
REMARK                         _______ _______ _______ _____ _____    ______ ____
ROOT
ATOM      1  C   UNL     1      47.933   6.489  13.670  0.00  0.00    +0.000 C 
ENDROOT
BRANCH   1   2
ATOM      2  C   UNL     1      46.876   5.667  12.987  0.00  0.00    +0.000 A 
ATOM      3  C   UNL     1      46.267   6.085  11.802  0.00  0.00    +0.000 A 
ATOM      4  C   UNL     1      45.230   5.331  11.246  0.00  0.00    +0.000 A 
ATOM      5  C   UNL     1      44.821   4.161  11.883  0.00  0.00    +0.000 A 
ATOM      6  N   UNL     1      45.419   3.718  13.018  0.00  0.00    +0.000 NA
ATOM      7  C   UNL     1      46.429   4.468  13.530  0.00  0.00    +0.000 A 
BRANCH   5   8
ATOM      8  C   UNL     1      43.644   3.372  11.346  0.00  0.00    +0.000 C 
BRANCH   8   9
ATOM      9  O   UNL     1      43.772   3.192   9.937  0.00  0.00    +0.000 OA
BRANCH   9  10
ATOM     10  C   UNL     1      44.408   1.959   9.603  0.00  0.00    +0.000 C 
BRANCH  10  11
ATOM     11  C   UNL     1      45.479   2.213   8.568  0.00  0.00    +0.000 A 
ATOM     12  C   UNL     1      46.297   1.170   8.107  0.00  0.00    +0.000 A 
ATOM     13  C   UNL     1      47.299   1.408   7.168  0.00  0.00    +0.000 A 
ATOM     14  C   UNL     1      47.484   2.690   6.657  0.00  0.00    +0.000 A 
ATOM     15  C   UNL     1      46.657   3.730   7.076  0.00  0.00    +0.000 A 
ATOM     16  C   UNL     1      45.654   3.493   8.022  0.00  0.00    +0.000 A 
ENDBRANCH  10  11
ENDBRANCH   9  10
ENDBRANCH   8   9
ENDBRANCH   5   8
ENDBRANCH   1   2
BRANCH   1  19
ATOM     17  C   UNL     1      49.036   6.524  15.882  0.00  0.00    +0.000 C 
ATOM     18  O   UNL     1      50.151   6.740  15.412  0.00  0.00    +0.000 OA
ATOM     19  N   UNL     1      47.898   6.396  15.104  0.00  0.00    +0.000 N 
ATOM     20  H   UNL     1      47.042   6.163  15.603  0.00  0.00    +0.000 HD
BRANCH  17  24
ATOM     21  C   UNL     1      48.724   4.340  20.182  0.00  0.00    +0.000 C 
ATOM     22  N   UNL     1      48.636   5.415  19.221  0.00  0.00    +0.000 N 
ATOM     23  N   UNL     1      48.995   5.191  17.945  0.00  0.00    +0.000 NA
ATOM     24  C   UNL     1      48.774   6.373  17.327  0.00  0.00    +0.000 A 
ATOM     25  C   UNL     1      48.289   7.354  18.250  0.00  0.00    +0.000 A 
ATOM     26  C   UNL     1      47.910   8.703  18.202  0.00  0.00    +0.000 A 
ATOM     27  C   UNL     1      47.491   9.271  19.399  0.00  0.00    +0.000 A 
ATOM     28  N   UNL     1      47.421   8.618  20.581  0.00  0.00    +0.000 NA
ATOM     29  C   UNL     1      47.781   7.317  20.634  0.00  0.00    +0.000 A 
ATOM     30  C   UNL     1      48.215   6.691  19.472  0.00  0.00    +0.000 A 
ENDBRANCH  17  24
ENDBRANCH   1  19
TORSDOF 7
ENDMDL
MODEL 2
REMARK VINA RESULT:    -8.086      1.463      2.243
REMARK INTER + INTRA:         -12.362
REMARK INTER:                 -11.443
REMARK INTRA:                  -0.919
REMARK UNBOUND:                -0.967
REMARK  Name = 
REMARK  8 active torsions:
REMARK  status: ('A' for Active; 'I' for Inactive)
REMARK    1  A    between atoms: C_1  and  N_2
REMARK    2  A    between atoms: C_4  and  C_5
REMARK    3  A    between atoms: N_7  and  C_8
REMARK    4  A    between atoms: C_8  and  C_9
REMARK    5  A    between atoms: C_12  and  C_13
REMARK    6  A    between atoms: C_13  and  O_14
REMARK    7  A    between atoms: O_14  and  C_15
REMARK    8  A    between atoms: C_15  and  C_16
REMARK                            x       y       z     vdW  Elec       q    Type
REMARK                         _______ _______ _______ _____ _____    ______ ____
ROOT
ATOM      1  C   UNL     1      47.616   7.237  13.283  0.00  0.00    +0.000 C 
ENDROOT
BRANCH   1   2
ATOM      2  C   UNL     1      46.627   6.330  12.606  0.00  0.00    +0.000 A 
ATOM      3  C   UNL     1      46.261   6.503  11.269  0.00  0.00    +0.000 A 
ATOM      4  C   UNL     1      45.276   5.689  10.705  0.00  0.00    +0.000 A 
ATOM      5  C   UNL     1      44.673   4.707  11.486  0.00  0.00    +0.000 A 
ATOM      6  N   UNL     1      45.033   4.499  12.778  0.00  0.00    +0.000 NA
ATOM      7  C   UNL     1      45.999   5.299  13.298  0.00  0.00    +0.000 A 
BRANCH   5   8
ATOM      8  C   UNL     1      43.542   3.869  10.922  0.00  0.00    +0.000 C 
BRANCH   8   9
ATOM      9  O   UNL     1      43.871   3.419   9.609  0.00  0.00    +0.000 OA
BRANCH   9  10
ATOM     10  C   UNL     1      44.740   2.286   9.624  0.00  0.00    +0.000 C 
BRANCH  10  11
ATOM     11  C   UNL     1      45.663   2.348   8.430  0.00  0.00    +0.000 A 
ATOM     12  C   UNL     1      46.424   1.232   8.051  0.00  0.00    +0.000 A 
ATOM     13  C   UNL     1      47.292   1.295   6.961  0.00  0.00    +0.000 A 
ATOM     14  C   UNL     1      47.394   2.469   6.219  0.00  0.00    +0.000 A 
ATOM     15  C   UNL     1      46.618   3.575   6.560  0.00  0.00    +0.000 A 
ATOM     16  C   UNL     1      45.751   3.514   7.655  0.00  0.00    +0.000 A 
ENDBRANCH  10  11
ENDBRANCH   9  10
ENDBRANCH   8   9
ENDBRANCH   5   8
ENDBRANCH   1   2
BRANCH   1  19
ATOM     17  C   UNL     1      49.159   6.965  15.195  0.00  0.00    +0.000 C 
ATOM     18  O   UNL     1      50.135   7.373  14.570  0.00  0.00    +0.000 OA
ATOM     19  N   UNL     1      47.892   6.873  14.647  0.00  0.00    +0.000 N 
ATOM     20  H   UNL     1      47.175   6.468  15.246  0.00  0.00    +0.000 HD
BRANCH  17  24
ATOM     21  C   UNL     1      50.107   7.173  19.930  0.00  0.00    +0.000 C 
ATOM     22  N   UNL     1      49.634   6.610  18.687  0.00  0.00    +0.000 N 
ATOM     23  N   UNL     1      49.715   7.337  17.558  0.00  0.00    +0.000 NA
ATOM     24  C   UNL     1      49.219   6.521  16.602  0.00  0.00    +0.000 A 
ATOM     25  C   UNL     1      48.802   5.270  17.159  0.00  0.00    +0.000 A 
ATOM     26  C   UNL     1      48.225   4.082  16.686  0.00  0.00    +0.000 A 
ATOM     27  C   UNL     1      47.981   3.094  17.631  0.00  0.00    +0.000 A 
ATOM     28  N   UNL     1      48.264   3.198  18.949  0.00  0.00    +0.000 NA
ATOM     29  C   UNL     1      48.823   4.337  19.411  0.00  0.00    +0.000 A 
ATOM     30  C   UNL     1      49.088   5.369  18.518  0.00  0.00    +0.000 A 
ENDBRANCH  17  24
ENDBRANCH   1  19
TORSDOF 7
ENDMDL
MODEL 3
REMARK VINA RESULT:    -7.637      1.239      2.385
REMARK INTER + INTRA:         -11.730
REMARK INTER:                 -10.997
REMARK INTRA:                  -0.732
REMARK UNBOUND:                -0.967
REMARK  Name = 
REMARK  8 active torsions:
REMARK  status: ('A' for Active; 'I' for Inactive)
REMARK    1  A    between atoms: C_1  and  N_2
REMARK    2  A    between atoms: C_4  and  C_5
REMARK    3  A    between atoms: N_7  and  C_8
REMARK    4  A    between atoms: C_8  and  C_9
REMARK    5  A    between atoms: C_12  and  C_13
REMARK    6  A    between atoms: C_13  and  O_14
REMARK    7  A    between atoms: O_14  and  C_15
REMARK    8  A    between atoms: C_15  and  C_16
REMARK                            x       y       z     vdW  Elec       q    Type
REMARK                         _______ _______ _______ _____ _____    ______ ____
ROOT
ATOM      1  C   UNL     1      48.354   6.586  14.097  0.00  0.00    +0.000 C 
ENDROOT
BRANCH   1   2
ATOM      2  C   UNL     1      47.184   5.922  13.425  0.00  0.00    +0.000 A 
ATOM      3  C   UNL     1      46.843   4.593  13.681  0.00  0.00    +0.000 A 
ATOM      4  C   UNL     1      45.800   3.992  12.972  0.00  0.00    +0.000 A 
ATOM      5  C   UNL     1      45.107   4.734  12.018  0.00  0.00    +0.000 A 
ATOM      6  N   UNL     1      45.401   6.036  11.774  0.00  0.00    +0.000 NA
ATOM      7  C   UNL     1      46.413   6.596  12.484  0.00  0.00    +0.000 A 
BRANCH   5   8
ATOM      8  C   UNL     1      44.029   4.079  11.176  0.00  0.00    +0.000 C 
BRANCH   8   9
ATOM      9  O   UNL     1      44.618   3.196  10.223  0.00  0.00    +0.000 OA
BRANCH   9  10
ATOM     10  C   UNL     1      44.664   3.762   8.914  0.00  0.00    +0.000 C 
BRANCH  10  11
ATOM     11  C   UNL     1      45.638   2.978   8.065  0.00  0.00    +0.000 A 
ATOM     12  C   UNL     1      46.251   3.564   6.947  0.00  0.00    +0.000 A 
ATOM     13  C   UNL     1      47.134   2.835   6.151  0.00  0.00    +0.000 A 
ATOM     14  C   UNL     1      47.436   1.515   6.476  0.00  0.00    +0.000 A 
ATOM     15  C   UNL     1      46.866   0.930   7.605  0.00  0.00    +0.000 A 
ATOM     16  C   UNL     1      45.977   1.659   8.401  0.00  0.00    +0.000 A 
ENDBRANCH  10  11
ENDBRANCH   9  10
ENDBRANCH   8   9
ENDBRANCH   5   8
ENDBRANCH   1   2
BRANCH   1  19
ATOM     17  C   UNL     1      48.913   6.306  16.489  0.00  0.00    +0.000 C 
ATOM     18  O   UNL     1      49.854   5.546  16.263  0.00  0.00    +0.000 OA
ATOM     19  N   UNL     1      48.134   6.865  15.491  0.00  0.00    +0.000 N 
ATOM     20  H   UNL     1      47.351   7.434  15.805  0.00  0.00    +0.000 HD
BRANCH  17  24
ATOM     21  C   UNL     1      47.320   9.195  20.020  0.00  0.00    +0.000 C 
ATOM     22  N   UNL     1      47.799   7.980  19.404  0.00  0.00    +0.000 N 
ATOM     23  N   UNL     1      48.060   7.967  18.085  0.00  0.00    +0.000 NA
ATOM     24  C   UNL     1      48.501   6.711  17.847  0.00  0.00    +0.000 A 
ATOM     25  C   UNL     1      48.491   5.927  19.045  0.00  0.00    +0.000 A 
ATOM     26  C   UNL     1      48.812   4.611  19.407  0.00  0.00    +0.000 A 
ATOM     27  C   UNL     1      48.632   4.276  20.744  0.00  0.00    +0.000 A 
ATOM     28  N   UNL     1      48.182   5.121  21.698  0.00  0.00    +0.000 NA
ATOM     29  C   UNL     1      47.874   6.391  21.357  0.00  0.00    +0.000 A 
ATOM     30  C   UNL     1      48.026   6.790  20.034  0.00  0.00    +0.000 A 
ENDBRANCH  17  24
ENDBRANCH   1  19
TORSDOF 7
ENDMDL
MODEL 4
REMARK VINA RESULT:    -7.583      3.351      4.955
REMARK INTER + INTRA:         -11.653
REMARK INTER:                 -10.622
REMARK INTRA:                  -1.031
REMARK UNBOUND:                -0.967
REMARK  Name = 
REMARK  8 active torsions:
REMARK  status: ('A' for Active; 'I' for Inactive)
REMARK    1  A    between atoms: C_1  and  N_2
REMARK    2  A    between atoms: C_4  and  C_5
REMARK    3  A    between atoms: N_7  and  C_8
REMARK    4  A    between atoms: C_8  and  C_9
REMARK    5  A    between atoms: C_12  and  C_13
REMARK    6  A    between atoms: C_13  and  O_14
REMARK    7  A    between atoms: O_14  and  C_15
REMARK    8  A    between atoms: C_15  and  C_16
REMARK                            x       y       z     vdW  Elec       q    Type
REMARK                         _______ _______ _______ _____ _____    ______ ____
ROOT
ATOM      1  C   UNL     1      47.712   6.037  14.163  0.00  0.00    +0.000 C 
ENDROOT
BRANCH   1   2
ATOM      2  C   UNL     1      46.702   5.318  13.313  0.00  0.00    +0.000 A 
ATOM      3  C   UNL     1      45.944   5.983  12.347  0.00  0.00    +0.000 A 
ATOM      4  C   UNL     1      44.958   5.293  11.638  0.00  0.00    +0.000 A 
ATOM      5  C   UNL     1      44.747   3.942  11.903  0.00  0.00    +0.000 A 
ATOM      6  N   UNL     1      45.492   3.267  12.815  0.00  0.00    +0.000 NA
ATOM      7  C   UNL     1      46.449   3.962  13.482  0.00  0.00    +0.000 A 
BRANCH   5   8
ATOM      8  C   UNL     1      43.627   3.193  11.208  0.00  0.00    +0.000 C 
BRANCH   8   9
ATOM      9  O   UNL     1      43.887   3.105   9.808  0.00  0.00    +0.000 OA
BRANCH   9  10
ATOM     10  C   UNL     1      44.554   1.894   9.455  0.00  0.00    +0.000 C 
BRANCH  10  11
ATOM     11  C   UNL     1      45.616   2.192   8.422  0.00  0.00    +0.000 A 
ATOM     12  C   UNL     1      46.463   1.178   7.949  0.00  0.00    +0.000 A 
ATOM     13  C   UNL     1      47.456   1.456   7.010  0.00  0.00    +0.000 A 
ATOM     14  C   UNL     1      47.602   2.749   6.514  0.00  0.00    +0.000 A 
ATOM     15  C   UNL     1      46.745   3.759   6.945  0.00  0.00    +0.000 A 
ATOM     16  C   UNL     1      45.751   3.482   7.889  0.00  0.00    +0.000 A 
ENDBRANCH  10  11
ENDBRANCH   9  10
ENDBRANCH   8   9
ENDBRANCH   5   8
ENDBRANCH   1   2
BRANCH   1  19
ATOM     17  C   UNL     1      48.705   7.999  13.033  0.00  0.00    +0.000 C 
ATOM     18  O   UNL     1      49.522   7.326  12.406  0.00  0.00    +0.000 OA
ATOM     19  N   UNL     1      47.781   7.451  13.905  0.00  0.00    +0.000 N 
ATOM     20  H   UNL     1      47.194   8.114  14.407  0.00  0.00    +0.000 HD
BRANCH  17  24
ATOM     21  C   UNL     1      50.074  12.618  13.420  0.00  0.00    +0.000 C 
ATOM     22  N   UNL     1      49.213  11.503  13.102  0.00  0.00    +0.000 N 
ATOM     23  N   UNL     1      49.652  10.249  13.306  0.00  0.00    +0.000 NA
ATOM     24  C   UNL     1      48.613   9.469  12.934  0.00  0.00    +0.000 A 
ATOM     25  C   UNL     1      47.516  10.262  12.469  0.00  0.00    +0.000 A 
ATOM     26  C   UNL     1      46.228  10.028  11.964  0.00  0.00    +0.000 A 
ATOM     27  C   UNL     1      45.485  11.152  11.623  0.00  0.00    +0.000 A 
ATOM     28  N   UNL     1      45.912  12.428  11.749  0.00  0.00    +0.000 NA
ATOM     29  C   UNL     1      47.149  12.661  12.238  0.00  0.00    +0.000 A 
ATOM     30  C   UNL     1      47.947  11.580  12.594  0.00  0.00    +0.000 A 
ENDBRANCH  17  24
ENDBRANCH   1  19
TORSDOF 7
ENDMDL
MODEL 5
REMARK VINA RESULT:    -7.476      1.780      2.945
REMARK INTER + INTRA:         -11.503
REMARK INTER:                 -10.677
REMARK INTRA:                  -0.826
REMARK UNBOUND:                -0.967
REMARK  Name = 
REMARK  8 active torsions:
REMARK  status: ('A' for Active; 'I' for Inactive)
REMARK    1  A    between atoms: C_1  and  N_2
REMARK    2  A    between atoms: C_4  and  C_5
REMARK    3  A    between atoms: N_7  and  C_8
REMARK    4  A    between atoms: C_8  and  C_9
REMARK    5  A    between atoms: C_12  and  C_13
REMARK    6  A    between atoms: C_13  and  O_14
REMARK    7  A    between atoms: O_14  and  C_15
REMARK    8  A    between atoms: C_15  and  C_16
REMARK                            x       y       z     vdW  Elec       q    Type
REMARK                         _______ _______ _______ _____ _____    ______ ____
ROOT
ATOM      1  C   UNL     1      47.679   5.138  14.565  0.00  0.00    +0.000 C 
ENDROOT
BRANCH   1   2
ATOM      2  C   UNL     1      46.551   4.912  13.597  0.00  0.00    +0.000 A 
ATOM      3  C   UNL     1      46.175   3.631  13.188  0.00  0.00    +0.000 A 
ATOM      4  C   UNL     1      45.177   3.472  12.224  0.00  0.00    +0.000 A 
ATOM      5  C   UNL     1      44.561   4.600  11.686  0.00  0.00    +0.000 A 
ATOM      6  N   UNL     1      44.888   5.854  12.091  0.00  0.00    +0.000 NA
ATOM      7  C   UNL     1      45.856   5.978  13.035  0.00  0.00    +0.000 A 
BRANCH   5   8
ATOM      8  C   UNL     1      43.536   4.456  10.579  0.00  0.00    +0.000 C 
BRANCH   8   9
ATOM      9  O   UNL     1      44.029   3.585   9.562  0.00  0.00    +0.000 OA
BRANCH   9  10
ATOM     10  C   UNL     1      44.931   4.244   8.673  0.00  0.00    +0.000 C 
BRANCH  10  11
ATOM     11  C   UNL     1      45.777   3.212   7.965  0.00  0.00    +0.000 A 
ATOM     12  C   UNL     1      46.494   3.543   6.805  0.00  0.00    +0.000 A 
ATOM     13  C   UNL     1      47.260   2.586   6.140  0.00  0.00    +0.000 A 
ATOM     14  C   UNL     1      47.338   1.288   6.639  0.00  0.00    +0.000 A 
ATOM     15  C   UNL     1      46.663   0.953   7.810  0.00  0.00    +0.000 A 
ATOM     16  C   UNL     1      45.892   1.911   8.475  0.00  0.00    +0.000 A 
ENDBRANCH  10  11
ENDBRANCH   9  10
ENDBRANCH   8   9
ENDBRANCH   5   8
ENDBRANCH   1   2
BRANCH   1  19
ATOM     17  C   UNL     1      48.902   6.988  15.657  0.00  0.00    +0.000 C 
ATOM     18  O   UNL     1      49.921   6.321  15.827  0.00  0.00    +0.000 OA
ATOM     19  N   UNL     1      47.766   6.492  15.043  0.00  0.00    +0.000 N 
ATOM     20  H   UNL     1      46.967   7.122  15.009  0.00  0.00    +0.000 HD
BRANCH  17  24
ATOM     21  C   UNL     1      49.256  11.803  15.438  0.00  0.00    +0.000 C 
ATOM     22  N   UNL     1      48.920  10.513  15.994  0.00  0.00    +0.000 N 
ATOM     23  N   UNL     1      49.173   9.400  15.283  0.00  0.00    +0.000 NA
ATOM     24  C   UNL     1      48.766   8.393  16.087  0.00  0.00    +0.000 A 
ATOM     25  C   UNL     1      48.230   8.900  17.314  0.00  0.00    +0.000 A 
ATOM     26  C   UNL     1      47.666   8.364  18.481  0.00  0.00    +0.000 A 
ATOM     27  C   UNL     1      47.263   9.277  19.449  0.00  0.00    +0.000 A 
ATOM     28  N   UNL     1      47.383  10.619  19.342  0.00  0.00    +0.000 NA
ATOM     29  C   UNL     1      47.928  11.142  18.222  0.00  0.00    +0.000 A 
ATOM     30  C   UNL     1      48.347  10.284  17.213  0.00  0.00    +0.000 A 
ENDBRANCH  17  24
ENDBRANCH   1  19
TORSDOF 7
ENDMDL
MODEL 6
REMARK VINA RESULT:    -7.150      1.599      2.327
REMARK INTER + INTRA:         -11.043
REMARK INTER:                 -10.416
REMARK INTRA:                  -0.626
REMARK UNBOUND:                -0.967
REMARK  Name = 
REMARK  8 active torsions:
REMARK  status: ('A' for Active; 'I' for Inactive)
REMARK    1  A    between atoms: C_1  and  N_2
REMARK    2  A    between atoms: C_4  and  C_5
REMARK    3  A    between atoms: N_7  and  C_8
REMARK    4  A    between atoms: C_8  and  C_9
REMARK    5  A    between atoms: C_12  and  C_13
REMARK    6  A    between atoms: C_13  and  O_14
REMARK    7  A    between atoms: O_14  and  C_15
REMARK    8  A    between atoms: C_15  and  C_16
REMARK                            x       y       z     vdW  Elec       q    Type
REMARK                         _______ _______ _______ _____ _____    ______ ____
ROOT
ATOM      1  C   UNL     1      47.554   4.153  15.551  0.00  0.00    +0.000 C 
ENDROOT
BRANCH   1   2
ATOM      2  C   UNL     1      46.901   4.457  14.231  0.00  0.00    +0.000 A 
ATOM      3  C   UNL     1      46.897   5.744  13.689  0.00  0.00    +0.000 A 
ATOM      4  C   UNL     1      46.206   5.998  12.501  0.00  0.00    +0.000 A 
ATOM      5  C   UNL     1      45.532   4.956  11.868  0.00  0.00    +0.000 A 
ATOM      6  N   UNL     1      45.548   3.691  12.360  0.00  0.00    +0.000 NA
ATOM      7  C   UNL     1      46.234   3.472  13.511  0.00  0.00    +0.000 A 
BRANCH   5   8
ATOM      8  C   UNL     1      44.706   5.224  10.626  0.00  0.00    +0.000 C 
BRANCH   8   9
ATOM      9  O   UNL     1      45.467   4.929   9.456  0.00  0.00    +0.000 OA
BRANCH   9  10
ATOM     10  C   UNL     1      44.752   4.103   8.537  0.00  0.00    +0.000 C 
BRANCH  10  11
ATOM     11  C   UNL     1      45.708   3.122   7.899  0.00  0.00    +0.000 A 
ATOM     12  C   UNL     1      45.834   1.816   8.394  0.00  0.00    +0.000 A 
ATOM     13  C   UNL     1      46.730   0.916   7.818  0.00  0.00    +0.000 A 
ATOM     14  C   UNL     1      47.498   1.304   6.723  0.00  0.00    +0.000 A 
ATOM     15  C   UNL     1      47.358   2.586   6.195  0.00  0.00    +0.000 A 
ATOM     16  C   UNL     1      46.462   3.490   6.775  0.00  0.00    +0.000 A 
ENDBRANCH  10  11
ENDBRANCH   9  10
ENDBRANCH   8   9
ENDBRANCH   5   8
ENDBRANCH   1   2
BRANCH   1  19
ATOM     17  C   UNL     1      48.321   5.262  17.623  0.00  0.00    +0.000 C 
ATOM     18  O   UNL     1      48.445   4.205  18.239  0.00  0.00    +0.000 OA
ATOM     19  N   UNL     1      47.900   5.327  16.306  0.00  0.00    +0.000 N 
ATOM     20  H   UNL     1      47.783   6.263  15.922  0.00  0.00    +0.000 HD
BRANCH  17  24
ATOM     21  C   UNL     1      50.079   9.754  17.931  0.00  0.00    +0.000 C 
ATOM     22  N   UNL     1      49.375   8.564  18.350  0.00  0.00    +0.000 N 
ATOM     23  N   UNL     1      49.293   7.515  17.512  0.00  0.00    +0.000 NA
ATOM     24  C   UNL     1      48.603   6.586  18.211  0.00  0.00    +0.000 A 
ATOM     25  C   UNL     1      48.235   7.083  19.502  0.00  0.00    +0.000 A 
ATOM     26  C   UNL     1      47.533   6.605  20.618  0.00  0.00    +0.000 A 
ATOM     27  C   UNL     1      47.412   7.478  21.693  0.00  0.00    +0.000 A 
ATOM     28  N   UNL     1      47.923   8.729  21.733  0.00  0.00    +0.000 NA
ATOM     29  C   UNL     1      48.602   9.195  20.663  0.00  0.00    +0.000 A 
ATOM     30  C   UNL     1      48.755   8.374  19.552  0.00  0.00    +0.000 A 
ENDBRANCH  17  24
ENDBRANCH   1  19
TORSDOF 7
ENDMDL
MODEL 7
REMARK VINA RESULT:    -6.916      1.404      2.138
REMARK INTER + INTRA:         -10.712
REMARK INTER:                  -9.887
REMARK INTRA:                  -0.825
REMARK UNBOUND:                -0.967
REMARK  Name = 
REMARK  8 active torsions:
REMARK  status: ('A' for Active; 'I' for Inactive)
REMARK    1  A    between atoms: C_1  and  N_2
REMARK    2  A    between atoms: C_4  and  C_5
REMARK    3  A    between atoms: N_7  and  C_8
REMARK    4  A    between atoms: C_8  and  C_9
REMARK    5  A    between atoms: C_12  and  C_13
REMARK    6  A    between atoms: C_13  and  O_14
REMARK    7  A    between atoms: O_14  and  C_15
REMARK    8  A    between atoms: C_15  and  C_16
REMARK                            x       y       z     vdW  Elec       q    Type
REMARK                         _______ _______ _______ _____ _____    ______ ____
ROOT
ATOM      1  C   UNL     1      47.504   4.062  15.456  0.00  0.00    +0.000 C 
ENDROOT
BRANCH   1   2
ATOM      2  C   UNL     1      46.839   4.527  14.190  0.00  0.00    +0.000 A 
ATOM      3  C   UNL     1      45.869   3.760  13.541  0.00  0.00    +0.000 A 
ATOM      4  C   UNL     1      45.338   4.192  12.324  0.00  0.00    +0.000 A 
ATOM      5  C   UNL     1      45.781   5.393  11.774  0.00  0.00    +0.000 A 
ATOM      6  N   UNL     1      46.700   6.171  12.401  0.00  0.00    +0.000 NA
ATOM      7  C   UNL     1      47.192   5.729  13.587  0.00  0.00    +0.000 A 
BRANCH   5   8
ATOM      8  C   UNL     1      45.283   5.841  10.414  0.00  0.00    +0.000 C 
BRANCH   8   9
ATOM      9  O   UNL     1      45.152   4.718   9.544  0.00  0.00    +0.000 OA
BRANCH   9  10
ATOM     10  C   UNL     1      45.952   4.846   8.369  0.00  0.00    +0.000 C 
BRANCH  10  11
ATOM     11  C   UNL     1      46.316   3.470   7.861  0.00  0.00    +0.000 A 
ATOM     12  C   UNL     1      45.889   2.317   8.537  0.00  0.00    +0.000 A 
ATOM     13  C   UNL     1      46.241   1.048   8.080  0.00  0.00    +0.000 A 
ATOM     14  C   UNL     1      47.009   0.911   6.927  0.00  0.00    +0.000 A 
ATOM     15  C   UNL     1      47.410   2.045   6.222  0.00  0.00    +0.000 A 
ATOM     16  C   UNL     1      47.061   3.318   6.682  0.00  0.00    +0.000 A 
ENDBRANCH  10  11
ENDBRANCH   9  10
ENDBRANCH   8   9
ENDBRANCH   5   8
ENDBRANCH   1   2
BRANCH   1  19
ATOM     17  C   UNL     1      48.527   5.700  16.999  0.00  0.00    +0.000 C 
ATOM     18  O   UNL     1      49.653   5.567  16.523  0.00  0.00    +0.000 OA
ATOM     19  N   UNL     1      47.421   5.011  16.533  0.00  0.00    +0.000 N 
ATOM     20  H   UNL     1      46.553   5.165  17.043  0.00  0.00    +0.000 HD
BRANCH  17  24
ATOM     21  C   UNL     1      47.436   7.045  21.511  0.00  0.00    +0.000 C 
ATOM     22  N   UNL     1      47.739   7.202  20.107  0.00  0.00    +0.000 N 
ATOM     23  N   UNL     1      48.005   6.114  19.363  0.00  0.00    +0.000 NA
ATOM     24  C   UNL     1      48.219   6.606  18.122  0.00  0.00    +0.000 A 
ATOM     25  C   UNL     1      48.103   8.033  18.108  0.00  0.00    +0.000 A 
ATOM     26  C   UNL     1      48.223   9.059  17.159  0.00  0.00    +0.000 A 
ATOM     27  C   UNL     1      48.021  10.354  17.619  0.00  0.00    +0.000 A 
ATOM     28  N   UNL     1      47.717  10.682  18.895  0.00  0.00    +0.000 NA
ATOM     29  C   UNL     1      47.597   9.700  19.813  0.00  0.00    +0.000 A 
ATOM     30  C   UNL     1      47.791   8.381  19.420  0.00  0.00    +0.000 A 
ENDBRANCH  17  24
ENDBRANCH   1  19
TORSDOF 7
ENDMDL
MODEL 8
REMARK VINA RESULT:    -6.909      2.281      3.390
REMARK INTER + INTRA:         -10.703
REMARK INTER:                  -9.598
REMARK INTRA:                  -1.105
REMARK UNBOUND:                -0.967
REMARK  Name = 
REMARK  8 active torsions:
REMARK  status: ('A' for Active; 'I' for Inactive)
REMARK    1  A    between atoms: C_1  and  N_2
REMARK    2  A    between atoms: C_4  and  C_5
REMARK    3  A    between atoms: N_7  and  C_8
REMARK    4  A    between atoms: C_8  and  C_9
REMARK    5  A    between atoms: C_12  and  C_13
REMARK    6  A    between atoms: C_13  and  O_14
REMARK    7  A    between atoms: O_14  and  C_15
REMARK    8  A    between atoms: C_15  and  C_16
REMARK                            x       y       z     vdW  Elec       q    Type
REMARK                         _______ _______ _______ _____ _____    ______ ____
ROOT
ATOM      1  C   UNL     1      47.191   8.594  12.228  0.00  0.00    +0.000 C 
ENDROOT
BRANCH   1   2
ATOM      2  C   UNL     1      46.133   7.527  12.258  0.00  0.00    +0.000 A 
ATOM      3  C   UNL     1      46.271   6.372  13.031  0.00  0.00    +0.000 A 
ATOM      4  C   UNL     1      45.302   5.368  12.964  0.00  0.00    +0.000 A 
ATOM      5  C   UNL     1      44.201   5.537  12.127  0.00  0.00    +0.000 A 
ATOM      6  N   UNL     1      44.030   6.664  11.390  0.00  0.00    +0.000 NA
ATOM      7  C   UNL     1      44.983   7.626  11.482  0.00  0.00    +0.000 A 
BRANCH   5   8
ATOM      8  C   UNL     1      43.181   4.426  11.974  0.00  0.00    +0.000 C 
BRANCH   8   9
ATOM      9  O   UNL     1      43.224   3.898  10.650  0.00  0.00    +0.000 OA
BRANCH   9  10
ATOM     10  C   UNL     1      44.023   2.718  10.562  0.00  0.00    +0.000 C 
BRANCH  10  11
ATOM     11  C   UNL     1      44.963   2.838   9.384  0.00  0.00    +0.000 A 
ATOM     12  C   UNL     1      45.527   1.696   8.795  0.00  0.00    +0.000 A 
ATOM     13  C   UNL     1      46.409   1.806   7.722  0.00  0.00    +0.000 A 
ATOM     14  C   UNL     1      46.724   3.061   7.206  0.00  0.00    +0.000 A 
ATOM     15  C   UNL     1      46.144   4.203   7.755  0.00  0.00    +0.000 A 
ATOM     16  C   UNL     1      45.262   4.093   8.834  0.00  0.00    +0.000 A 
ENDBRANCH  10  11
ENDBRANCH   9  10
ENDBRANCH   8   9
ENDBRANCH   5   8
ENDBRANCH   1   2
BRANCH   1  19
ATOM     17  C   UNL     1      49.446   7.901  12.966  0.00  0.00    +0.000 C 
ATOM     18  O   UNL     1      49.791   7.539  11.843  0.00  0.00    +0.000 OA
ATOM     19  N   UNL     1      48.199   8.435  13.241  0.00  0.00    +0.000 N 
ATOM     20  H   UNL     1      48.011   8.646  14.219  0.00  0.00    +0.000 HD
BRANCH  17  24
ATOM     21  C   UNL     1      53.382   8.507  15.704  0.00  0.00    +0.000 C 
ATOM     22  N   UNL     1      52.047   8.074  15.363  0.00  0.00    +0.000 N 
ATOM     23  N   UNL     1      51.547   8.367  14.150  0.00  0.00    +0.000 NA
ATOM     24  C   UNL     1      50.316   7.809  14.155  0.00  0.00    +0.000 A 
ATOM     25  C   UNL     1      50.044   7.176  15.410  0.00  0.00    +0.000 A 
ATOM     26  C   UNL     1      48.978   6.472  15.989  0.00  0.00    +0.000 A 
ATOM     27  C   UNL     1      49.166   6.028  17.292  0.00  0.00    +0.000 A 
ATOM     28  N   UNL     1      50.288   6.222  18.020  0.00  0.00    +0.000 NA
ATOM     29  C   UNL     1      51.320   6.896  17.468  0.00  0.00    +0.000 A 
ATOM     30  C   UNL     1      51.195   7.373  16.168  0.00  0.00    +0.000 A 
ENDBRANCH  17  24
ENDBRANCH   1  19
TORSDOF 7
ENDMDL
MODEL 9
REMARK VINA RESULT:    -6.710      3.394     10.369
REMARK INTER + INTRA:         -10.422
REMARK INTER:                  -9.633
REMARK INTRA:                  -0.789
REMARK UNBOUND:                -0.967
REMARK  Name = 
REMARK  8 active torsions:
REMARK  status: ('A' for Active; 'I' for Inactive)
REMARK    1  A    between atoms: C_1  and  N_2
REMARK    2  A    between atoms: C_4  and  C_5
REMARK    3  A    between atoms: N_7  and  C_8
REMARK    4  A    between atoms: C_8  and  C_9
REMARK    5  A    between atoms: C_12  and  C_13
REMARK    6  A    between atoms: C_13  and  O_14
REMARK    7  A    between atoms: O_14  and  C_15
REMARK    8  A    between atoms: C_15  and  C_16
REMARK                            x       y       z     vdW  Elec       q    Type
REMARK                         _______ _______ _______ _____ _____    ______ ____
ROOT
ATOM      1  C   UNL     1      47.940   3.916  16.653  0.00  0.00    +0.000 C 
ENDROOT
BRANCH   1   2
ATOM      2  C   UNL     1      47.907   4.495  18.040  0.00  0.00    +0.000 A 
ATOM      3  C   UNL     1      47.034   5.528  18.388  0.00  0.00    +0.000 A 
ATOM      4  C   UNL     1      47.096   6.093  19.664  0.00  0.00    +0.000 A 
ATOM      5  C   UNL     1      48.028   5.610  20.579  0.00  0.00    +0.000 A 
ATOM      6  N   UNL     1      48.866   4.586  20.274  0.00  0.00    +0.000 NA
ATOM      7  C   UNL     1      48.778   4.051  19.029  0.00  0.00    +0.000 A 
BRANCH   5   8
ATOM      8  C   UNL     1      48.172   6.262  21.940  0.00  0.00    +0.000 C 
BRANCH   8   9
ATOM      9  O   UNL     1      47.239   7.333  22.073  0.00  0.00    +0.000 OA
BRANCH   9  10
ATOM     10  C   UNL     1      47.879   8.609  22.113  0.00  0.00    +0.000 C 
BRANCH  10  11
ATOM     11  C   UNL     1      46.975   9.641  21.481  0.00  0.00    +0.000 A 
ATOM     12  C   UNL     1      45.805  10.065  22.128  0.00  0.00    +0.000 A 
ATOM     13  C   UNL     1      44.960  11.003  21.537  0.00  0.00    +0.000 A 
ATOM     14  C   UNL     1      45.285  11.549  20.297  0.00  0.00    +0.000 A 
ATOM     15  C   UNL     1      46.462  11.166  19.658  0.00  0.00    +0.000 A 
ATOM     16  C   UNL     1      47.308  10.223  20.249  0.00  0.00    +0.000 A 
ENDBRANCH  10  11
ENDBRANCH   9  10
ENDBRANCH   8   9
ENDBRANCH   5   8
ENDBRANCH   1   2
BRANCH   1  19
ATOM     17  C   UNL     1      46.912   4.191  14.422  0.00  0.00    +0.000 C 
ATOM     18  O   UNL     1      47.322   3.107  14.010  0.00  0.00    +0.000 OA
ATOM     19  N   UNL     1      47.160   4.659  15.700  0.00  0.00    +0.000 N 
ATOM     20  H   UNL     1      46.815   5.595  15.906  0.00  0.00    +0.000 HD
BRANCH  17  24
ATOM     21  C   UNL     1      45.506   8.386  12.477  0.00  0.00    +0.000 C 
ATOM     22  N   UNL     1      45.488   6.968  12.747  0.00  0.00    +0.000 N 
ATOM     23  N   UNL     1      46.426   6.436  13.551  0.00  0.00    +0.000 NA
ATOM     24  C   UNL     1      46.110   5.122  13.605  0.00  0.00    +0.000 A 
ATOM     25  C   UNL     1      44.963   4.836  12.797  0.00  0.00    +0.000 A 
ATOM     26  C   UNL     1      44.206   3.704  12.462  0.00  0.00    +0.000 A 
ATOM     27  C   UNL     1      43.135   3.909  11.601  0.00  0.00    +0.000 A 
ATOM     28  N   UNL     1      42.780   5.105  11.081  0.00  0.00    +0.000 NA
ATOM     29  C   UNL     1      43.502   6.200  11.402  0.00  0.00    +0.000 A 
ATOM     30  C   UNL     1      44.590   6.063  12.255  0.00  0.00    +0.000 A 
ENDBRANCH  17  24
ENDBRANCH   1  19
TORSDOF 7
ENDMDL
