MODEL 1
REMARK VINA RESULT:    -8.792      0.000      0.000
REMARK INTER + INTRA:         -12.842
REMARK INTER:                 -11.876
REMARK INTRA:                  -0.965
REMARK UNBOUND:                -0.965
REMARK  Name = 
REMARK  6 active torsions:
REMARK  status: ('A' for Active; 'I' for Inactive)
REMARK    1  A    between atoms: C_2  and  C_4
REMARK    2  A    between atoms: C_7  and  N_8
REMARK    3  A    between atoms: N_8  and  C_9
REMARK    4  A    between atoms: C_9  and  C_10
REMARK    5  A    between atoms: C_10  and  C_11
REMARK    6  A    between atoms: C_15  and  C_16
REMARK                            x       y       z     vdW  Elec       q    Type
REMARK                         _______ _______ _______ _____ _____    ______ ____
ROOT
ATOM      1  C   UNL     1      43.208   3.967  11.394  0.00  0.00    +0.000 C 
ENDROOT
BRANCH   1   2
ATOM      2  N   UNL     1      43.658   4.542  10.131  0.00  0.00    +0.000 N 
ATOM      3  H   UNL     1      42.921   4.927   9.545  0.00  0.00    +0.000 HD
BRANCH   2   7
ATOM      4  C   UNL     1      46.434   2.396   7.775  0.00  0.00    +0.000 A 
ATOM      5  C   UNL     1      46.341   3.780   7.635  0.00  0.00    +0.000 A 
ATOM      6  C   UNL     1      45.440   4.505   8.424  0.00  0.00    +0.000 A 
ATOM      7  C   UNL     1      44.637   3.878   9.385  0.00  0.00    +0.000 A 
ATOM      8  C   UNL     1      44.738   2.485   9.507  0.00  0.00    +0.000 A 
ATOM      9  C   UNL     1      45.621   1.746   8.708  0.00  0.00    +0.000 A 
BRANCH   4  11
ATOM     10  N   UNL     1      48.509   2.162   6.521  0.00  0.00    +0.000 N 
ATOM     11  C   UNL     1      47.336   1.583   6.920  0.00  0.00    +0.000 C 
ATOM     12  O   UNL     1      47.061   0.434   6.601  0.00  0.00    +0.000 OA
ATOM     13  H   UNL     1      49.151   1.571   6.011  0.00  0.00    +0.000 HD
ATOM     14  H   UNL     1      48.877   2.999   6.949  0.00  0.00    +0.000 HD
ENDBRANCH   4  11
ENDBRANCH   2   7
ENDBRANCH   1   2
BRANCH   1  15
ATOM     15  C   UNL     1      43.293   4.989  12.530  0.00  0.00    +0.000 C 
BRANCH  15  16
ATOM     16  C   UNL     1      44.739   5.274  12.860  0.00  0.00    +0.000 A 
ATOM     17  C   UNL     1      45.555   4.275  13.396  0.00  0.00    +0.000 A 
ATOM     18  C   UNL     1      46.903   4.529  13.628  0.00  0.00    +0.000 A 
ATOM     19  C   UNL     1      47.447   5.777  13.312  0.00  0.00    +0.000 A 
ATOM     20  C   UNL     1      46.669   6.800  12.743  0.00  0.00    +0.000 A 
ATOM     21  C   UNL     1      45.302   6.522  12.539  0.00  0.00    +0.000 A 
BRANCH  20  22
ATOM     22  C   UNL     1      47.263   8.099  12.339  0.00  0.00    +0.000 A 
ATOM     23  C   UNL     1      48.572   8.179  11.823  0.00  0.00    +0.000 A 
ATOM     24  C   UNL     1      49.145   9.406  11.465  0.00  0.00    +0.000 A 
ATOM     25  C   UNL     1      48.420  10.586  11.600  0.00  0.00    +0.000 A 
ATOM     26  C   UNL     1      47.124  10.538  12.100  0.00  0.00    +0.000 A 
ATOM     27  C   UNL     1      46.564   9.314  12.469  0.00  0.00    +0.000 A 
ATOM     28  F   UNL     1      45.322   9.339  12.979  0.00  0.00    +0.000 F 
ENDBRANCH  20  22
ENDBRANCH  15  16
ENDBRANCH   1  15
TORSDOF 6
ENDMDL
MODEL 2
REMARK VINA RESULT:    -8.575      2.095      3.890
REMARK INTER + INTRA:         -12.549
REMARK INTER:                 -11.469
REMARK INTRA:                  -1.079
REMARK UNBOUND:                -0.965
REMARK  Name = 
REMARK  6 active torsions:
REMARK  status: ('A' for Active; 'I' for Inactive)
REMARK    1  A    between atoms: C_2  and  C_4
REMARK    2  A    between atoms: C_7  and  N_8
REMARK    3  A    between atoms: N_8  and  C_9
REMARK    4  A    between atoms: C_9  and  C_10
REMARK    5  A    between atoms: C_10  and  C_11
REMARK    6  A    between atoms: C_15  and  C_16
REMARK                            x       y       z     vdW  Elec       q    Type
REMARK                         _______ _______ _______ _____ _____    ______ ____
ROOT
ATOM      1  C   UNL     1      43.423   4.947  10.748  0.00  0.00    +0.000 C 
ENDROOT
BRANCH   1   2
ATOM      2  N   UNL     1      43.797   3.548  10.569  0.00  0.00    +0.000 N 
ATOM      3  H   UNL     1      44.028   3.049  11.425  0.00  0.00    +0.000 HD
BRANCH   2   7
ATOM      4  C   UNL     1      46.503   2.618   7.458  0.00  0.00    +0.000 A 
ATOM      5  C   UNL     1      45.983   1.591   8.244  0.00  0.00    +0.000 A 
ATOM      6  C   UNL     1      45.070   1.883   9.265  0.00  0.00    +0.000 A 
ATOM      7  C   UNL     1      44.633   3.193   9.506  0.00  0.00    +0.000 A 
ATOM      8  C   UNL     1      45.172   4.214   8.711  0.00  0.00    +0.000 A 
ATOM      9  C   UNL     1      46.102   3.935   7.700  0.00  0.00    +0.000 A 
BRANCH   4  11
ATOM     10  N   UNL     1      47.412   3.082   5.246  0.00  0.00    +0.000 N 
ATOM     11  C   UNL     1      47.514   2.358   6.402  0.00  0.00    +0.000 C 
ATOM     12  O   UNL     1      48.418   1.549   6.560  0.00  0.00    +0.000 OA
ATOM     13  H   UNL     1      48.153   2.957   4.570  0.00  0.00    +0.000 HD
ATOM     14  H   UNL     1      46.839   3.911   5.170  0.00  0.00    +0.000 HD
ENDBRANCH   4  11
ENDBRANCH   2   7
ENDBRANCH   1   2
BRANCH   1  15
ATOM     15  C   UNL     1      43.640   5.397  12.195  0.00  0.00    +0.000 C 
BRANCH  15  16
ATOM     16  C   UNL     1      45.112   5.606  12.456  0.00  0.00    +0.000 A 
ATOM     17  C   UNL     1      45.880   6.394  11.595  0.00  0.00    +0.000 A 
ATOM     18  C   UNL     1      47.218   6.639  11.886  0.00  0.00    +0.000 A 
ATOM     19  C   UNL     1      47.794   6.110  13.044  0.00  0.00    +0.000 A 
ATOM     20  C   UNL     1      47.049   5.337  13.953  0.00  0.00    +0.000 A 
ATOM     21  C   UNL     1      45.703   5.087  13.622  0.00  0.00    +0.000 A 
BRANCH  20  22
ATOM     22  C   UNL     1      47.641   4.838  15.219  0.00  0.00    +0.000 A 
ATOM     23  C   UNL     1      47.494   3.494  15.618  0.00  0.00    +0.000 A 
ATOM     24  C   UNL     1      48.029   3.024  16.825  0.00  0.00    +0.000 A 
ATOM     25  C   UNL     1      48.738   3.883  17.660  0.00  0.00    +0.000 A 
ATOM     26  C   UNL     1      48.905   5.212  17.290  0.00  0.00    +0.000 A 
ATOM     27  C   UNL     1      48.356   5.677  16.093  0.00  0.00    +0.000 A 
ATOM     28  F   UNL     1      48.521   6.979  15.811  0.00  0.00    +0.000 F 
ENDBRANCH  20  22
ENDBRANCH  15  16
ENDBRANCH   1  15
TORSDOF 6
ENDMDL
MODEL 3
REMARK VINA RESULT:    -8.261      2.210      4.061
REMARK INTER + INTRA:         -12.124
REMARK INTER:                 -11.089
REMARK INTRA:                  -1.036
REMARK UNBOUND:                -0.965
REMARK  Name = 
REMARK  6 active torsions:
REMARK  status: ('A' for Active; 'I' for Inactive)
REMARK    1  A    between atoms: C_2  and  C_4
REMARK    2  A    between atoms: C_7  and  N_8
REMARK    3  A    between atoms: N_8  and  C_9
REMARK    4  A    between atoms: C_9  and  C_10
REMARK    5  A    between atoms: C_10  and  C_11
REMARK    6  A    between atoms: C_15  and  C_16
REMARK                            x       y       z     vdW  Elec       q    Type
REMARK                         _______ _______ _______ _____ _____    ______ ____
ROOT
ATOM      1  C   UNL     1      44.148   5.342  11.383  0.00  0.00    +0.000 C 
ENDROOT
BRANCH   1   2
ATOM      2  N   UNL     1      43.779   5.020  10.009  0.00  0.00    +0.000 N 
ATOM      3  H   UNL     1      42.780   4.931   9.840  0.00  0.00    +0.000 HD
BRANCH   2   7
ATOM      4  C   UNL     1      46.235   2.245   7.977  0.00  0.00    +0.000 A 
ATOM      5  C   UNL     1      45.253   1.780   8.850  0.00  0.00    +0.000 A 
ATOM      6  C   UNL     1      44.418   2.688   9.514  0.00  0.00    +0.000 A 
ATOM      7  C   UNL     1      44.523   4.069   9.303  0.00  0.00    +0.000 A 
ATOM      8  C   UNL     1      45.521   4.520   8.428  0.00  0.00    +0.000 A 
ATOM      9  C   UNL     1      46.375   3.621   7.774  0.00  0.00    +0.000 A 
BRANCH   4  11
ATOM     10  N   UNL     1      48.243   1.878   6.647  0.00  0.00    +0.000 N 
ATOM     11  C   UNL     1      47.176   1.320   7.295  0.00  0.00    +0.000 C 
ATOM     12  O   UNL     1      47.023   0.106   7.326  0.00  0.00    +0.000 OA
ATOM     13  H   UNL     1      48.920   1.235   6.259  0.00  0.00    +0.000 HD
ATOM     14  H   UNL     1      48.532   2.834   6.795  0.00  0.00    +0.000 HD
ENDBRANCH   4  11
ENDBRANCH   2   7
ENDBRANCH   1   2
BRANCH   1  15
ATOM     15  C   UNL     1      44.775   6.735  11.477  0.00  0.00    +0.000 C 
BRANCH  15  16
ATOM     16  C   UNL     1      46.161   6.639  12.070  0.00  0.00    +0.000 A 
ATOM     17  C   UNL     1      47.229   7.328  11.492  0.00  0.00    +0.000 A 
ATOM     18  C   UNL     1      48.485   7.291  12.089  0.00  0.00    +0.000 A 
ATOM     19  C   UNL     1      48.677   6.576  13.275  0.00  0.00    +0.000 A 
ATOM     20  C   UNL     1      47.623   5.894  13.906  0.00  0.00    +0.000 A 
ATOM     21  C   UNL     1      46.367   5.931  13.268  0.00  0.00    +0.000 A 
BRANCH  20  22
ATOM     22  C   UNL     1      47.810   5.198  15.204  0.00  0.00    +0.000 A 
ATOM     23  C   UNL     1      48.278   5.882  16.343  0.00  0.00    +0.000 A 
ATOM     24  C   UNL     1      48.480   5.223  17.563  0.00  0.00    +0.000 A 
ATOM     25  C   UNL     1      48.208   3.863  17.680  0.00  0.00    +0.000 A 
ATOM     26  C   UNL     1      47.739   3.163  16.575  0.00  0.00    +0.000 A 
ATOM     27  C   UNL     1      47.554   3.822  15.358  0.00  0.00    +0.000 A 
ATOM     28  F   UNL     1      47.135   3.083  14.320  0.00  0.00    +0.000 F 
ENDBRANCH  20  22
ENDBRANCH  15  16
ENDBRANCH   1  15
TORSDOF 6
ENDMDL
MODEL 4
REMARK VINA RESULT:    -8.086      1.679      2.002
REMARK INTER + INTRA:         -11.888
REMARK INTER:                 -10.951
REMARK INTRA:                  -0.937
REMARK UNBOUND:                -0.965
REMARK  Name = 
REMARK  6 active torsions:
REMARK  status: ('A' for Active; 'I' for Inactive)
REMARK    1  A    between atoms: C_2  and  C_4
REMARK    2  A    between atoms: C_7  and  N_8
REMARK    3  A    between atoms: N_8  and  C_9
REMARK    4  A    between atoms: C_9  and  C_10
REMARK    5  A    between atoms: C_10  and  C_11
REMARK    6  A    between atoms: C_15  and  C_16
REMARK                            x       y       z     vdW  Elec       q    Type
REMARK                         _______ _______ _______ _____ _____    ______ ____
ROOT
ATOM      1  C   UNL     1      43.618   5.000  11.200  0.00  0.00    +0.000 C 
ENDROOT
BRANCH   1   2
ATOM      2  N   UNL     1      43.504   4.673   9.783  0.00  0.00    +0.000 N 
ATOM      3  H   UNL     1      42.593   4.328   9.491  0.00  0.00    +0.000 HD
BRANCH   2   7
ATOM      4  C   UNL     1      46.504   2.512   7.735  0.00  0.00    +0.000 A 
ATOM      5  C   UNL     1      46.451   3.900   7.609  0.00  0.00    +0.000 A 
ATOM      6  C   UNL     1      45.475   4.630   8.298  0.00  0.00    +0.000 A 
ATOM      7  C   UNL     1      44.553   4.003   9.147  0.00  0.00    +0.000 A 
ATOM      8  C   UNL     1      44.616   2.606   9.256  0.00  0.00    +0.000 A 
ATOM      9  C   UNL     1      45.576   1.864   8.554  0.00  0.00    +0.000 A 
BRANCH   4  11
ATOM     10  N   UNL     1      48.555   2.352   6.432  0.00  0.00    +0.000 N 
ATOM     11  C   UNL     1      47.488   1.696   6.979  0.00  0.00    +0.000 C 
ATOM     12  O   UNL     1      47.368   0.483   6.865  0.00  0.00    +0.000 OA
ATOM     13  H   UNL     1      49.260   1.776   5.992  0.00  0.00    +0.000 HD
ATOM     14  H   UNL     1      48.813   3.292   6.698  0.00  0.00    +0.000 HD
ENDBRANCH   4  11
ENDBRANCH   2   7
ENDBRANCH   1   2
BRANCH   1  15
ATOM     15  C   UNL     1      44.389   6.306  11.408  0.00  0.00    +0.000 C 
BRANCH  15  16
ATOM     16  C   UNL     1      45.547   6.078  12.349  0.00  0.00    +0.000 A 
ATOM     17  C   UNL     1      45.489   5.070  13.314  0.00  0.00    +0.000 A 
ATOM     18  C   UNL     1      46.591   4.822  14.127  0.00  0.00    +0.000 A 
ATOM     19  C   UNL     1      47.761   5.570  13.971  0.00  0.00    +0.000 A 
ATOM     20  C   UNL     1      47.872   6.573  12.993  0.00  0.00    +0.000 A 
ATOM     21  C   UNL     1      46.735   6.817  12.199  0.00  0.00    +0.000 A 
BRANCH  20  22
ATOM     22  C   UNL     1      49.139   7.316  12.779  0.00  0.00    +0.000 A 
ATOM     23  C   UNL     1      49.656   7.529  11.485  0.00  0.00    +0.000 A 
ATOM     24  C   UNL     1      50.865   8.208  11.281  0.00  0.00    +0.000 A 
ATOM     25  C   UNL     1      51.583   8.706  12.364  0.00  0.00    +0.000 A 
ATOM     26  C   UNL     1      51.095   8.517  13.652  0.00  0.00    +0.000 A 
ATOM     27  C   UNL     1      49.897   7.827  13.850  0.00  0.00    +0.000 A 
ATOM     28  F   UNL     1      49.498   7.646  15.119  0.00  0.00    +0.000 F 
ENDBRANCH  20  22
ENDBRANCH  15  16
ENDBRANCH   1  15
TORSDOF 6
ENDMDL
MODEL 5
REMARK VINA RESULT:    -7.722      1.480      2.260
REMARK INTER + INTRA:         -11.396
REMARK INTER:                 -10.654
REMARK INTRA:                  -0.741
REMARK UNBOUND:                -0.965
REMARK  Name = 
REMARK  6 active torsions:
REMARK  status: ('A' for Active; 'I' for Inactive)
REMARK    1  A    between atoms: C_2  and  C_4
REMARK    2  A    between atoms: C_7  and  N_8
REMARK    3  A    between atoms: N_8  and  C_9
REMARK    4  A    between atoms: C_9  and  C_10
REMARK    5  A    between atoms: C_10  and  C_11
REMARK    6  A    between atoms: C_15  and  C_16
REMARK                            x       y       z     vdW  Elec       q    Type
REMARK                         _______ _______ _______ _____ _____    ______ ____
ROOT
ATOM      1  C   UNL     1      43.983   5.147  11.350  0.00  0.00    +0.000 C 
ENDROOT
BRANCH   1   2
ATOM      2  N   UNL     1      43.711   4.702   9.987  0.00  0.00    +0.000 N 
ATOM      3  H   UNL     1      42.787   4.303   9.840  0.00  0.00    +0.000 HD
BRANCH   2   7
ATOM      4  C   UNL     1      46.529   2.518   7.719  0.00  0.00    +0.000 A 
ATOM      5  C   UNL     1      46.528   3.911   7.654  0.00  0.00    +0.000 A 
ATOM      6  C   UNL     1      45.613   4.648   8.416  0.00  0.00    +0.000 A 
ATOM      7  C   UNL     1      44.703   4.020   9.278  0.00  0.00    +0.000 A 
ATOM      8  C   UNL     1      44.713   2.619   9.325  0.00  0.00    +0.000 A 
ATOM      9  C   UNL     1      45.611   1.871   8.550  0.00  0.00    +0.000 A 
BRANCH   4  11
ATOM     10  N   UNL     1      48.520   2.334   6.328  0.00  0.00    +0.000 N 
ATOM     11  C   UNL     1      47.445   1.698   6.886  0.00  0.00    +0.000 C 
ATOM     12  O   UNL     1      47.267   0.499   6.719  0.00  0.00    +0.000 OA
ATOM     13  H   UNL     1      49.181   1.749   5.833  0.00  0.00    +0.000 HD
ATOM     14  H   UNL     1      48.831   3.246   6.628  0.00  0.00    +0.000 HD
ENDBRANCH   4  11
ENDBRANCH   2   7
ENDBRANCH   1   2
BRANCH   1  15
ATOM     15  C   UNL     1      45.446   4.905  11.731  0.00  0.00    +0.000 C 
BRANCH  15  16
ATOM     16  C   UNL     1      46.026   6.146  12.366  0.00  0.00    +0.000 A 
ATOM     17  C   UNL     1      47.032   6.046  13.329  0.00  0.00    +0.000 A 
ATOM     18  C   UNL     1      47.610   7.198  13.853  0.00  0.00    +0.000 A 
ATOM     19  C   UNL     1      47.195   8.456  13.408  0.00  0.00    +0.000 A 
ATOM     20  C   UNL     1      46.208   8.602  12.419  0.00  0.00    +0.000 A 
ATOM     21  C   UNL     1      45.625   7.419  11.921  0.00  0.00    +0.000 A 
BRANCH  20  22
ATOM     22  C   UNL     1      45.821   9.935  11.894  0.00  0.00    +0.000 A 
ATOM     23  C   UNL     1      44.472  10.338  11.838  0.00  0.00    +0.000 A 
ATOM     24  C   UNL     1      44.100  11.586  11.320  0.00  0.00    +0.000 A 
ATOM     25  C   UNL     1      45.069  12.471  10.855  0.00  0.00    +0.000 A 
ATOM     26  C   UNL     1      46.409  12.103  10.904  0.00  0.00    +0.000 A 
ATOM     27  C   UNL     1      46.771  10.852  11.408  0.00  0.00    +0.000 A 
ATOM     28  F   UNL     1      48.077  10.543  11.393  0.00  0.00    +0.000 F 
ENDBRANCH  20  22
ENDBRANCH  15  16
ENDBRANCH   1  15
TORSDOF 6
ENDMDL
MODEL 6
REMARK VINA RESULT:    -7.297      4.097      7.520
REMARK INTER + INTRA:         -10.822
REMARK INTER:                  -9.372
REMARK INTRA:                  -1.450
REMARK UNBOUND:                -0.965
REMARK  Name = 
REMARK  6 active torsions:
REMARK  status: ('A' for Active; 'I' for Inactive)
REMARK    1  A    between atoms: C_2  and  C_4
REMARK    2  A    between atoms: C_7  and  N_8
REMARK    3  A    between atoms: N_8  and  C_9
REMARK    4  A    between atoms: C_9  and  C_10
REMARK    5  A    between atoms: C_10  and  C_11
REMARK    6  A    between atoms: C_15  and  C_16
REMARK                            x       y       z     vdW  Elec       q    Type
REMARK                         _______ _______ _______ _____ _____    ______ ____
ROOT
ATOM      1  C   UNL     1      49.629   7.424  13.132  0.00  0.00    +0.000 C 
ENDROOT
BRANCH   1   2
ATOM      2  N   UNL     1      49.349   7.777  14.519  0.00  0.00    +0.000 N 
ATOM      3  H   UNL     1      50.036   8.387  14.957  0.00  0.00    +0.000 HD
BRANCH   2   7
ATOM      4  C   UNL     1      48.011   4.634  17.008  0.00  0.00    +0.000 A 
ATOM      5  C   UNL     1      48.923   5.564  17.507  0.00  0.00    +0.000 A 
ATOM      6  C   UNL     1      49.358   6.622  16.700  0.00  0.00    +0.000 A 
ATOM      7  C   UNL     1      48.878   6.795  15.395  0.00  0.00    +0.000 A 
ATOM      8  C   UNL     1      47.967   5.847  14.907  0.00  0.00    +0.000 A 
ATOM      9  C   UNL     1      47.540   4.772  15.699  0.00  0.00    +0.000 A 
BRANCH   4  11
ATOM     10  N   UNL     1      48.314   3.141  18.909  0.00  0.00    +0.000 N 
ATOM     11  C   UNL     1      47.566   3.468  17.811  0.00  0.00    +0.000 C 
ATOM     12  O   UNL     1      46.559   2.833  17.525  0.00  0.00    +0.000 OA
ATOM     13  H   UNL     1      47.954   2.399  19.494  0.00  0.00    +0.000 HD
ATOM     14  H   UNL     1      48.997   3.768  19.309  0.00  0.00    +0.000 HD
ENDBRANCH   4  11
ENDBRANCH   2   7
ENDBRANCH   1   2
BRANCH   1  15
ATOM     15  C   UNL     1      48.922   8.376  12.164  0.00  0.00    +0.000 C 
BRANCH  15  16
ATOM     16  C   UNL     1      47.463   8.004  12.047  0.00  0.00    +0.000 A 
ATOM     17  C   UNL     1      46.468   8.910  12.422  0.00  0.00    +0.000 A 
ATOM     18  C   UNL     1      45.128   8.583  12.242  0.00  0.00    +0.000 A 
ATOM     19  C   UNL     1      44.774   7.357  11.672  0.00  0.00    +0.000 A 
ATOM     20  C   UNL     1      45.744   6.430  11.251  0.00  0.00    +0.000 A 
ATOM     21  C   UNL     1      47.092   6.778  11.467  0.00  0.00    +0.000 A 
BRANCH  20  22
ATOM     22  C   UNL     1      45.370   5.161  10.579  0.00  0.00    +0.000 A 
ATOM     23  C   UNL     1      45.510   4.999   9.186  0.00  0.00    +0.000 A 
ATOM     24  C   UNL     1      45.134   3.811   8.544  0.00  0.00    +0.000 A 
ATOM     25  C   UNL     1      44.621   2.747   9.281  0.00  0.00    +0.000 A 
ATOM     26  C   UNL     1      44.478   2.875  10.657  0.00  0.00    +0.000 A 
ATOM     27  C   UNL     1      44.841   4.067  11.288  0.00  0.00    +0.000 A 
ATOM     28  F   UNL     1      44.643   4.140  12.614  0.00  0.00    +0.000 F 
ENDBRANCH  20  22
ENDBRANCH  15  16
ENDBRANCH   1  15
TORSDOF 6
ENDMDL
MODEL 7
REMARK VINA RESULT:    -7.182      4.846      8.122
REMARK INTER + INTRA:         -10.667
REMARK INTER:                  -9.967
REMARK INTRA:                  -0.700
REMARK UNBOUND:                -0.965
REMARK  Name = 
REMARK  6 active torsions:
REMARK  status: ('A' for Active; 'I' for Inactive)
REMARK    1  A    between atoms: C_2  and  C_4
REMARK    2  A    between atoms: C_7  and  N_8
REMARK    3  A    between atoms: N_8  and  C_9
REMARK    4  A    between atoms: C_9  and  C_10
REMARK    5  A    between atoms: C_10  and  C_11
REMARK    6  A    between atoms: C_15  and  C_16
REMARK                            x       y       z     vdW  Elec       q    Type
REMARK                         _______ _______ _______ _____ _____    ______ ____
ROOT
ATOM      1  C   UNL     1      46.875   4.363  13.873  0.00  0.00    +0.000 C 
ENDROOT
BRANCH   1   2
ATOM      2  N   UNL     1      46.666   4.094  15.292  0.00  0.00    +0.000 N 
ATOM      3  H   UNL     1      45.847   4.539  15.700  0.00  0.00    +0.000 HD
BRANCH   2   7
ATOM      4  C   UNL     1      50.103   3.979  17.748  0.00  0.00    +0.000 A 
ATOM      5  C   UNL     1      49.602   5.210  17.328  0.00  0.00    +0.000 A 
ATOM      6  C   UNL     1      48.452   5.263  16.531  0.00  0.00    +0.000 A 
ATOM      7  C   UNL     1      47.762   4.102  16.160  0.00  0.00    +0.000 A 
ATOM      8  C   UNL     1      48.285   2.872  16.585  0.00  0.00    +0.000 A 
ATOM      9  C   UNL     1      49.447   2.806  17.366  0.00  0.00    +0.000 A 
BRANCH   4  11
ATOM     10  N   UNL     1      52.121   2.761  18.364  0.00  0.00    +0.000 N 
ATOM     11  C   UNL     1      51.350   3.876  18.548  0.00  0.00    +0.000 C 
ATOM     12  O   UNL     1      51.694   4.757  19.325  0.00  0.00    +0.000 OA
ATOM     13  H   UNL     1      53.007   2.741  18.851  0.00  0.00    +0.000 HD
ATOM     14  H   UNL     1      52.001   2.139  17.578  0.00  0.00    +0.000 HD
ENDBRANCH   4  11
ENDBRANCH   2   7
ENDBRANCH   1   2
BRANCH   1  15
ATOM     15  C   UNL     1      45.627   4.978  13.236  0.00  0.00    +0.000 C 
BRANCH  15  16
ATOM     16  C   UNL     1      45.021   4.010  12.248  0.00  0.00    +0.000 A 
ATOM     17  C   UNL     1      43.768   3.442  12.489  0.00  0.00    +0.000 A 
ATOM     18  C   UNL     1      43.189   2.609  11.537  0.00  0.00    +0.000 A 
ATOM     19  C   UNL     1      43.850   2.350  10.334  0.00  0.00    +0.000 A 
ATOM     20  C   UNL     1      45.098   2.925  10.038  0.00  0.00    +0.000 A 
ATOM     21  C   UNL     1      45.672   3.747  11.029  0.00  0.00    +0.000 A 
BRANCH  20  22
ATOM     22  C   UNL     1      45.767   2.709   8.731  0.00  0.00    +0.000 A 
ATOM     23  C   UNL     1      46.181   1.425   8.322  0.00  0.00    +0.000 A 
ATOM     24  C   UNL     1      46.835   1.220   7.099  0.00  0.00    +0.000 A 
ATOM     25  C   UNL     1      47.080   2.292   6.246  0.00  0.00    +0.000 A 
ATOM     26  C   UNL     1      46.676   3.568   6.619  0.00  0.00    +0.000 A 
ATOM     27  C   UNL     1      46.038   3.768   7.845  0.00  0.00    +0.000 A 
ATOM     28  F   UNL     1      45.707   5.029   8.163  0.00  0.00    +0.000 F 
ENDBRANCH  20  22
ENDBRANCH  15  16
ENDBRANCH   1  15
TORSDOF 6
ENDMDL
MODEL 8
REMARK VINA RESULT:    -6.787      3.991      6.493
REMARK INTER + INTRA:         -10.132
REMARK INTER:                  -8.706
REMARK INTRA:                  -1.426
REMARK UNBOUND:                -0.965
REMARK  Name = 
REMARK  6 active torsions:
REMARK  status: ('A' for Active; 'I' for Inactive)
REMARK    1  A    between atoms: C_2  and  C_4
REMARK    2  A    between atoms: C_7  and  N_8
REMARK    3  A    between atoms: N_8  and  C_9
REMARK    4  A    between atoms: C_9  and  C_10
REMARK    5  A    between atoms: C_10  and  C_11
REMARK    6  A    between atoms: C_15  and  C_16
REMARK                            x       y       z     vdW  Elec       q    Type
REMARK                         _______ _______ _______ _____ _____    ______ ____
ROOT
ATOM      1  C   UNL     1      47.426   8.827  13.639  0.00  0.00    +0.000 C 
ENDROOT
BRANCH   1   2
ATOM      2  N   UNL     1      47.698   7.733  12.712  0.00  0.00    +0.000 N 
ATOM      3  H   UNL     1      48.110   8.011  11.825  0.00  0.00    +0.000 HD
BRANCH   2   7
ATOM      4  C   UNL     1      44.961   4.584  12.042  0.00  0.00    +0.000 A 
ATOM      5  C   UNL     1      45.752   4.572  13.190  0.00  0.00    +0.000 A 
ATOM      6  C   UNL     1      46.648   5.619  13.435  0.00  0.00    +0.000 A 
ATOM      7  C   UNL     1      46.756   6.711  12.563  0.00  0.00    +0.000 A 
ATOM      8  C   UNL     1      45.958   6.703  11.410  0.00  0.00    +0.000 A 
ATOM      9  C   UNL     1      45.072   5.649  11.145  0.00  0.00    +0.000 A 
BRANCH   4  11
ATOM     10  N   UNL     1      44.037   2.391  12.563  0.00  0.00    +0.000 N 
ATOM     11  C   UNL     1      44.038   3.466  11.718  0.00  0.00    +0.000 C 
ATOM     12  O   UNL     1      43.288   3.507  10.751  0.00  0.00    +0.000 OA
ATOM     13  H   UNL     1      43.346   1.675  12.379  0.00  0.00    +0.000 HD
ATOM     14  H   UNL     1      44.454   2.419  13.482  0.00  0.00    +0.000 HD
ENDBRANCH   4  11
ENDBRANCH   2   7
ENDBRANCH   1   2
BRANCH   1  15
ATOM     15  C   UNL     1      48.670   9.182  14.458  0.00  0.00    +0.000 C 
BRANCH  15  16
ATOM     16  C   UNL     1      48.633   8.469  15.789  0.00  0.00    +0.000 A 
ATOM     17  C   UNL     1      48.148   9.118  16.926  0.00  0.00    +0.000 A 
ATOM     18  C   UNL     1      48.050   8.428  18.131  0.00  0.00    +0.000 A 
ATOM     19  C   UNL     1      48.424   7.083  18.202  0.00  0.00    +0.000 A 
ATOM     20  C   UNL     1      48.888   6.384  17.074  0.00  0.00    +0.000 A 
ATOM     21  C   UNL     1      48.997   7.113  15.873  0.00  0.00    +0.000 A 
BRANCH  20  22
ATOM     22  C   UNL     1      49.215   4.938  17.133  0.00  0.00    +0.000 A 
ATOM     23  C   UNL     1      50.499   4.489  17.502  0.00  0.00    +0.000 A 
ATOM     24  C   UNL     1      50.818   3.125  17.534  0.00  0.00    +0.000 A 
ATOM     25  C   UNL     1      49.857   2.171  17.211  0.00  0.00    +0.000 A 
ATOM     26  C   UNL     1      48.581   2.583  16.850  0.00  0.00    +0.000 A 
ATOM     27  C   UNL     1      48.273   3.944  16.805  0.00  0.00    +0.000 A 
ATOM     28  F   UNL     1      47.033   4.278  16.413  0.00  0.00    +0.000 F 
ENDBRANCH  20  22
ENDBRANCH  15  16
ENDBRANCH   1  15
TORSDOF 6
ENDMDL
MODEL 9
REMARK VINA RESULT:    -6.642      4.852      7.002
REMARK INTER + INTRA:          -9.937
REMARK INTER:                  -9.032
REMARK INTRA:                  -0.905
REMARK UNBOUND:                -0.965
REMARK  Name = 
REMARK  6 active torsions:
REMARK  status: ('A' for Active; 'I' for Inactive)
REMARK    1  A    between atoms: C_2  and  C_4
REMARK    2  A    between atoms: C_7  and  N_8
REMARK    3  A    between atoms: N_8  and  C_9
REMARK    4  A    between atoms: C_9  and  C_10
REMARK    5  A    between atoms: C_10  and  C_11
REMARK    6  A    between atoms: C_15  and  C_16
REMARK                            x       y       z     vdW  Elec       q    Type
REMARK                         _______ _______ _______ _____ _____    ______ ____
ROOT
ATOM      1  C   UNL     1      48.769   7.006  13.994  0.00  0.00    +0.000 C 
ENDROOT
BRANCH   1   2
ATOM      2  N   UNL     1      47.411   6.543  14.256  0.00  0.00    +0.000 N 
ATOM      3  H   UNL     1      47.272   6.103  15.163  0.00  0.00    +0.000 HD
BRANCH   2   7
ATOM      4  C   UNL     1      45.046   4.624  11.326  0.00  0.00    +0.000 A 
ATOM      5  C   UNL     1      45.733   5.791  10.996  0.00  0.00    +0.000 A 
ATOM      6  C   UNL     1      46.537   6.426  11.952  0.00  0.00    +0.000 A 
ATOM      7  C   UNL     1      46.697   5.900  13.241  0.00  0.00    +0.000 A 
ATOM      8  C   UNL     1      45.992   4.730  13.558  0.00  0.00    +0.000 A 
ATOM      9  C   UNL     1      45.169   4.098  12.615  0.00  0.00    +0.000 A 
BRANCH   4  11
ATOM     10  N   UNL     1      44.010   4.521   9.124  0.00  0.00    +0.000 N 
ATOM     11  C   UNL     1      44.141   3.950  10.360  0.00  0.00    +0.000 C 
ATOM     12  O   UNL     1      43.552   2.915  10.642  0.00  0.00    +0.000 OA
ATOM     13  H   UNL     1      43.458   4.008   8.449  0.00  0.00    +0.000 HD
ATOM     14  H   UNL     1      44.647   5.223   8.777  0.00  0.00    +0.000 HD
ENDBRANCH   4  11
ENDBRANCH   2   7
ENDBRANCH   1   2
BRANCH   1  15
ATOM     15  C   UNL     1      49.294   7.865  15.147  0.00  0.00    +0.000 C 
BRANCH  15  16
ATOM     16  C   UNL     1      49.337   7.053  16.419  0.00  0.00    +0.000 A 
ATOM     17  C   UNL     1      48.507   7.377  17.495  0.00  0.00    +0.000 A 
ATOM     18  C   UNL     1      48.503   6.578  18.634  0.00  0.00    +0.000 A 
ATOM     19  C   UNL     1      49.316   5.443  18.699  0.00  0.00    +0.000 A 
ATOM     20  C   UNL     1      50.143   5.064  17.627  0.00  0.00    +0.000 A 
ATOM     21  C   UNL     1      50.144   5.904  16.495  0.00  0.00    +0.000 A 
BRANCH  20  22
ATOM     22  C   UNL     1      50.951   3.820  17.667  0.00  0.00    +0.000 A 
ATOM     23  C   UNL     1      52.313   3.840  18.029  0.00  0.00    +0.000 A 
ATOM     24  C   UNL     1      53.085   2.670  18.044  0.00  0.00    +0.000 A 
ATOM     25  C   UNL     1      52.513   1.446  17.711  0.00  0.00    +0.000 A 
ATOM     26  C   UNL     1      51.170   1.394  17.356  0.00  0.00    +0.000 A 
ATOM     27  C   UNL     1      50.409   2.565  17.329  0.00  0.00    +0.000 A 
ATOM     28  F   UNL     1      49.129   2.453  16.943  0.00  0.00    +0.000 F 
ENDBRANCH  20  22
ENDBRANCH  15  16
ENDBRANCH   1  15
TORSDOF 6
ENDMDL
