MODEL 1
REMARK VINA RESULT:    -7.559      0.000      0.000
REMARK INTER + INTRA:         -10.943
REMARK INTER:                  -9.768
REMARK INTRA:                  -1.175
REMARK UNBOUND:                -1.175
REMARK  Name = 
REMARK  5 active torsions:
REMARK  status: ('A' for Active; 'I' for Inactive)
REMARK    1  A    between atoms: C_4  and  C_5
REMARK    2  A    between atoms: C_5  and  C_6
REMARK    3  A    between atoms: C_6  and  C_7
REMARK    4  A    between atoms: C_11  and  C_12
REMARK    5  A    between atoms: C_20  and  C_21
REMARK                            x       y       z     vdW  Elec       q    Type
REMARK                         _______ _______ _______ _____ _____    ______ ____
ROOT
ATOM      1  C   UNL     1      45.639   7.365  11.373  0.00  0.00    +0.000 C 
ENDROOT
BRANCH   1   2
ATOM      2  C   UNL     1      46.902   7.241  12.201  0.00  0.00    +0.000 A 
ATOM      3  C   UNL     1      48.054   7.992  11.944  0.00  0.00    +0.000 A 
ATOM      4  C   UNL     1      49.173   7.880  12.767  0.00  0.00    +0.000 A 
ATOM      5  C   UNL     1      49.147   7.035  13.876  0.00  0.00    +0.000 A 
ATOM      6  C   UNL     1      47.999   6.294  14.201  0.00  0.00    +0.000 A 
ATOM      7  C   UNL     1      46.891   6.409  13.336  0.00  0.00    +0.000 A 
BRANCH   6   8
ATOM      8  C   UNL     1      47.937   5.466  15.424  0.00  0.00    +0.000 A 
ATOM      9  C   UNL     1      48.703   5.745  16.564  0.00  0.00    +0.000 A 
ATOM     10  C   UNL     1      48.647   4.911  17.682  0.00  0.00    +0.000 A 
ATOM     11  C   UNL     1      47.807   3.813  17.641  0.00  0.00    +0.000 A 
ATOM     12  N   UNL     1      47.040   3.503  16.578  0.00  0.00    +0.000 NA
ATOM     13  C   UNL     1      47.128   4.329  15.506  0.00  0.00    +0.000 A 
ENDBRANCH   6   8
ENDBRANCH   1   2
BRANCH   1  14
ATOM     14  C   UNL     1      44.453   6.512  11.843  0.00  0.00    +0.000 C 
BRANCH  14  18
ATOM     15  F   UNL     1      42.965   1.861  11.610  0.00  0.00    +0.000 F 
ATOM     16  C   UNL     1      43.660   2.872  11.073  0.00  0.00    +0.000 A 
ATOM     17  C   UNL     1      43.668   4.109  11.707  0.00  0.00    +0.000 A 
ATOM     18  C   UNL     1      44.401   5.166  11.161  0.00  0.00    +0.000 A 
ATOM     19  C   UNL     1      45.104   4.961   9.962  0.00  0.00    +0.000 A 
ATOM     20  C   UNL     1      45.099   3.711   9.321  0.00  0.00    +0.000 A 
ATOM     21  C   UNL     1      44.367   2.662   9.893  0.00  0.00    +0.000 A 
BRANCH  20  22
ATOM     22  C   UNL     1      45.872   3.485   8.047  0.00  0.00    +0.000 C 
ATOM     23  F   UNL     1      46.778   4.468   7.778  0.00  0.00    +0.000 F 
ATOM     24  F   UNL     1      46.580   2.323   8.068  0.00  0.00    +0.000 F 
ATOM     25  F   UNL     1      45.066   3.415   6.953  0.00  0.00    +0.000 F 
ENDBRANCH  20  22
ENDBRANCH  14  18
ENDBRANCH   1  14
TORSDOF 5
ENDMDL
MODEL 2
REMARK VINA RESULT:    -7.504      1.257      1.689
REMARK INTER + INTRA:         -10.872
REMARK INTER:                  -9.890
REMARK INTRA:                  -0.982
REMARK UNBOUND:                -1.175
REMARK  Name = 
REMARK  5 active torsions:
REMARK  status: ('A' for Active; 'I' for Inactive)
REMARK    1  A    between atoms: C_4  and  C_5
REMARK    2  A    between atoms: C_5  and  C_6
REMARK    3  A    between atoms: C_6  and  C_7
REMARK    4  A    between atoms: C_11  and  C_12
REMARK    5  A    between atoms: C_20  and  C_21
REMARK                            x       y       z     vdW  Elec       q    Type
REMARK                         _______ _______ _______ _____ _____    ______ ____
ROOT
ATOM      1  C   UNL     1      45.310   6.136  11.224  0.00  0.00    +0.000 C 
ENDROOT
BRANCH   1   2
ATOM      2  C   UNL     1      46.554   6.327  12.068  0.00  0.00    +0.000 A 
ATOM      3  C   UNL     1      47.587   7.200  11.710  0.00  0.00    +0.000 A 
ATOM      4  C   UNL     1      48.686   7.380  12.549  0.00  0.00    +0.000 A 
ATOM      5  C   UNL     1      48.755   6.709  13.770  0.00  0.00    +0.000 A 
ATOM      6  C   UNL     1      47.722   5.856  14.192  0.00  0.00    +0.000 A 
ATOM      7  C   UNL     1      46.634   5.675  13.313  0.00  0.00    +0.000 A 
BRANCH   6   8
ATOM      8  C   UNL     1      47.750   5.214  15.523  0.00  0.00    +0.000 A 
ATOM      9  C   UNL     1      48.600   5.644  16.552  0.00  0.00    +0.000 A 
ATOM     10  C   UNL     1      48.625   4.981  17.780  0.00  0.00    +0.000 A 
ATOM     11  C   UNL     1      47.783   3.899  17.959  0.00  0.00    +0.000 A 
ATOM     12  N   UNL     1      46.939   3.448  17.012  0.00  0.00    +0.000 NA
ATOM     13  C   UNL     1      46.949   4.110  15.827  0.00  0.00    +0.000 A 
ENDBRANCH   6   8
ENDBRANCH   1   2
BRANCH   1  14
ATOM     14  C   UNL     1      45.547   6.012   9.713  0.00  0.00    +0.000 C 
BRANCH  14  18
ATOM     15  F   UNL     1      43.899   1.423  10.065  0.00  0.00    +0.000 F 
ATOM     16  C   UNL     1      44.661   2.324   9.432  0.00  0.00    +0.000 A 
ATOM     17  C   UNL     1      44.680   3.640   9.879  0.00  0.00    +0.000 A 
ATOM     18  C   UNL     1      45.483   4.583   9.231  0.00  0.00    +0.000 A 
ATOM     19  C   UNL     1      46.244   4.184   8.121  0.00  0.00    +0.000 A 
ATOM     20  C   UNL     1      46.229   2.854   7.669  0.00  0.00    +0.000 A 
ATOM     21  C   UNL     1      45.426   1.922   8.340  0.00  0.00    +0.000 A 
BRANCH  20  22
ATOM     22  C   UNL     1      47.064   2.421   6.490  0.00  0.00    +0.000 C 
ATOM     23  F   UNL     1      46.702   3.017   5.319  0.00  0.00    +0.000 F 
ATOM     24  F   UNL     1      48.384   2.703   6.658  0.00  0.00    +0.000 F 
ATOM     25  F   UNL     1      46.991   1.081   6.263  0.00  0.00    +0.000 F 
ENDBRANCH  20  22
ENDBRANCH  14  18
ENDBRANCH   1  14
TORSDOF 5
ENDMDL
MODEL 3
REMARK VINA RESULT:    -7.431      3.642      7.015
REMARK INTER + INTRA:         -10.778
REMARK INTER:                  -9.541
REMARK INTRA:                  -1.237
REMARK UNBOUND:                -1.175
REMARK  Name = 
REMARK  5 active torsions:
REMARK  status: ('A' for Active; 'I' for Inactive)
REMARK    1  A    between atoms: C_4  and  C_5
REMARK    2  A    between atoms: C_5  and  C_6
REMARK    3  A    between atoms: C_6  and  C_7
REMARK    4  A    between atoms: C_11  and  C_12
REMARK    5  A    between atoms: C_20  and  C_21
REMARK                            x       y       z     vdW  Elec       q    Type
REMARK                         _______ _______ _______ _____ _____    ______ ____
ROOT
ATOM      1  C   UNL     1      43.658   6.194  10.832  0.00  0.00    +0.000 C 
ENDROOT
BRANCH   1   2
ATOM      2  C   UNL     1      43.942   4.728  10.572  0.00  0.00    +0.000 A 
ATOM      3  C   UNL     1      43.298   3.697  11.263  0.00  0.00    +0.000 A 
ATOM      4  C   UNL     1      43.555   2.363  10.949  0.00  0.00    +0.000 A 
ATOM      5  C   UNL     1      44.442   2.043   9.921  0.00  0.00    +0.000 A 
ATOM      6  C   UNL     1      45.081   3.044   9.171  0.00  0.00    +0.000 A 
ATOM      7  C   UNL     1      44.819   4.383   9.526  0.00  0.00    +0.000 A 
BRANCH   6   8
ATOM      8  C   UNL     1      45.952   2.709   8.025  0.00  0.00    +0.000 A 
ATOM      9  C   UNL     1      46.194   3.603   6.973  0.00  0.00    +0.000 A 
ATOM     10  C   UNL     1      46.989   3.230   5.889  0.00  0.00    +0.000 A 
ATOM     11  C   UNL     1      47.543   1.963   5.885  0.00  0.00    +0.000 A 
ATOM     12  N   UNL     1      47.355   1.067   6.873  0.00  0.00    +0.000 NA
ATOM     13  C   UNL     1      46.568   1.459   7.905  0.00  0.00    +0.000 A 
ENDBRANCH   6   8
ENDBRANCH   1   2
BRANCH   1  14
ATOM     14  C   UNL     1      43.998   6.695  12.241  0.00  0.00    +0.000 C 
BRANCH  14  18
ATOM     15  F   UNL     1      47.233   3.905  14.618  0.00  0.00    +0.000 F 
ATOM     16  C   UNL     1      46.985   4.967  13.841  0.00  0.00    +0.000 A 
ATOM     17  C   UNL     1      45.679   5.241  13.453  0.00  0.00    +0.000 A 
ATOM     18  C   UNL     1      45.410   6.355  12.653  0.00  0.00    +0.000 A 
ATOM     19  C   UNL     1      46.476   7.170  12.238  0.00  0.00    +0.000 A 
ATOM     20  C   UNL     1      47.796   6.897  12.630  0.00  0.00    +0.000 A 
ATOM     21  C   UNL     1      48.041   5.781  13.443  0.00  0.00    +0.000 A 
BRANCH  20  22
ATOM     22  C   UNL     1      48.937   7.785  12.203  0.00  0.00    +0.000 C 
ATOM     23  F   UNL     1      49.453   8.534  13.218  0.00  0.00    +0.000 F 
ATOM     24  F   UNL     1      49.982   7.078  11.694  0.00  0.00    +0.000 F 
ATOM     25  F   UNL     1      48.574   8.670  11.235  0.00  0.00    +0.000 F 
ENDBRANCH  20  22
ENDBRANCH  14  18
ENDBRANCH   1  14
TORSDOF 5
ENDMDL
MODEL 4
REMARK VINA RESULT:    -7.023      3.445      7.162
REMARK INTER + INTRA:         -10.250
REMARK INTER:                  -9.599
REMARK INTRA:                  -0.651
REMARK UNBOUND:                -1.175
REMARK  Name = 
REMARK  5 active torsions:
REMARK  status: ('A' for Active; 'I' for Inactive)
REMARK    1  A    between atoms: C_4  and  C_5
REMARK    2  A    between atoms: C_5  and  C_6
REMARK    3  A    between atoms: C_6  and  C_7
REMARK    4  A    between atoms: C_11  and  C_12
REMARK    5  A    between atoms: C_20  and  C_21
REMARK                            x       y       z     vdW  Elec       q    Type
REMARK                         _______ _______ _______ _____ _____    ______ ____
ROOT
ATOM      1  C   UNL     1      43.807   6.608  11.424  0.00  0.00    +0.000 C 
ENDROOT
BRANCH   1   2
ATOM      2  C   UNL     1      43.930   5.125  11.139  0.00  0.00    +0.000 A 
ATOM      3  C   UNL     1      43.203   4.155  11.838  0.00  0.00    +0.000 A 
ATOM      4  C   UNL     1      43.313   2.807  11.502  0.00  0.00    +0.000 A 
ATOM      5  C   UNL     1      44.132   2.412  10.445  0.00  0.00    +0.000 A 
ATOM      6  C   UNL     1      44.849   3.352   9.686  0.00  0.00    +0.000 A 
ATOM      7  C   UNL     1      44.737   4.706  10.064  0.00  0.00    +0.000 A 
BRANCH   6   8
ATOM      8  C   UNL     1      45.648   2.945   8.511  0.00  0.00    +0.000 A 
ATOM      9  C   UNL     1      45.996   3.839   7.488  0.00  0.00    +0.000 A 
ATOM     10  C   UNL     1      46.715   3.403   6.375  0.00  0.00    +0.000 A 
ATOM     11  C   UNL     1      47.087   2.072   6.313  0.00  0.00    +0.000 A 
ATOM     12  N   UNL     1      46.791   1.172   7.270  0.00  0.00    +0.000 NA
ATOM     13  C   UNL     1      46.082   1.629   8.332  0.00  0.00    +0.000 A 
ENDBRANCH   6   8
ENDBRANCH   1   2
BRANCH   1  14
ATOM     14  C   UNL     1      45.050   7.449  11.110  0.00  0.00    +0.000 C 
BRANCH  14  18
ATOM     15  F   UNL     1      49.715   7.982  12.471  0.00  0.00    +0.000 F 
ATOM     16  C   UNL     1      48.543   7.353  12.615  0.00  0.00    +0.000 A 
ATOM     17  C   UNL     1      47.459   7.736  11.832  0.00  0.00    +0.000 A 
ATOM     18  C   UNL     1      46.235   7.076  11.967  0.00  0.00    +0.000 A 
ATOM     19  C   UNL     1      46.117   6.044  12.913  0.00  0.00    +0.000 A 
ATOM     20  C   UNL     1      47.210   5.654  13.704  0.00  0.00    +0.000 A 
ATOM     21  C   UNL     1      48.432   6.322  13.543  0.00  0.00    +0.000 A 
BRANCH  20  22
ATOM     22  C   UNL     1      47.089   4.531  14.703  0.00  0.00    +0.000 C 
ATOM     23  F   UNL     1      45.850   4.431  15.261  0.00  0.00    +0.000 F 
ATOM     24  F   UNL     1      47.348   3.315  14.151  0.00  0.00    +0.000 F 
ATOM     25  F   UNL     1      47.956   4.664  15.744  0.00  0.00    +0.000 F 
ENDBRANCH  20  22
ENDBRANCH  14  18
ENDBRANCH   1  14
TORSDOF 5
ENDMDL
MODEL 5
REMARK VINA RESULT:    -6.947      3.077      4.405
REMARK INTER + INTRA:         -10.153
REMARK INTER:                  -9.290
REMARK INTRA:                  -0.863
REMARK UNBOUND:                -1.175
REMARK  Name = 
REMARK  5 active torsions:
REMARK  status: ('A' for Active; 'I' for Inactive)
REMARK    1  A    between atoms: C_4  and  C_5
REMARK    2  A    between atoms: C_5  and  C_6
REMARK    3  A    between atoms: C_6  and  C_7
REMARK    4  A    between atoms: C_11  and  C_12
REMARK    5  A    between atoms: C_20  and  C_21
REMARK                            x       y       z     vdW  Elec       q    Type
REMARK                         _______ _______ _______ _____ _____    ______ ____
ROOT
ATOM      1  C   UNL     1      46.511   6.764  12.390  0.00  0.00    +0.000 C 
ENDROOT
BRANCH   1   2
ATOM      2  C   UNL     1      47.443   7.918  12.078  0.00  0.00    +0.000 A 
ATOM      3  C   UNL     1      47.061   9.257  12.203  0.00  0.00    +0.000 A 
ATOM      4  C   UNL     1      47.972  10.282  11.955  0.00  0.00    +0.000 A 
ATOM      5  C   UNL     1      49.288   9.981  11.603  0.00  0.00    +0.000 A 
ATOM      6  C   UNL     1      49.731   8.652  11.507  0.00  0.00    +0.000 A 
ATOM      7  C   UNL     1      48.781   7.636  11.740  0.00  0.00    +0.000 A 
BRANCH   6   8
ATOM      8  C   UNL     1      51.145   8.330  11.221  0.00  0.00    +0.000 A 
ATOM      9  C   UNL     1      51.524   7.319  10.327  0.00  0.00    +0.000 A 
ATOM     10  C   UNL     1      52.871   7.019  10.119  0.00  0.00    +0.000 A 
ATOM     11  C   UNL     1      53.821   7.753  10.806  0.00  0.00    +0.000 A 
ATOM     12  N   UNL     1      53.516   8.742  11.667  0.00  0.00    +0.000 NA
ATOM     13  C   UNL     1      52.197   8.999  11.853  0.00  0.00    +0.000 A 
ENDBRANCH   6   8
ENDBRANCH   1   2
BRANCH   1  14
ATOM     14  C   UNL     1      45.176   6.767  11.634  0.00  0.00    +0.000 C 
BRANCH  14  18
ATOM     15  F   UNL     1      42.906   2.438  11.578  0.00  0.00    +0.000 F 
ATOM     16  C   UNL     1      43.744   3.302  10.992  0.00  0.00    +0.000 A 
ATOM     17  C   UNL     1      43.987   4.533  11.591  0.00  0.00    +0.000 A 
ATOM     18  C   UNL     1      44.871   5.436  10.992  0.00  0.00    +0.000 A 
ATOM     19  C   UNL     1      45.486   5.085   9.779  0.00  0.00    +0.000 A 
ATOM     20  C   UNL     1      45.245   3.841   9.174  0.00  0.00    +0.000 A 
ATOM     21  C   UNL     1      44.363   2.947   9.798  0.00  0.00    +0.000 A 
BRANCH  20  22
ATOM     22  C   UNL     1      45.923   3.457   7.883  0.00  0.00    +0.000 C 
ATOM     23  F   UNL     1      45.061   3.321   6.836  0.00  0.00    +0.000 F 
ATOM     24  F   UNL     1      46.846   4.376   7.488  0.00  0.00    +0.000 F 
ATOM     25  F   UNL     1      46.586   2.272   7.975  0.00  0.00    +0.000 F 
ENDBRANCH  20  22
ENDBRANCH  14  18
ENDBRANCH   1  14
TORSDOF 5
ENDMDL
MODEL 6
REMARK VINA RESULT:    -6.726      4.633      8.188
REMARK INTER + INTRA:          -9.867
REMARK INTER:                  -9.104
REMARK INTRA:                  -0.763
REMARK UNBOUND:                -1.175
REMARK  Name = 
REMARK  5 active torsions:
REMARK  status: ('A' for Active; 'I' for Inactive)
REMARK    1  A    between atoms: C_4  and  C_5
REMARK    2  A    between atoms: C_5  and  C_6
REMARK    3  A    between atoms: C_6  and  C_7
REMARK    4  A    between atoms: C_11  and  C_12
REMARK    5  A    between atoms: C_20  and  C_21
REMARK                            x       y       z     vdW  Elec       q    Type
REMARK                         _______ _______ _______ _____ _____    ______ ____
ROOT
ATOM      1  C   UNL     1      45.730   4.778  13.962  0.00  0.00    +0.000 C 
ENDROOT
BRANCH   1   2
ATOM      2  C   UNL     1      44.887   4.687  12.706  0.00  0.00    +0.000 A 
ATOM      3  C   UNL     1      43.604   5.237  12.612  0.00  0.00    +0.000 A 
ATOM      4  C   UNL     1      42.890   5.172  11.417  0.00  0.00    +0.000 A 
ATOM      5  C   UNL     1      43.459   4.580  10.290  0.00  0.00    +0.000 A 
ATOM      6  C   UNL     1      44.760   4.052  10.323  0.00  0.00    +0.000 A 
ATOM      7  C   UNL     1      45.450   4.110  11.552  0.00  0.00    +0.000 A 
BRANCH   6   8
ATOM      8  C   UNL     1      45.399   3.503   9.109  0.00  0.00    +0.000 A 
ATOM      9  C   UNL     1      45.642   2.133   8.936  0.00  0.00    +0.000 A 
ATOM     10  C   UNL     1      46.287   1.661   7.793  0.00  0.00    +0.000 A 
ATOM     11  C   UNL     1      46.668   2.578   6.829  0.00  0.00    +0.000 A 
ATOM     12  N   UNL     1      46.451   3.902   6.935  0.00  0.00    +0.000 NA
ATOM     13  C   UNL     1      45.831   4.326   8.065  0.00  0.00    +0.000 A 
ENDBRANCH   6   8
ENDBRANCH   1   2
BRANCH   1  14
ATOM     14  C   UNL     1      47.009   5.617  13.843  0.00  0.00    +0.000 C 
BRANCH  14  18
ATOM     15  F   UNL     1      50.405   7.501  16.811  0.00  0.00    +0.000 F 
ATOM     16  C   UNL     1      49.534   6.522  16.540  0.00  0.00    +0.000 A 
ATOM     17  C   UNL     1      48.752   6.599  15.393  0.00  0.00    +0.000 A 
ATOM     18  C   UNL     1      47.848   5.574  15.096  0.00  0.00    +0.000 A 
ATOM     19  C   UNL     1      47.734   4.489  15.980  0.00  0.00    +0.000 A 
ATOM     20  C   UNL     1      48.525   4.407  17.138  0.00  0.00    +0.000 A 
ATOM     21  C   UNL     1      49.432   5.440  17.410  0.00  0.00    +0.000 A 
BRANCH  20  22
ATOM     22  C   UNL     1      48.417   3.230  18.074  0.00  0.00    +0.000 C 
ATOM     23  F   UNL     1      47.260   2.524  17.931  0.00  0.00    +0.000 F 
ATOM     24  F   UNL     1      49.424   2.332  17.897  0.00  0.00    +0.000 F 
ATOM     25  F   UNL     1      48.468   3.599  19.383  0.00  0.00    +0.000 F 
ENDBRANCH  20  22
ENDBRANCH  14  18
ENDBRANCH   1  14
TORSDOF 5
ENDMDL
MODEL 7
REMARK VINA RESULT:    -6.639      3.799      7.116
REMARK INTER + INTRA:          -9.755
REMARK INTER:                  -8.493
REMARK INTRA:                  -1.262
REMARK UNBOUND:                -1.175
REMARK  Name = 
REMARK  5 active torsions:
REMARK  status: ('A' for Active; 'I' for Inactive)
REMARK    1  A    between atoms: C_4  and  C_5
REMARK    2  A    between atoms: C_5  and  C_6
REMARK    3  A    between atoms: C_6  and  C_7
REMARK    4  A    between atoms: C_11  and  C_12
REMARK    5  A    between atoms: C_20  and  C_21
REMARK                            x       y       z     vdW  Elec       q    Type
REMARK                         _______ _______ _______ _____ _____    ______ ____
ROOT
ATOM      1  C   UNL     1      49.202   7.134  13.975  0.00  0.00    +0.000 C 
ENDROOT
BRANCH   1   2
ATOM      2  C   UNL     1      47.766   7.335  13.537  0.00  0.00    +0.000 A 
ATOM      3  C   UNL     1      47.158   8.593  13.479  0.00  0.00    +0.000 A 
ATOM      4  C   UNL     1      45.850   8.730  13.019  0.00  0.00    +0.000 A 
ATOM      5  C   UNL     1      45.139   7.612  12.584  0.00  0.00    +0.000 A 
ATOM      6  C   UNL     1      45.720   6.334  12.582  0.00  0.00    +0.000 A 
ATOM      7  C   UNL     1      47.036   6.222  13.075  0.00  0.00    +0.000 A 
BRANCH   6   8
ATOM      8  C   UNL     1      45.001   5.161  12.040  0.00  0.00    +0.000 A 
ATOM      9  C   UNL     1      44.321   4.247  12.858  0.00  0.00    +0.000 A 
ATOM     10  C   UNL     1      43.691   3.130  12.309  0.00  0.00    +0.000 A 
ATOM     11  C   UNL     1      43.743   2.955  10.937  0.00  0.00    +0.000 A 
ATOM     12  N   UNL     1      44.370   3.805  10.103  0.00  0.00    +0.000 NA
ATOM     13  C   UNL     1      44.981   4.874  10.672  0.00  0.00    +0.000 A 
ENDBRANCH   6   8
ENDBRANCH   1   2
BRANCH   1  14
ATOM     14  C   UNL     1      49.536   7.614  15.392  0.00  0.00    +0.000 C 
BRANCH  14  18
ATOM     15  F   UNL     1      47.532   7.046  19.815  0.00  0.00    +0.000 F 
ATOM     16  C   UNL     1      47.913   6.508  18.650  0.00  0.00    +0.000 A 
ATOM     17  C   UNL     1      48.479   7.320  17.673  0.00  0.00    +0.000 A 
ATOM     18  C   UNL     1      48.892   6.763  16.459  0.00  0.00    +0.000 A 
ATOM     19  C   UNL     1      48.707   5.388  16.242  0.00  0.00    +0.000 A 
ATOM     20  C   UNL     1      48.139   4.565  17.228  0.00  0.00    +0.000 A 
ATOM     21  C   UNL     1      47.742   5.142  18.442  0.00  0.00    +0.000 A 
BRANCH  20  22
ATOM     22  C   UNL     1      47.962   3.085  17.002  0.00  0.00    +0.000 C 
ATOM     23  F   UNL     1      46.875   2.564  17.639  0.00  0.00    +0.000 F 
ATOM     24  F   UNL     1      47.805   2.776  15.686  0.00  0.00    +0.000 F 
ATOM     25  F   UNL     1      49.029   2.360  17.434  0.00  0.00    +0.000 F 
ENDBRANCH  20  22
ENDBRANCH  14  18
ENDBRANCH   1  14
TORSDOF 5
ENDMDL
MODEL 8
REMARK VINA RESULT:    -6.626      4.259      6.489
REMARK INTER + INTRA:          -9.738
REMARK INTER:                  -8.524
REMARK INTRA:                  -1.214
REMARK UNBOUND:                -1.175
REMARK  Name = 
REMARK  5 active torsions:
REMARK  status: ('A' for Active; 'I' for Inactive)
REMARK    1  A    between atoms: C_4  and  C_5
REMARK    2  A    between atoms: C_5  and  C_6
REMARK    3  A    between atoms: C_6  and  C_7
REMARK    4  A    between atoms: C_11  and  C_12
REMARK    5  A    between atoms: C_20  and  C_21
REMARK                            x       y       z     vdW  Elec       q    Type
REMARK                         _______ _______ _______ _____ _____    ______ ____
ROOT
ATOM      1  C   UNL     1      46.141   8.675  12.998  0.00  0.00    +0.000 C 
ENDROOT
BRANCH   1   2
ATOM      2  C   UNL     1      45.750   9.859  12.136  0.00  0.00    +0.000 A 
ATOM      3  C   UNL     1      46.689  10.721  11.560  0.00  0.00    +0.000 A 
ATOM      4  C   UNL     1      46.280  11.765  10.732  0.00  0.00    +0.000 A 
ATOM      5  C   UNL     1      44.927  11.945  10.447  0.00  0.00    +0.000 A 
ATOM      6  C   UNL     1      43.951  11.080  10.967  0.00  0.00    +0.000 A 
ATOM      7  C   UNL     1      44.391  10.048  11.820  0.00  0.00    +0.000 A 
BRANCH   6   8
ATOM      8  C   UNL     1      42.526  11.215  10.596  0.00  0.00    +0.000 A 
ATOM      9  C   UNL     1      41.517  10.435  11.178  0.00  0.00    +0.000 A 
ATOM     10  C   UNL     1      40.190  10.564  10.767  0.00  0.00    +0.000 A 
ATOM     11  C   UNL     1      39.894  11.491   9.783  0.00  0.00    +0.000 A 
ATOM     12  N   UNL     1      40.819  12.275   9.198  0.00  0.00    +0.000 NA
ATOM     13  C   UNL     1      42.100  12.114   9.614  0.00  0.00    +0.000 A 
ENDBRANCH   6   8
ENDBRANCH   1   2
BRANCH   1  14
ATOM     14  C   UNL     1      46.748   7.482  12.249  0.00  0.00    +0.000 C 
BRANCH  14  18
ATOM     15  F   UNL     1      42.456   5.188  12.709  0.00  0.00    +0.000 F 
ATOM     16  C   UNL     1      43.582   5.387  12.013  0.00  0.00    +0.000 A 
ATOM     17  C   UNL     1      44.517   6.307  12.472  0.00  0.00    +0.000 A 
ATOM     18  C   UNL     1      45.701   6.512  11.758  0.00  0.00    +0.000 A 
ATOM     19  C   UNL     1      45.915   5.792  10.571  0.00  0.00    +0.000 A 
ATOM     20  C   UNL     1      44.973   4.860  10.106  0.00  0.00    +0.000 A 
ATOM     21  C   UNL     1      43.798   4.663  10.844  0.00  0.00    +0.000 A 
BRANCH  20  22
ATOM     22  C   UNL     1      45.213   4.072   8.843  0.00  0.00    +0.000 C 
ATOM     23  F   UNL     1      44.148   4.069   7.993  0.00  0.00    +0.000 F 
ATOM     24  F   UNL     1      46.262   4.553   8.122  0.00  0.00    +0.000 F 
ATOM     25  F   UNL     1      45.494   2.764   9.091  0.00  0.00    +0.000 F 
ENDBRANCH  20  22
ENDBRANCH  14  18
ENDBRANCH   1  14
TORSDOF 5
ENDMDL
MODEL 9
REMARK VINA RESULT:    -6.622      4.342      7.545
REMARK INTER + INTRA:          -9.733
REMARK INTER:                  -8.723
REMARK INTRA:                  -1.010
REMARK UNBOUND:                -1.175
REMARK  Name = 
REMARK  5 active torsions:
REMARK  status: ('A' for Active; 'I' for Inactive)
REMARK    1  A    between atoms: C_4  and  C_5
REMARK    2  A    between atoms: C_5  and  C_6
REMARK    3  A    between atoms: C_6  and  C_7
REMARK    4  A    between atoms: C_11  and  C_12
REMARK    5  A    between atoms: C_20  and  C_21
REMARK                            x       y       z     vdW  Elec       q    Type
REMARK                         _______ _______ _______ _____ _____    ______ ____
ROOT
ATOM      1  C   UNL     1      44.493   5.638  12.724  0.00  0.00    +0.000 C 
ENDROOT
BRANCH   1   2
ATOM      2  C   UNL     1      44.340   4.349  11.942  0.00  0.00    +0.000 A 
ATOM      3  C   UNL     1      43.430   3.348  12.299  0.00  0.00    +0.000 A 
ATOM      4  C   UNL     1      43.290   2.204  11.516  0.00  0.00    +0.000 A 
ATOM      5  C   UNL     1      44.039   2.056  10.349  0.00  0.00    +0.000 A 
ATOM      6  C   UNL     1      44.934   3.052   9.926  0.00  0.00    +0.000 A 
ATOM      7  C   UNL     1      45.072   4.188  10.750  0.00  0.00    +0.000 A 
BRANCH   6   8
ATOM      8  C   UNL     1      45.664   2.939   8.645  0.00  0.00    +0.000 A 
ATOM      9  C   UNL     1      46.236   1.736   8.206  0.00  0.00    +0.000 A 
ATOM     10  C   UNL     1      46.954   1.683   7.011  0.00  0.00    +0.000 A 
ATOM     11  C   UNL     1      47.075   2.842   6.266  0.00  0.00    +0.000 A 
ATOM     12  N   UNL     1      46.538   4.021   6.632  0.00  0.00    +0.000 NA
ATOM     13  C   UNL     1      45.856   4.038   7.804  0.00  0.00    +0.000 A 
ENDBRANCH   6   8
ENDBRANCH   1   2
BRANCH   1  14
ATOM     14  C   UNL     1      45.916   6.206  12.794  0.00  0.00    +0.000 C 
BRANCH  14  18
ATOM     15  F   UNL     1      48.250  10.493  12.529  0.00  0.00    +0.000 F 
ATOM     16  C   UNL     1      47.150   9.769  12.291  0.00  0.00    +0.000 A 
ATOM     17  C   UNL     1      47.128   8.422  12.636  0.00  0.00    +0.000 A 
ATOM     18  C   UNL     1      45.979   7.662  12.402  0.00  0.00    +0.000 A 
ATOM     19  C   UNL     1      44.867   8.275  11.801  0.00  0.00    +0.000 A 
ATOM     20  C   UNL     1      44.885   9.635  11.454  0.00  0.00    +0.000 A 
ATOM     21  C   UNL     1      46.044  10.381  11.708  0.00  0.00    +0.000 A 
BRANCH  20  22
ATOM     22  C   UNL     1      43.683  10.297  10.830  0.00  0.00    +0.000 C 
ATOM     23  F   UNL     1      42.749   9.414  10.377  0.00  0.00    +0.000 F 
ATOM     24  F   UNL     1      43.029  11.114  11.700  0.00  0.00    +0.000 F 
ATOM     25  F   UNL     1      44.011  11.072   9.760  0.00  0.00    +0.000 F 
ENDBRANCH  20  22
ENDBRANCH  14  18
ENDBRANCH   1  14
TORSDOF 5
ENDMDL
