MODEL 1
REMARK VINA RESULT:    -8.368      0.000      0.000
REMARK INTER + INTRA:         -12.683
REMARK INTER:                 -11.792
REMARK INTRA:                  -0.890
REMARK UNBOUND:                -0.890
REMARK  Name = 
REMARK  7 active torsions:
REMARK  status: ('A' for Active; 'I' for Inactive)
REMARK    1  A    between atoms: C_2  and  C_4
REMARK    2  A    between atoms: C_7  and  C_8
REMARK    3  A    between atoms: C_8  and  C_9
REMARK    4  A    between atoms: C_9  and  N_10
REMARK    5  A    between atoms: N_10  and  C_11
REMARK    6  A    between atoms: C_15  and  O_16
REMARK    7  A    between atoms: O_16  and  C_17
REMARK                            x       y       z     vdW  Elec       q    Type
REMARK                         _______ _______ _______ _____ _____    ______ ____
ROOT
ATOM      1  N   UNL     1      43.491   5.255  12.670  0.00  0.00    +0.000 N 
ATOM      2  H   UNL     1      42.948   5.128  13.522  0.00  0.00    +0.000 HD
ENDROOT
BRANCH   1   3
ATOM      3  C   UNL     1      44.834   5.558  12.921  0.00  0.00    +0.000 A 
ATOM      4  C   UNL     1      45.397   6.681  12.296  0.00  0.00    +0.000 A 
ATOM      5  C   UNL     1      46.762   6.954  12.405  0.00  0.00    +0.000 A 
ATOM      6  C   UNL     1      47.584   6.120  13.158  0.00  0.00    +0.000 A 
ATOM      7  C   UNL     1      47.039   5.033  13.845  0.00  0.00    +0.000 A 
ATOM      8  C   UNL     1      45.683   4.732  13.669  0.00  0.00    +0.000 A 
BRANCH   7   9
ATOM      9  O   UNL     1      47.719   4.230  14.729  0.00  0.00    +0.000 OA
BRANCH   9  10
ATOM     10  C   UNL     1      47.432   4.451  16.120  0.00  0.00    +0.000 C 
ATOM     11  C   UNL     1      48.484   5.355  16.746  0.00  0.00    +0.000 C 
ATOM     12  C   UNL     1      49.468   4.419  17.418  0.00  0.00    +0.000 C 
ATOM     13  N   UNL     1      48.732   3.212  17.787  0.00  0.00    +0.000 NA
ATOM     14  C   UNL     1      47.515   3.169  16.964  0.00  0.00    +0.000 C 
ATOM     15  H   UNL     1      48.475   3.240  18.772  0.00  0.00    +0.000 HD
ENDBRANCH   9  10
ENDBRANCH   7   9
ENDBRANCH   1   3
BRANCH   1  16
ATOM     16  C   UNL     1      43.185   4.270  11.633  0.00  0.00    +0.000 C 
BRANCH  16  17
ATOM     17  C   UNL     1      43.603   4.757  10.238  0.00  0.00    +0.000 C 
BRANCH  17  21
ATOM     18  C   UNL     1      46.312   2.326   7.886  0.00  0.00    +0.000 A 
ATOM     19  C   UNL     1      45.430   1.708   8.775  0.00  0.00    +0.000 A 
ATOM     20  C   UNL     1      44.556   2.480   9.546  0.00  0.00    +0.000 A 
ATOM     21  C   UNL     1      44.560   3.881   9.454  0.00  0.00    +0.000 A 
ATOM     22  C   UNL     1      45.447   4.491   8.555  0.00  0.00    +0.000 A 
ATOM     23  C   UNL     1      46.326   3.721   7.787  0.00  0.00    +0.000 A 
BRANCH  18  25
ATOM     24  N   UNL     1      48.372   2.190   6.590  0.00  0.00    +0.000 N 
ATOM     25  C   UNL     1      47.256   1.545   7.049  0.00  0.00    +0.000 C 
ATOM     26  O   UNL     1      47.075   0.355   6.811  0.00  0.00    +0.000 OA
ATOM     27  H   UNL     1      49.059   1.616   6.120  0.00  0.00    +0.000 HD
ATOM     28  H   UNL     1      48.677   3.073   6.972  0.00  0.00    +0.000 HD
ENDBRANCH  18  25
ENDBRANCH  17  21
ENDBRANCH  16  17
ENDBRANCH   1  16
TORSDOF 7
ENDMDL
MODEL 2
REMARK VINA RESULT:    -7.704      1.422      1.629
REMARK INTER + INTRA:         -11.746
REMARK INTER:                 -10.736
REMARK INTRA:                  -1.011
REMARK UNBOUND:                -0.890
REMARK  Name = 
REMARK  7 active torsions:
REMARK  status: ('A' for Active; 'I' for Inactive)
REMARK    1  A    between atoms: C_2  and  C_4
REMARK    2  A    between atoms: C_7  and  C_8
REMARK    3  A    between atoms: C_8  and  C_9
REMARK    4  A    between atoms: C_9  and  N_10
REMARK    5  A    between atoms: N_10  and  C_11
REMARK    6  A    between atoms: C_15  and  O_16
REMARK    7  A    between atoms: O_16  and  C_17
REMARK                            x       y       z     vdW  Elec       q    Type
REMARK                         _______ _______ _______ _____ _____    ______ ____
ROOT
ATOM      1  N   UNL     1      43.758   4.495  12.979  0.00  0.00    +0.000 N 
ATOM      2  H   UNL     1      43.476   4.338  13.944  0.00  0.00    +0.000 HD
ENDROOT
BRANCH   1   3
ATOM      3  C   UNL     1      44.851   5.362  12.865  0.00  0.00    +0.000 A 
ATOM      4  C   UNL     1      44.736   6.482  12.027  0.00  0.00    +0.000 A 
ATOM      5  C   UNL     1      45.835   7.305  11.775  0.00  0.00    +0.000 A 
ATOM      6  C   UNL     1      47.063   7.036  12.372  0.00  0.00    +0.000 A 
ATOM      7  C   UNL     1      47.189   5.968  13.263  0.00  0.00    +0.000 A 
ATOM      8  C   UNL     1      46.098   5.110  13.451  0.00  0.00    +0.000 A 
BRANCH   7   9
ATOM      9  O   UNL     1      48.303   5.691  14.019  0.00  0.00    +0.000 OA
BRANCH   9  10
ATOM     10  C   UNL     1      48.382   6.370  15.283  0.00  0.00    +0.000 C 
ATOM     11  C   UNL     1      49.384   7.514  15.215  0.00  0.00    +0.000 C 
ATOM     12  C   UNL     1      50.671   6.953  15.787  0.00  0.00    +0.000 C 
ATOM     13  N   UNL     1      50.300   5.906  16.735  0.00  0.00    +0.000 NA
ATOM     14  C   UNL     1      48.931   5.483  16.412  0.00  0.00    +0.000 C 
ATOM     15  H   UNL     1      50.329   6.262  17.688  0.00  0.00    +0.000 HD
ENDBRANCH   9  10
ENDBRANCH   7   9
ENDBRANCH   1   3
BRANCH   1  16
ATOM     16  C   UNL     1      43.752   3.280  12.165  0.00  0.00    +0.000 C 
BRANCH  16  17
ATOM     17  C   UNL     1      43.425   3.575  10.694  0.00  0.00    +0.000 C 
BRANCH  17  21
ATOM     18  C   UNL     1      46.371   2.626   7.661  0.00  0.00    +0.000 A 
ATOM     19  C   UNL     1      45.749   1.591   8.362  0.00  0.00    +0.000 A 
ATOM     20  C   UNL     1      44.803   1.883   9.349  0.00  0.00    +0.000 A 
ATOM     21  C   UNL     1      44.474   3.212   9.662  0.00  0.00    +0.000 A 
ATOM     22  C   UNL     1      45.103   4.243   8.949  0.00  0.00    +0.000 A 
ATOM     23  C   UNL     1      46.053   3.954   7.966  0.00  0.00    +0.000 A 
BRANCH  18  25
ATOM     24  N   UNL     1      47.235   3.021   5.416  0.00  0.00    +0.000 N 
ATOM     25  C   UNL     1      47.380   2.362   6.606  0.00  0.00    +0.000 C 
ATOM     26  O   UNL     1      48.337   1.618   6.800  0.00  0.00    +0.000 OA
ATOM     27  H   UNL     1      47.991   2.918   4.753  0.00  0.00    +0.000 HD
ATOM     28  H   UNL     1      46.624   3.817   5.314  0.00  0.00    +0.000 HD
ENDBRANCH  18  25
ENDBRANCH  17  21
ENDBRANCH  16  17
ENDBRANCH   1  16
TORSDOF 7
ENDMDL
MODEL 3
REMARK VINA RESULT:    -6.936      2.556      3.427
REMARK INTER + INTRA:         -10.664
REMARK INTER:                 -10.110
REMARK INTRA:                  -0.554
REMARK UNBOUND:                -0.890
REMARK  Name = 
REMARK  7 active torsions:
REMARK  status: ('A' for Active; 'I' for Inactive)
REMARK    1  A    between atoms: C_2  and  C_4
REMARK    2  A    between atoms: C_7  and  C_8
REMARK    3  A    between atoms: C_8  and  C_9
REMARK    4  A    between atoms: C_9  and  N_10
REMARK    5  A    between atoms: N_10  and  C_11
REMARK    6  A    between atoms: C_15  and  O_16
REMARK    7  A    between atoms: O_16  and  C_17
REMARK                            x       y       z     vdW  Elec       q    Type
REMARK                         _______ _______ _______ _____ _____    ______ ____
ROOT
ATOM      1  N   UNL     1      45.321   3.666  12.275  0.00  0.00    +0.000 N 
ATOM      2  H   UNL     1      45.962   3.267  11.592  0.00  0.00    +0.000 HD
ENDROOT
BRANCH   1   3
ATOM      3  C   UNL     1      45.513   5.039  12.464  0.00  0.00    +0.000 A 
ATOM      4  C   UNL     1      44.527   5.925  12.003  0.00  0.00    +0.000 A 
ATOM      5  C   UNL     1      44.727   7.306  12.047  0.00  0.00    +0.000 A 
ATOM      6  C   UNL     1      45.907   7.827  12.570  0.00  0.00    +0.000 A 
ATOM      7  C   UNL     1      46.877   6.971  13.096  0.00  0.00    +0.000 A 
ATOM      8  C   UNL     1      46.694   5.588  12.981  0.00  0.00    +0.000 A 
BRANCH   7   9
ATOM      9  O   UNL     1      48.010   7.370  13.765  0.00  0.00    +0.000 OA
BRANCH   9  10
ATOM     10  C   UNL     1      49.244   7.216  13.045  0.00  0.00    +0.000 C 
ATOM     11  C   UNL     1      50.364   7.984  13.733  0.00  0.00    +0.000 C 
ATOM     12  C   UNL     1      50.458   9.303  12.992  0.00  0.00    +0.000 C 
ATOM     13  N   UNL     1      50.002   9.063  11.625  0.00  0.00    +0.000 NA
ATOM     14  C   UNL     1      49.203   7.830  11.637  0.00  0.00    +0.000 C 
ATOM     15  H   UNL     1      50.798   8.947  11.001  0.00  0.00    +0.000 HD
ENDBRANCH   9  10
ENDBRANCH   7   9
ENDBRANCH   1   3
BRANCH   1  16
ATOM     16  C   UNL     1      43.950   3.170  12.147  0.00  0.00    +0.000 C 
BRANCH  16  17
ATOM     17  C   UNL     1      43.431   3.284  10.707  0.00  0.00    +0.000 C 
BRANCH  17  21
ATOM     18  C   UNL     1      46.364   2.609   7.590  0.00  0.00    +0.000 A 
ATOM     19  C   UNL     1      45.877   3.899   7.807  0.00  0.00    +0.000 A 
ATOM     20  C   UNL     1      44.924   4.131   8.804  0.00  0.00    +0.000 A 
ATOM     21  C   UNL     1      44.431   3.076   9.588  0.00  0.00    +0.000 A 
ATOM     22  C   UNL     1      44.930   1.784   9.363  0.00  0.00    +0.000 A 
ATOM     23  C   UNL     1      45.878   1.549   8.363  0.00  0.00    +0.000 A 
BRANCH  18  25
ATOM     24  N   UNL     1      47.400   3.139   5.449  0.00  0.00    +0.000 N 
ATOM     25  C   UNL     1      47.374   2.319   6.543  0.00  0.00    +0.000 C 
ATOM     26  O   UNL     1      48.189   1.409   6.666  0.00  0.00    +0.000 OA
ATOM     27  H   UNL     1      48.165   2.999   4.802  0.00  0.00    +0.000 HD
ATOM     28  H   UNL     1      46.929   4.032   5.435  0.00  0.00    +0.000 HD
ENDBRANCH  18  25
ENDBRANCH  17  21
ENDBRANCH  16  17
ENDBRANCH   1  16
TORSDOF 7
ENDMDL
MODEL 4
REMARK VINA RESULT:    -6.882      1.798      7.529
REMARK INTER + INTRA:         -10.589
REMARK INTER:                  -9.871
REMARK INTRA:                  -0.718
REMARK UNBOUND:                -0.890
REMARK  Name = 
REMARK  7 active torsions:
REMARK  status: ('A' for Active; 'I' for Inactive)
REMARK    1  A    between atoms: C_2  and  C_4
REMARK    2  A    between atoms: C_7  and  C_8
REMARK    3  A    between atoms: C_8  and  C_9
REMARK    4  A    between atoms: C_9  and  N_10
REMARK    5  A    between atoms: N_10  and  C_11
REMARK    6  A    between atoms: C_15  and  O_16
REMARK    7  A    between atoms: O_16  and  C_17
REMARK                            x       y       z     vdW  Elec       q    Type
REMARK                         _______ _______ _______ _____ _____    ______ ____
ROOT
ATOM      1  N   UNL     1      46.016   7.291  11.705  0.00  0.00    +0.000 N 
ATOM      2  H   UNL     1      45.869   8.104  11.109  0.00  0.00    +0.000 HD
ENDROOT
BRANCH   1   3
ATOM      3  C   UNL     1      45.117   6.252  11.438  0.00  0.00    +0.000 A 
ATOM      4  C   UNL     1      43.750   6.471  11.669  0.00  0.00    +0.000 A 
ATOM      5  C   UNL     1      42.826   5.432  11.546  0.00  0.00    +0.000 A 
ATOM      6  C   UNL     1      43.249   4.159  11.172  0.00  0.00    +0.000 A 
ATOM      7  C   UNL     1      44.593   3.929  10.871  0.00  0.00    +0.000 A 
ATOM      8  C   UNL     1      45.518   4.962  11.067  0.00  0.00    +0.000 A 
BRANCH   7   9
ATOM      9  O   UNL     1      45.103   2.761  10.356  0.00  0.00    +0.000 OA
BRANCH   9  10
ATOM     10  C   UNL     1      44.769   2.487   8.985  0.00  0.00    +0.000 C 
ATOM     11  C   UNL     1      45.829   1.604   8.343  0.00  0.00    +0.000 C 
ATOM     12  C   UNL     1      46.749   2.555   7.605  0.00  0.00    +0.000 C 
ATOM     13  N   UNL     1      45.953   3.721   7.231  0.00  0.00    +0.000 NA
ATOM     14  C   UNL     1      44.770   3.745   8.101  0.00  0.00    +0.000 C 
ATOM     15  H   UNL     1      45.659   3.655   6.259  0.00  0.00    +0.000 HD
ENDBRANCH   9  10
ENDBRANCH   7   9
ENDBRANCH   1   3
BRANCH   1  16
ATOM     16  C   UNL     1      47.427   6.953  11.892  0.00  0.00    +0.000 C 
BRANCH  16  17
ATOM     17  C   UNL     1      47.921   7.314  13.300  0.00  0.00    +0.000 C 
BRANCH  17  21
ATOM     18  C   UNL     1      47.760   4.265  16.374  0.00  0.00    +0.000 A 
ATOM     19  C   UNL     1      47.044   4.084  15.189  0.00  0.00    +0.000 A 
ATOM     20  C   UNL     1      47.080   5.064  14.192  0.00  0.00    +0.000 A 
ATOM     21  C   UNL     1      47.818   6.245  14.369  0.00  0.00    +0.000 A 
ATOM     22  C   UNL     1      48.537   6.414  15.562  0.00  0.00    +0.000 A 
ATOM     23  C   UNL     1      48.497   5.439  16.562  0.00  0.00    +0.000 A 
BRANCH  18  25
ATOM     24  N   UNL     1      48.882   3.127  18.214  0.00  0.00    +0.000 N 
ATOM     25  C   UNL     1      47.749   3.252  17.458  0.00  0.00    +0.000 C 
ATOM     26  O   UNL     1      46.752   2.580  17.703  0.00  0.00    +0.000 OA
ATOM     27  H   UNL     1      48.818   2.516  19.018  0.00  0.00    +0.000 HD
ATOM     28  H   UNL     1      49.611   3.824  18.209  0.00  0.00    +0.000 HD
ENDBRANCH  18  25
ENDBRANCH  17  21
ENDBRANCH  16  17
ENDBRANCH   1  16
TORSDOF 7
ENDMDL
MODEL 5
REMARK VINA RESULT:    -6.842      2.198      2.866
REMARK INTER + INTRA:         -10.532
REMARK INTER:                 -10.399
REMARK INTRA:                  -0.134
REMARK UNBOUND:                -0.890
REMARK  Name = 
REMARK  7 active torsions:
REMARK  status: ('A' for Active; 'I' for Inactive)
REMARK    1  A    between atoms: C_2  and  C_4
REMARK    2  A    between atoms: C_7  and  C_8
REMARK    3  A    between atoms: C_8  and  C_9
REMARK    4  A    between atoms: C_9  and  N_10
REMARK    5  A    between atoms: N_10  and  C_11
REMARK    6  A    between atoms: C_15  and  O_16
REMARK    7  A    between atoms: O_16  and  C_17
REMARK                            x       y       z     vdW  Elec       q    Type
REMARK                         _______ _______ _______ _____ _____    ______ ____
ROOT
ATOM      1  N   UNL     1      45.389   5.957  11.254  0.00  0.00    +0.000 N 
ATOM      2  H   UNL     1      45.365   6.900  10.871  0.00  0.00    +0.000 HD
ENDROOT
BRANCH   1   3
ATOM      3  C   UNL     1      46.307   5.819  12.302  0.00  0.00    +0.000 A 
ATOM      4  C   UNL     1      46.053   4.862  13.295  0.00  0.00    +0.000 A 
ATOM      5  C   UNL     1      46.863   4.771  14.429  0.00  0.00    +0.000 A 
ATOM      6  C   UNL     1      47.953   5.623  14.580  0.00  0.00    +0.000 A 
ATOM      7  C   UNL     1      48.269   6.541  13.575  0.00  0.00    +0.000 A 
ATOM      8  C   UNL     1      47.407   6.668  12.479  0.00  0.00    +0.000 A 
BRANCH   7   9
ATOM      9  O   UNL     1      49.394   7.329  13.545  0.00  0.00    +0.000 OA
BRANCH   9  10
ATOM     10  C   UNL     1      49.215   8.688  13.979  0.00  0.00    +0.000 C 
ATOM     11  C   UNL     1      49.996   8.948  15.259  0.00  0.00    +0.000 C 
ATOM     12  C   UNL     1      48.991   8.785  16.381  0.00  0.00    +0.000 C 
ATOM     13  N   UNL     1      47.679   9.123  15.836  0.00  0.00    +0.000 NA
ATOM     14  C   UNL     1      47.765   9.009  14.374  0.00  0.00    +0.000 C 
ATOM     15  H   UNL     1      47.424  10.076  16.089  0.00  0.00    +0.000 HD
ENDBRANCH   9  10
ENDBRANCH   7   9
ENDBRANCH   1   3
BRANCH   1  16
ATOM     16  C   UNL     1      44.064   5.359  11.412  0.00  0.00    +0.000 C 
BRANCH  16  17
ATOM     17  C   UNL     1      43.576   4.695  10.116  0.00  0.00    +0.000 C 
BRANCH  17  21
ATOM     18  C   UNL     1      46.417   2.415   7.770  0.00  0.00    +0.000 A 
ATOM     19  C   UNL     1      45.593   1.754   8.684  0.00  0.00    +0.000 A 
ATOM     20  C   UNL     1      44.678   2.478   9.454  0.00  0.00    +0.000 A 
ATOM     21  C   UNL     1      44.581   3.874   9.335  0.00  0.00    +0.000 A 
ATOM     22  C   UNL     1      45.411   4.527   8.411  0.00  0.00    +0.000 A 
ATOM     23  C   UNL     1      46.331   3.806   7.645  0.00  0.00    +0.000 A 
BRANCH  18  25
ATOM     24  N   UNL     1      48.446   2.405   6.420  0.00  0.00    +0.000 N 
ATOM     25  C   UNL     1      47.402   1.686   6.934  0.00  0.00    +0.000 C 
ATOM     26  O   UNL     1      47.318   0.477   6.744  0.00  0.00    +0.000 OA
ATOM     27  H   UNL     1      49.168   1.874   5.951  0.00  0.00    +0.000 HD
ATOM     28  H   UNL     1      48.685   3.325   6.761  0.00  0.00    +0.000 HD
ENDBRANCH  18  25
ENDBRANCH  17  21
ENDBRANCH  16  17
ENDBRANCH   1  16
TORSDOF 7
ENDMDL
MODEL 6
REMARK VINA RESULT:    -6.792      2.447      2.998
REMARK INTER + INTRA:         -10.462
REMARK INTER:                  -9.881
REMARK INTRA:                  -0.581
REMARK UNBOUND:                -0.890
REMARK  Name = 
REMARK  7 active torsions:
REMARK  status: ('A' for Active; 'I' for Inactive)
REMARK    1  A    between atoms: C_2  and  C_4
REMARK    2  A    between atoms: C_7  and  C_8
REMARK    3  A    between atoms: C_8  and  C_9
REMARK    4  A    between atoms: C_9  and  N_10
REMARK    5  A    between atoms: N_10  and  C_11
REMARK    6  A    between atoms: C_15  and  O_16
REMARK    7  A    between atoms: O_16  and  C_17
REMARK                            x       y       z     vdW  Elec       q    Type
REMARK                         _______ _______ _______ _____ _____    ______ ____
ROOT
ATOM      1  N   UNL     1      44.198   6.789  10.768  0.00  0.00    +0.000 N 
ATOM      2  H   UNL     1      43.242   6.976  10.471  0.00  0.00    +0.000 HD
ENDROOT
BRANCH   1   3
ATOM      3  C   UNL     1      44.827   7.914  11.314  0.00  0.00    +0.000 A 
ATOM      4  C   UNL     1      44.186   9.158  11.213  0.00  0.00    +0.000 A 
ATOM      5  C   UNL     1      44.825  10.330  11.622  0.00  0.00    +0.000 A 
ATOM      6  C   UNL     1      46.108  10.277  12.159  0.00  0.00    +0.000 A 
ATOM      7  C   UNL     1      46.744   9.045  12.333  0.00  0.00    +0.000 A 
ATOM      8  C   UNL     1      46.120   7.887  11.854  0.00  0.00    +0.000 A 
BRANCH   7   9
ATOM      9  O   UNL     1      47.942   8.854  12.979  0.00  0.00    +0.000 OA
BRANCH   9  10
ATOM     10  C   UNL     1      47.911   7.946  14.093  0.00  0.00    +0.000 C 
ATOM     11  C   UNL     1      48.502   8.601  15.333  0.00  0.00    +0.000 C 
ATOM     12  C   UNL     1      49.941   8.129  15.388  0.00  0.00    +0.000 C 
ATOM     13  N   UNL     1      49.991   6.823  14.736  0.00  0.00    +0.000 NA
ATOM     14  C   UNL     1      48.797   6.708  13.887  0.00  0.00    +0.000 C 
ATOM     15  H   UNL     1      49.987   6.079  15.430  0.00  0.00    +0.000 HD
ENDBRANCH   9  10
ENDBRANCH   7   9
ENDBRANCH   1   3
BRANCH   1  16
ATOM     16  C   UNL     1      44.355   5.507  11.454  0.00  0.00    +0.000 C 
BRANCH  16  17
ATOM     17  C   UNL     1      43.804   4.340  10.622  0.00  0.00    +0.000 C 
BRANCH  17  21
ATOM     18  C   UNL     1      46.479   2.494   7.756  0.00  0.00    +0.000 A 
ATOM     19  C   UNL     1      45.758   1.689   8.641  0.00  0.00    +0.000 A 
ATOM     20  C   UNL     1      44.898   2.271   9.577  0.00  0.00    +0.000 A 
ATOM     21  C   UNL     1      44.755   3.666   9.654  0.00  0.00    +0.000 A 
ATOM     22  C   UNL     1      45.481   4.464   8.758  0.00  0.00    +0.000 A 
ATOM     23  C   UNL     1      46.347   3.884   7.825  0.00  0.00    +0.000 A 
BRANCH  18  25
ATOM     24  N   UNL     1      48.520   2.641   6.432  0.00  0.00    +0.000 N 
ATOM     25  C   UNL     1      47.403   1.917   6.748  0.00  0.00    +0.000 C 
ATOM     26  O   UNL     1      47.205   0.815   6.248  0.00  0.00    +0.000 OA
ATOM     27  H   UNL     1      49.194   2.185   5.832  0.00  0.00    +0.000 HD
ATOM     28  H   UNL     1      48.840   3.412   7.000  0.00  0.00    +0.000 HD
ENDBRANCH  18  25
ENDBRANCH  17  21
ENDBRANCH  16  17
ENDBRANCH   1  16
TORSDOF 7
ENDMDL
MODEL 7
REMARK VINA RESULT:    -6.660      1.500      7.628
REMARK INTER + INTRA:         -10.276
REMARK INTER:                  -9.392
REMARK INTRA:                  -0.884
REMARK UNBOUND:                -0.890
REMARK  Name = 
REMARK  7 active torsions:
REMARK  status: ('A' for Active; 'I' for Inactive)
REMARK    1  A    between atoms: C_2  and  C_4
REMARK    2  A    between atoms: C_7  and  C_8
REMARK    3  A    between atoms: C_8  and  C_9
REMARK    4  A    between atoms: C_9  and  N_10
REMARK    5  A    between atoms: N_10  and  C_11
REMARK    6  A    between atoms: C_15  and  O_16
REMARK    7  A    between atoms: O_16  and  C_17
REMARK                            x       y       z     vdW  Elec       q    Type
REMARK                         _______ _______ _______ _____ _____    ______ ____
ROOT
ATOM      1  N   UNL     1      45.136   6.544  11.081  0.00  0.00    +0.000 N 
ATOM      2  H   UNL     1      44.760   7.255  10.455  0.00  0.00    +0.000 HD
ENDROOT
BRANCH   1   3
ATOM      3  C   UNL     1      44.687   5.255  10.772  0.00  0.00    +0.000 A 
ATOM      4  C   UNL     1      43.842   4.602  11.681  0.00  0.00    +0.000 A 
ATOM      5  C   UNL     1      43.471   3.270  11.488  0.00  0.00    +0.000 A 
ATOM      6  C   UNL     1      43.923   2.573  10.370  0.00  0.00    +0.000 A 
ATOM      7  C   UNL     1      44.711   3.218   9.414  0.00  0.00    +0.000 A 
ATOM      8  C   UNL     1      45.132   4.531   9.658  0.00  0.00    +0.000 A 
BRANCH   7   9
ATOM      9  O   UNL     1      45.094   2.681   8.209  0.00  0.00    +0.000 OA
BRANCH   9  10
ATOM     10  C   UNL     1      46.511   2.641   7.968  0.00  0.00    +0.000 C 
ATOM     11  C   UNL     1      46.877   3.524   6.783  0.00  0.00    +0.000 C 
ATOM     12  C   UNL     1      46.963   2.586   5.596  0.00  0.00    +0.000 C 
ATOM     13  N   UNL     1      47.336   1.271   6.112  0.00  0.00    +0.000 NA
ATOM     14  C   UNL     1      47.011   1.250   7.544  0.00  0.00    +0.000 C 
ATOM     15  H   UNL     1      48.333   1.110   5.987  0.00  0.00    +0.000 HD
ENDBRANCH   9  10
ENDBRANCH   7   9
ENDBRANCH   1   3
BRANCH   1  16
ATOM     16  C   UNL     1      46.555   6.728  11.386  0.00  0.00    +0.000 C 
BRANCH  16  17
ATOM     17  C   UNL     1      46.776   7.182  12.836  0.00  0.00    +0.000 C 
BRANCH  17  21
ATOM     18  C   UNL     1      47.777   4.097  15.710  0.00  0.00    +0.000 A 
ATOM     19  C   UNL     1      48.173   5.415  15.950  0.00  0.00    +0.000 A 
ATOM     20  C   UNL     1      47.864   6.419  15.027  0.00  0.00    +0.000 A 
ATOM     21  C   UNL     1      47.169   6.121  13.844  0.00  0.00    +0.000 A 
ATOM     22  C   UNL     1      46.773   4.795  13.615  0.00  0.00    +0.000 A 
ATOM     23  C   UNL     1      47.086   3.788  14.533  0.00  0.00    +0.000 A 
BRANCH  18  25
ATOM     24  N   UNL     1      47.350   2.944  17.814  0.00  0.00    +0.000 N 
ATOM     25  C   UNL     1      48.085   3.001  16.662  0.00  0.00    +0.000 C 
ATOM     26  O   UNL     1      48.930   2.148  16.412  0.00  0.00    +0.000 OA
ATOM     27  H   UNL     1      47.492   2.129  18.396  0.00  0.00    +0.000 HD
ATOM     28  H   UNL     1      46.492   3.462  17.931  0.00  0.00    +0.000 HD
ENDBRANCH  18  25
ENDBRANCH  17  21
ENDBRANCH  16  17
ENDBRANCH   1  16
TORSDOF 7
ENDMDL
MODEL 8
REMARK VINA RESULT:    -6.297      3.150      7.994
REMARK INTER + INTRA:          -9.764
REMARK INTER:                  -8.917
REMARK INTRA:                  -0.848
REMARK UNBOUND:                -0.890
REMARK  Name = 
REMARK  7 active torsions:
REMARK  status: ('A' for Active; 'I' for Inactive)
REMARK    1  A    between atoms: C_2  and  C_4
REMARK    2  A    between atoms: C_7  and  C_8
REMARK    3  A    between atoms: C_8  and  C_9
REMARK    4  A    between atoms: C_9  and  N_10
REMARK    5  A    between atoms: N_10  and  C_11
REMARK    6  A    between atoms: C_15  and  O_16
REMARK    7  A    between atoms: O_16  and  C_17
REMARK                            x       y       z     vdW  Elec       q    Type
REMARK                         _______ _______ _______ _____ _____    ______ ____
ROOT
ATOM      1  N   UNL     1      49.093   6.811  14.735  0.00  0.00    +0.000 N 
ATOM      2  H   UNL     1      49.545   5.926  14.512  0.00  0.00    +0.000 HD
ENDROOT
BRANCH   1   3
ATOM      3  C   UNL     1      47.988   7.079  13.920  0.00  0.00    +0.000 A 
ATOM      4  C   UNL     1      47.442   8.372  13.933  0.00  0.00    +0.000 A 
ATOM      5  C   UNL     1      46.264   8.660  13.241  0.00  0.00    +0.000 A 
ATOM      6  C   UNL     1      45.621   7.666  12.508  0.00  0.00    +0.000 A 
ATOM      7  C   UNL     1      46.178   6.388  12.424  0.00  0.00    +0.000 A 
ATOM      8  C   UNL     1      47.320   6.095  13.179  0.00  0.00    +0.000 A 
BRANCH   7   9
ATOM      9  O   UNL     1      45.717   5.372  11.621  0.00  0.00    +0.000 OA
BRANCH   9  10
ATOM     10  C   UNL     1      44.287   5.249  11.532  0.00  0.00    +0.000 C 
ATOM     11  C   UNL     1      43.729   4.585  12.782  0.00  0.00    +0.000 C 
ATOM     12  C   UNL     1      43.566   3.122  12.419  0.00  0.00    +0.000 C 
ATOM     13  N   UNL     1      43.341   3.059  10.977  0.00  0.00    +0.000 NA
ATOM     14  C   UNL     1      43.832   4.317  10.398  0.00  0.00    +0.000 C 
ATOM     15  H   UNL     1      42.348   2.957  10.776  0.00  0.00    +0.000 HD
ENDBRANCH   9  10
ENDBRANCH   7   9
ENDBRANCH   1   3
BRANCH   1  16
ATOM     16  C   UNL     1      48.968   7.054  16.172  0.00  0.00    +0.000 C 
BRANCH  16  17
ATOM     17  C   UNL     1      48.480   5.808  16.925  0.00  0.00    +0.000 C 
BRANCH  17  21
ATOM     18  C   UNL     1      51.189   2.465  17.441  0.00  0.00    +0.000 A 
ATOM     19  C   UNL     1      51.664   3.767  17.615  0.00  0.00    +0.000 A 
ATOM     20  C   UNL     1      50.803   4.856  17.443  0.00  0.00    +0.000 A 
ATOM     21  C   UNL     1      49.460   4.662  17.081  0.00  0.00    +0.000 A 
ATOM     22  C   UNL     1      48.994   3.350  16.913  0.00  0.00    +0.000 A 
ATOM     23  C   UNL     1      49.854   2.261  17.078  0.00  0.00    +0.000 A 
BRANCH  18  25
ATOM     24  N   UNL     1      51.515   0.163  18.171  0.00  0.00    +0.000 N 
ATOM     25  C   UNL     1      52.068   1.282  17.613  0.00  0.00    +0.000 C 
ATOM     26  O   UNL     1      53.234   1.284  17.230  0.00  0.00    +0.000 OA
ATOM     27  H   UNL     1      52.092  -0.667  18.176  0.00  0.00    +0.000 HD
ATOM     28  H   UNL     1      50.517   0.043  18.258  0.00  0.00    +0.000 HD
ENDBRANCH  18  25
ENDBRANCH  17  21
ENDBRANCH  16  17
ENDBRANCH   1  16
TORSDOF 7
ENDMDL
MODEL 9
REMARK VINA RESULT:    -6.281      4.205      7.022
REMARK INTER + INTRA:          -9.741
REMARK INTER:                  -8.675
REMARK INTRA:                  -1.066
REMARK UNBOUND:                -0.890
REMARK  Name = 
REMARK  7 active torsions:
REMARK  status: ('A' for Active; 'I' for Inactive)
REMARK    1  A    between atoms: C_2  and  C_4
REMARK    2  A    between atoms: C_7  and  C_8
REMARK    3  A    between atoms: C_8  and  C_9
REMARK    4  A    between atoms: C_9  and  N_10
REMARK    5  A    between atoms: N_10  and  C_11
REMARK    6  A    between atoms: C_15  and  O_16
REMARK    7  A    between atoms: O_16  and  C_17
REMARK                            x       y       z     vdW  Elec       q    Type
REMARK                         _______ _______ _______ _____ _____    ______ ____
ROOT
ATOM      1  N   UNL     1      48.566   8.996  12.744  0.00  0.00    +0.000 N 
ATOM      2  H   UNL     1      49.189   8.512  12.101  0.00  0.00    +0.000 HD
ENDROOT
BRANCH   1   3
ATOM      3  C   UNL     1      47.690   9.874  12.096  0.00  0.00    +0.000 A 
ATOM      4  C   UNL     1      48.215  10.777  11.159  0.00  0.00    +0.000 A 
ATOM      5  C   UNL     1      47.411  11.761  10.581  0.00  0.00    +0.000 A 
ATOM      6  C   UNL     1      46.062  11.847  10.915  0.00  0.00    +0.000 A 
ATOM      7  C   UNL     1      45.497  10.919  11.793  0.00  0.00    +0.000 A 
ATOM      8  C   UNL     1      46.331   9.984  12.418  0.00  0.00    +0.000 A 
BRANCH   7   9
ATOM      9  O   UNL     1      44.158  10.815  12.085  0.00  0.00    +0.000 OA
BRANCH   9  10
ATOM     10  C   UNL     1      43.267  10.909  10.961  0.00  0.00    +0.000 C 
ATOM     11  C   UNL     1      42.109  11.846  11.275  0.00  0.00    +0.000 C 
ATOM     12  C   UNL     1      40.970  10.945  11.706  0.00  0.00    +0.000 C 
ATOM     13  N   UNL     1      41.162   9.660  11.038  0.00  0.00    +0.000 NA
ATOM     14  C   UNL     1      42.570   9.580  10.630  0.00  0.00    +0.000 C 
ATOM     15  H   UNL     1      40.565   9.594  10.216  0.00  0.00    +0.000 HD
ENDBRANCH   9  10
ENDBRANCH   7   9
ENDBRANCH   1   3
BRANCH   1  16
ATOM     16  C   UNL     1      48.028   8.132  13.795  0.00  0.00    +0.000 C 
BRANCH  16  17
ATOM     17  C   UNL     1      48.230   6.644  13.474  0.00  0.00    +0.000 C 
BRANCH  17  21
ATOM     18  C   UNL     1      45.014   4.749  11.273  0.00  0.00    +0.000 A 
ATOM     19  C   UNL     1      45.362   4.264  12.535  0.00  0.00    +0.000 A 
ATOM     20  C   UNL     1      46.403   4.860  13.253  0.00  0.00    +0.000 A 
ATOM     21  C   UNL     1      47.123   5.940  12.716  0.00  0.00    +0.000 A 
ATOM     22  C   UNL     1      46.762   6.421  11.449  0.00  0.00    +0.000 A 
ATOM     23  C   UNL     1      45.726   5.822  10.727  0.00  0.00    +0.000 A 
BRANCH  18  25
ATOM     24  N   UNL     1      43.875   4.437   9.141  0.00  0.00    +0.000 N 
ATOM     25  C   UNL     1      43.917   4.146  10.477  0.00  0.00    +0.000 C 
ATOM     26  O   UNL     1      43.102   3.379  10.979  0.00  0.00    +0.000 OA
ATOM     27  H   UNL     1      43.193   3.930   8.593  0.00  0.00    +0.000 HD
ATOM     28  H   UNL     1      44.659   4.846   8.655  0.00  0.00    +0.000 HD
ENDBRANCH  18  25
ENDBRANCH  17  21
ENDBRANCH  16  17
ENDBRANCH   1  16
TORSDOF 7
ENDMDL
