MODEL 1
REMARK VINA RESULT:    -8.731      0.000      0.000
REMARK INTER + INTRA:         -11.977
REMARK INTER:                 -11.794
REMARK INTRA:                  -0.183
REMARK UNBOUND:                -0.183
REMARK  Name = 
REMARK  9 active torsions:
REMARK  status: ('A' for Active; 'I' for Inactive)
REMARK    1  A    between atoms: C_1  and  C_2
REMARK    2  A    between atoms: C_8  and  C_9
REMARK    3  A    between atoms: N_11  and  C_12
REMARK    4  A    between atoms: C_12  and  C_13
REMARK    5  A    between atoms: C_12  and  C_14
REMARK    6  A    between atoms: C_17  and  N_18
REMARK    7  A    between atoms: N_18  and  C_19
REMARK    8  A    between atoms: C_19  and  C_20
REMARK    9  A    between atoms: C_29  and  C_30
REMARK                            x       y       z     vdW  Elec       q    Type
REMARK                         _______ _______ _______ _____ _____    ______ ____
ROOT
ATOM      1  C   UNL     1      47.644   6.747  13.618  0.00  0.00    +0.000 C 
ATOM      2  C   UNL     1      49.021   6.926  12.971  0.00  0.00    +0.000 C 
ENDROOT
BRANCH   1   3
ATOM      3  C   UNL     1      46.702   5.989  12.692  0.00  0.00    +0.000 A 
ATOM      4  C   UNL     1      46.418   6.483  11.412  0.00  0.00    +0.000 A 
ATOM      5  C   UNL     1      45.577   5.777  10.540  0.00  0.00    +0.000 A 
ATOM      6  C   UNL     1      45.017   4.547  10.904  0.00  0.00    +0.000 A 
ATOM      7  C   UNL     1      45.270   4.074  12.195  0.00  0.00    +0.000 A 
ATOM      8  C   UNL     1      46.110   4.776  13.072  0.00  0.00    +0.000 A 
BRANCH   6   9
ATOM      9  N   UNL     1      44.176   3.909   9.981  0.00  0.00    +0.000 N 
ATOM     10  H   UNL     1      43.204   4.005  10.277  0.00  0.00    +0.000 HD
BRANCH   9  11
ATOM     11  C   UNL     1      44.459   2.510   9.642  0.00  0.00    +0.000 C 
BRANCH  11  12
ATOM     12  C   UNL     1      45.440   2.400   8.489  0.00  0.00    +0.000 A 
ATOM     13  C   UNL     1      45.655   3.492   7.646  0.00  0.00    +0.000 A 
ATOM     14  C   UNL     1      46.635   3.404   6.660  0.00  0.00    +0.000 A 
ATOM     15  C   UNL     1      47.370   2.233   6.535  0.00  0.00    +0.000 A 
ATOM     16  C   UNL     1      47.086   1.189   7.399  0.00  0.00    +0.000 A 
ATOM     17  N   UNL     1      46.145   1.244   8.369  0.00  0.00    +0.000 NA
ENDBRANCH  11  12
ENDBRANCH   9  11
ENDBRANCH   6   9
ENDBRANCH   1   3
BRANCH   1  20
ATOM     18  C   UNL     1      48.793   6.344  15.791  0.00  0.00    +0.000 C 
ATOM     19  O   UNL     1      49.674   7.156  15.544  0.00  0.00    +0.000 OA
ATOM     20  N   UNL     1      47.749   6.084  14.916  0.00  0.00    +0.000 N 
ATOM     21  H   UNL     1      47.034   5.411  15.153  0.00  0.00    +0.000 HD
BRANCH  18  29
ATOM     22  C   UNL     1      47.203   8.803  20.895  0.00  0.00    +0.000 C 
ATOM     23  C   UNL     1      47.669   7.631  20.089  0.00  0.00    +0.000 A 
ATOM     24  S   UNL     1      47.732   6.097  20.820  0.00  0.00    +0.000 S 
ATOM     25  C   UNL     1      48.282   5.364  19.392  0.00  0.00    +0.000 A 
ATOM     26  N   UNL     1      48.543   4.040  19.409  0.00  0.00    +0.000 NA
ATOM     27  C   UNL     1      48.924   3.527  18.235  0.00  0.00    +0.000 A 
ATOM     28  C   UNL     1      49.044   4.244  17.066  0.00  0.00    +0.000 A 
ATOM     29  C   UNL     1      48.776   5.623  17.085  0.00  0.00    +0.000 A 
ATOM     30  C   UNL     1      48.395   6.244  18.311  0.00  0.00    +0.000 A 
ATOM     31  C   UNL     1      48.095   7.605  18.764  0.00  0.00    +0.000 A 
ATOM     32  C   UNL     1      48.210   8.863  17.956  0.00  0.00    +0.000 C 
ENDBRANCH  18  29
ENDBRANCH   1  20
TORSDOF 6
ENDMDL
MODEL 2
REMARK VINA RESULT:    -8.599      2.611      4.471
REMARK INTER + INTRA:         -11.798
REMARK INTER:                 -10.467
REMARK INTRA:                  -1.330
REMARK UNBOUND:                -0.183
REMARK  Name = 
REMARK  9 active torsions:
REMARK  status: ('A' for Active; 'I' for Inactive)
REMARK    1  A    between atoms: C_1  and  C_2
REMARK    2  A    between atoms: C_8  and  C_9
REMARK    3  A    between atoms: N_11  and  C_12
REMARK    4  A    between atoms: C_12  and  C_13
REMARK    5  A    between atoms: C_12  and  C_14
REMARK    6  A    between atoms: C_17  and  N_18
REMARK    7  A    between atoms: N_18  and  C_19
REMARK    8  A    between atoms: C_19  and  C_20
REMARK    9  A    between atoms: C_29  and  C_30
REMARK                            x       y       z     vdW  Elec       q    Type
REMARK                         _______ _______ _______ _____ _____    ______ ____
ROOT
ATOM      1  C   UNL     1      47.600   4.995  14.793  0.00  0.00    +0.000 C 
ATOM      2  C   UNL     1      46.989   4.301  16.014  0.00  0.00    +0.000 C 
ENDROOT
BRANCH   1   3
ATOM      3  C   UNL     1      46.757   4.749  13.548  0.00  0.00    +0.000 A 
ATOM      4  C   UNL     1      46.231   3.476  13.289  0.00  0.00    +0.000 A 
ATOM      5  C   UNL     1      45.429   3.246  12.162  0.00  0.00    +0.000 A 
ATOM      6  C   UNL     1      45.102   4.280  11.278  0.00  0.00    +0.000 A 
ATOM      7  C   UNL     1      45.657   5.540  11.516  0.00  0.00    +0.000 A 
ATOM      8  C   UNL     1      46.462   5.776  12.640  0.00  0.00    +0.000 A 
BRANCH   6   9
ATOM      9  N   UNL     1      44.304   3.967  10.168  0.00  0.00    +0.000 N 
ATOM     10  H   UNL     1      43.335   4.230  10.355  0.00  0.00    +0.000 HD
BRANCH   9  11
ATOM     11  C   UNL     1      44.357   2.597   9.644  0.00  0.00    +0.000 C 
BRANCH  11  12
ATOM     12  C   UNL     1      45.369   2.466   8.520  0.00  0.00    +0.000 A 
ATOM     13  C   UNL     1      45.643   3.557   7.694  0.00  0.00    +0.000 A 
ATOM     14  C   UNL     1      46.648   3.446   6.737  0.00  0.00    +0.000 A 
ATOM     15  C   UNL     1      47.351   2.254   6.624  0.00  0.00    +0.000 A 
ATOM     16  C   UNL     1      47.009   1.212   7.470  0.00  0.00    +0.000 A 
ATOM     17  N   UNL     1      46.040   1.289   8.411  0.00  0.00    +0.000 NA
ENDBRANCH  11  12
ENDBRANCH   9  11
ENDBRANCH   6   9
ENDBRANCH   1   3
BRANCH   1  20
ATOM     18  C   UNL     1      48.997   6.955  15.433  0.00  0.00    +0.000 C 
ATOM     19  O   UNL     1      49.995   6.267  15.594  0.00  0.00    +0.000 OA
ATOM     20  N   UNL     1      47.780   6.425  15.029  0.00  0.00    +0.000 N 
ATOM     21  H   UNL     1      46.976   7.023  14.899  0.00  0.00    +0.000 HD
BRANCH  18  29
ATOM     22  C   UNL     1      49.105  10.822  10.999  0.00  0.00    +0.000 C 
ATOM     23  C   UNL     1      49.097  10.497  12.460  0.00  0.00    +0.000 A 
ATOM     24  S   UNL     1      48.922  11.758  13.587  0.00  0.00    +0.000 S 
ATOM     25  C   UNL     1      48.981  10.685  14.899  0.00  0.00    +0.000 A 
ATOM     26  N   UNL     1      48.903  11.191  16.147  0.00  0.00    +0.000 NA
ATOM     27  C   UNL     1      48.906  10.280  17.125  0.00  0.00    +0.000 A 
ATOM     28  C   UNL     1      48.967   8.919  16.930  0.00  0.00    +0.000 A 
ATOM     29  C   UNL     1      49.057   8.423  15.619  0.00  0.00    +0.000 A 
ATOM     30  C   UNL     1      49.092   9.341  14.528  0.00  0.00    +0.000 A 
ATOM     31  C   UNL     1      49.234   9.253  13.071  0.00  0.00    +0.000 A 
ATOM     32  C   UNL     1      49.494   8.014  12.269  0.00  0.00    +0.000 C 
ENDBRANCH  18  29
ENDBRANCH   1  20
TORSDOF 6
ENDMDL
MODEL 3
REMARK VINA RESULT:    -8.533      1.862      3.088
REMARK INTER + INTRA:         -11.710
REMARK INTER:                 -10.577
REMARK INTRA:                  -1.132
REMARK UNBOUND:                -0.183
REMARK  Name = 
REMARK  9 active torsions:
REMARK  status: ('A' for Active; 'I' for Inactive)
REMARK    1  A    between atoms: C_1  and  C_2
REMARK    2  A    between atoms: C_8  and  C_9
REMARK    3  A    between atoms: N_11  and  C_12
REMARK    4  A    between atoms: C_12  and  C_13
REMARK    5  A    between atoms: C_12  and  C_14
REMARK    6  A    between atoms: C_17  and  N_18
REMARK    7  A    between atoms: N_18  and  C_19
REMARK    8  A    between atoms: C_19  and  C_20
REMARK    9  A    between atoms: C_29  and  C_30
REMARK                            x       y       z     vdW  Elec       q    Type
REMARK                         _______ _______ _______ _____ _____    ______ ____
ROOT
ATOM      1  C   UNL     1      47.704   5.007  14.731  0.00  0.00    +0.000 C 
ATOM      2  C   UNL     1      47.241   4.131  15.899  0.00  0.00    +0.000 C 
ENDROOT
BRANCH   1   3
ATOM      3  C   UNL     1      46.831   4.782  13.502  0.00  0.00    +0.000 A 
ATOM      4  C   UNL     1      46.231   3.535  13.279  0.00  0.00    +0.000 A 
ATOM      5  C   UNL     1      45.401   3.327  12.168  0.00  0.00    +0.000 A 
ATOM      6  C   UNL     1      45.120   4.357  11.265  0.00  0.00    +0.000 A 
ATOM      7  C   UNL     1      45.748   5.590  11.467  0.00  0.00    +0.000 A 
ATOM      8  C   UNL     1      46.581   5.804  12.576  0.00  0.00    +0.000 A 
BRANCH   6   9
ATOM      9  N   UNL     1      44.291   4.066  10.172  0.00  0.00    +0.000 N 
ATOM     10  H   UNL     1      43.333   4.350  10.381  0.00  0.00    +0.000 HD
BRANCH   9  11
ATOM     11  C   UNL     1      44.301   2.697   9.644  0.00  0.00    +0.000 C 
BRANCH  11  12
ATOM     12  C   UNL     1      45.335   2.528   8.545  0.00  0.00    +0.000 A 
ATOM     13  C   UNL     1      45.658   3.604   7.717  0.00  0.00    +0.000 A 
ATOM     14  C   UNL     1      46.682   3.457   6.785  0.00  0.00    +0.000 A 
ATOM     15  C   UNL     1      47.353   2.245   6.697  0.00  0.00    +0.000 A 
ATOM     16  C   UNL     1      46.962   1.220   7.543  0.00  0.00    +0.000 A 
ATOM     17  N   UNL     1      45.975   1.332   8.461  0.00  0.00    +0.000 NA
ENDBRANCH  11  12
ENDBRANCH   9  11
ENDBRANCH   6   9
ENDBRANCH   1   3
BRANCH   1  20
ATOM     18  C   UNL     1      48.849   7.009  15.670  0.00  0.00    +0.000 C 
ATOM     19  O   UNL     1      49.888   6.395  15.871  0.00  0.00    +0.000 OA
ATOM     20  N   UNL     1      47.729   6.420  15.103  0.00  0.00    +0.000 N 
ATOM     21  H   UNL     1      46.889   6.958  14.944  0.00  0.00    +0.000 HD
BRANCH  18  29
ATOM     22  C   UNL     1      47.413   9.131  20.967  0.00  0.00    +0.000 C 
ATOM     23  C   UNL     1      47.808   9.324  19.536  0.00  0.00    +0.000 A 
ATOM     24  S   UNL     1      48.193  10.888  18.988  0.00  0.00    +0.000 S 
ATOM     25  C   UNL     1      48.527  10.329  17.421  0.00  0.00    +0.000 A 
ATOM     26  N   UNL     1      48.889  11.228  16.483  0.00  0.00    +0.000 NA
ATOM     27  C   UNL     1      49.184  10.707  15.288  0.00  0.00    +0.000 A 
ATOM     28  C   UNL     1      49.149   9.363  14.987  0.00  0.00    +0.000 A 
ATOM     29  C   UNL     1      48.758   8.454  15.984  0.00  0.00    +0.000 A 
ATOM     30  C   UNL     1      48.398   8.945  17.274  0.00  0.00    +0.000 A 
ATOM     31  C   UNL     1      47.898   8.370  18.526  0.00  0.00    +0.000 A 
ATOM     32  C   UNL     1      47.511   6.942  18.766  0.00  0.00    +0.000 C 
ENDBRANCH  18  29
ENDBRANCH   1  20
TORSDOF 6
ENDMDL
MODEL 4
REMARK VINA RESULT:    -8.525      1.791      2.365
REMARK INTER + INTRA:         -11.699
REMARK INTER:                 -10.810
REMARK INTRA:                  -0.889
REMARK UNBOUND:                -0.183
REMARK  Name = 
REMARK  9 active torsions:
REMARK  status: ('A' for Active; 'I' for Inactive)
REMARK    1  A    between atoms: C_1  and  C_2
REMARK    2  A    between atoms: C_8  and  C_9
REMARK    3  A    between atoms: N_11  and  C_12
REMARK    4  A    between atoms: C_12  and  C_13
REMARK    5  A    between atoms: C_12  and  C_14
REMARK    6  A    between atoms: C_17  and  N_18
REMARK    7  A    between atoms: N_18  and  C_19
REMARK    8  A    between atoms: C_19  and  C_20
REMARK    9  A    between atoms: C_29  and  C_30
REMARK                            x       y       z     vdW  Elec       q    Type
REMARK                         _______ _______ _______ _____ _____    ______ ____
ROOT
ATOM      1  C   UNL     1      47.635   6.898  13.586  0.00  0.00    +0.000 C 
ATOM      2  C   UNL     1      48.844   7.411  12.797  0.00  0.00    +0.000 C 
ENDROOT
BRANCH   1   3
ATOM      3  C   UNL     1      46.697   6.102  12.688  0.00  0.00    +0.000 A 
ATOM      4  C   UNL     1      46.470   6.506  11.366  0.00  0.00    +0.000 A 
ATOM      5  C   UNL     1      45.632   5.763  10.522  0.00  0.00    +0.000 A 
ATOM      6  C   UNL     1      45.020   4.583  10.958  0.00  0.00    +0.000 A 
ATOM      7  C   UNL     1      45.216   4.201  12.288  0.00  0.00    +0.000 A 
ATOM      8  C   UNL     1      46.052   4.941  13.138  0.00  0.00    +0.000 A 
BRANCH   6   9
ATOM      9  N   UNL     1      44.187   3.903  10.058  0.00  0.00    +0.000 N 
ATOM     10  H   UNL     1      43.215   3.984  10.359  0.00  0.00    +0.000 HD
BRANCH   9  11
ATOM     11  C   UNL     1      44.499   2.503   9.751  0.00  0.00    +0.000 C 
BRANCH  11  12
ATOM     12  C   UNL     1      45.425   2.385   8.553  0.00  0.00    +0.000 A 
ATOM     13  C   UNL     1      45.601   3.471   7.695  0.00  0.00    +0.000 A 
ATOM     14  C   UNL     1      46.533   3.376   6.664  0.00  0.00    +0.000 A 
ATOM     15  C   UNL     1      47.260   2.202   6.512  0.00  0.00    +0.000 A 
ATOM     16  C   UNL     1      47.016   1.164   7.394  0.00  0.00    +0.000 A 
ATOM     17  N   UNL     1      46.121   1.226   8.407  0.00  0.00    +0.000 NA
ENDBRANCH  11  12
ENDBRANCH   9  11
ENDBRANCH   6   9
ENDBRANCH   1   3
BRANCH   1  20
ATOM     18  C   UNL     1      48.552   6.696  15.893  0.00  0.00    +0.000 C 
ATOM     19  O   UNL     1      48.654   7.907  16.024  0.00  0.00    +0.000 OA
ATOM     20  N   UNL     1      48.052   6.106  14.741  0.00  0.00    +0.000 N 
ATOM     21  H   UNL     1      47.975   5.102  14.668  0.00  0.00    +0.000 HD
BRANCH  18  29
ATOM     22  C   UNL     1      53.990   6.241  18.094  0.00  0.00    +0.000 C 
ATOM     23  C   UNL     1      52.543   5.858  18.075  0.00  0.00    +0.000 A 
ATOM     24  S   UNL     1      51.932   4.873  19.319  0.00  0.00    +0.000 S 
ATOM     25  C   UNL     1      50.367   4.902  18.665  0.00  0.00    +0.000 A 
ATOM     26  N   UNL     1      49.396   4.205  19.291  0.00  0.00    +0.000 NA
ATOM     27  C   UNL     1      48.182   4.316  18.745  0.00  0.00    +0.000 A 
ATOM     28  C   UNL     1      47.885   5.080  17.638  0.00  0.00    +0.000 A 
ATOM     29  C   UNL     1      48.921   5.786  17.003  0.00  0.00    +0.000 A 
ATOM     30  C   UNL     1      50.248   5.687  17.514  0.00  0.00    +0.000 A 
ATOM     31  C   UNL     1      51.572   6.190  17.135  0.00  0.00    +0.000 A 
ATOM     32  C   UNL     1      51.914   6.974  15.903  0.00  0.00    +0.000 C 
ENDBRANCH  18  29
ENDBRANCH   1  20
TORSDOF 6
ENDMDL
MODEL 5
REMARK VINA RESULT:    -8.318      2.357      3.412
REMARK INTER + INTRA:         -11.419
REMARK INTER:                 -10.416
REMARK INTRA:                  -1.003
REMARK UNBOUND:                -0.183
REMARK  Name = 
REMARK  9 active torsions:
REMARK  status: ('A' for Active; 'I' for Inactive)
REMARK    1  A    between atoms: C_1  and  C_2
REMARK    2  A    between atoms: C_8  and  C_9
REMARK    3  A    between atoms: N_11  and  C_12
REMARK    4  A    between atoms: C_12  and  C_13
REMARK    5  A    between atoms: C_12  and  C_14
REMARK    6  A    between atoms: C_17  and  N_18
REMARK    7  A    between atoms: N_18  and  C_19
REMARK    8  A    between atoms: C_19  and  C_20
REMARK    9  A    between atoms: C_29  and  C_30
REMARK                            x       y       z     vdW  Elec       q    Type
REMARK                         _______ _______ _______ _____ _____    ______ ____
ROOT
ATOM      1  C   UNL     1      46.554   7.550  13.268  0.00  0.00    +0.000 C 
ATOM      2  C   UNL     1      46.258   8.782  12.407  0.00  0.00    +0.000 C 
ENDROOT
BRANCH   1   3
ATOM      3  C   UNL     1      46.105   6.275  12.566  0.00  0.00    +0.000 A 
ATOM      4  C   UNL     1      46.162   5.043  13.231  0.00  0.00    +0.000 A 
ATOM      5  C   UNL     1      45.722   3.868  12.605  0.00  0.00    +0.000 A 
ATOM      6  C   UNL     1      45.186   3.888  11.313  0.00  0.00    +0.000 A 
ATOM      7  C   UNL     1      45.164   5.111  10.636  0.00  0.00    +0.000 A 
ATOM      8  C   UNL     1      45.604   6.290  11.257  0.00  0.00    +0.000 A 
BRANCH   6   9
ATOM      9  N   UNL     1      44.779   2.669  10.751  0.00  0.00    +0.000 N 
ATOM     10  H   UNL     1      45.510   1.969  10.882  0.00  0.00    +0.000 HD
BRANCH   9  11
ATOM     11  C   UNL     1      44.331   2.668   9.354  0.00  0.00    +0.000 C 
BRANCH  11  12
ATOM     12  C   UNL     1      45.463   2.322   8.403  0.00  0.00    +0.000 A 
ATOM     13  C   UNL     1      46.058   3.320   7.631  0.00  0.00    +0.000 A 
ATOM     14  C   UNL     1      47.162   3.000   6.844  0.00  0.00    +0.000 A 
ATOM     15  C   UNL     1      47.640   1.696   6.842  0.00  0.00    +0.000 A 
ATOM     16  C   UNL     1      46.984   0.759   7.622  0.00  0.00    +0.000 A 
ATOM     17  N   UNL     1      45.913   1.039   8.400  0.00  0.00    +0.000 NA
ENDBRANCH  11  12
ENDBRANCH   9  11
ENDBRANCH   6   9
ENDBRANCH   1   3
BRANCH   1  20
ATOM     18  C   UNL     1      48.492   8.199  14.692  0.00  0.00    +0.000 C 
ATOM     19  O   UNL     1      47.804   8.916  15.406  0.00  0.00    +0.000 OA
ATOM     20  N   UNL     1      47.968   7.479  13.628  0.00  0.00    +0.000 N 
ATOM     21  H   UNL     1      48.563   6.892  13.062  0.00  0.00    +0.000 HD
BRANCH  18  29
ATOM     22  C   UNL     1      50.652   4.312  18.545  0.00  0.00    +0.000 C 
ATOM     23  C   UNL     1      50.834   5.391  17.523  0.00  0.00    +0.000 A 
ATOM     24  S   UNL     1      52.402   5.754  16.975  0.00  0.00    +0.000 S 
ATOM     25  C   UNL     1      51.828   6.951  15.917  0.00  0.00    +0.000 A 
ATOM     26  N   UNL     1      52.723   7.641  15.182  0.00  0.00    +0.000 NA
ATOM     27  C   UNL     1      52.192   8.530  14.337  0.00  0.00    +0.000 A 
ATOM     28  C   UNL     1      50.843   8.755  14.180  0.00  0.00    +0.000 A 
ATOM     29  C   UNL     1      49.936   8.027  14.969  0.00  0.00    +0.000 A 
ATOM     30  C   UNL     1      50.436   7.084  15.915  0.00  0.00    +0.000 A 
ATOM     31  C   UNL     1      49.864   6.196  16.932  0.00  0.00    +0.000 A 
ATOM     32  C   UNL     1      48.424   6.110  17.339  0.00  0.00    +0.000 C 
ENDBRANCH  18  29
ENDBRANCH   1  20
TORSDOF 6
ENDMDL
MODEL 6
REMARK VINA RESULT:    -8.179      2.158      2.876
REMARK INTER + INTRA:         -11.230
REMARK INTER:                  -9.932
REMARK INTRA:                  -1.298
REMARK UNBOUND:                -0.183
REMARK  Name = 
REMARK  9 active torsions:
REMARK  status: ('A' for Active; 'I' for Inactive)
REMARK    1  A    between atoms: C_1  and  C_2
REMARK    2  A    between atoms: C_8  and  C_9
REMARK    3  A    between atoms: N_11  and  C_12
REMARK    4  A    between atoms: C_12  and  C_13
REMARK    5  A    between atoms: C_12  and  C_14
REMARK    6  A    between atoms: C_17  and  N_18
REMARK    7  A    between atoms: N_18  and  C_19
REMARK    8  A    between atoms: C_19  and  C_20
REMARK    9  A    between atoms: C_29  and  C_30
REMARK                            x       y       z     vdW  Elec       q    Type
REMARK                         _______ _______ _______ _____ _____    ______ ____
ROOT
ATOM      1  C   UNL     1      48.406   7.790  13.129  0.00  0.00    +0.000 C 
ATOM      2  C   UNL     1      49.038   8.477  11.915  0.00  0.00    +0.000 C 
ENDROOT
BRANCH   1   3
ATOM      3  C   UNL     1      47.345   6.785  12.696  0.00  0.00    +0.000 A 
ATOM      4  C   UNL     1      46.592   7.008  11.535  0.00  0.00    +0.000 A 
ATOM      5  C   UNL     1      45.635   6.074  11.110  0.00  0.00    +0.000 A 
ATOM      6  C   UNL     1      45.421   4.882  11.809  0.00  0.00    +0.000 A 
ATOM      7  C   UNL     1      46.145   4.678  12.987  0.00  0.00    +0.000 A 
ATOM      8  C   UNL     1      47.103   5.608  13.418  0.00  0.00    +0.000 A 
BRANCH   6   9
ATOM      9  N   UNL     1      44.438   4.006  11.327  0.00  0.00    +0.000 N 
ATOM     10  H   UNL     1      44.717   3.041  11.509  0.00  0.00    +0.000 HD
BRANCH   9  11
ATOM     11  C   UNL     1      44.013   4.146   9.929  0.00  0.00    +0.000 C 
BRANCH  11  12
ATOM     12  C   UNL     1      44.929   3.386   8.986  0.00  0.00    +0.000 A 
ATOM     13  C   UNL     1      45.670   4.073   8.024  0.00  0.00    +0.000 A 
ATOM     14  C   UNL     1      46.580   3.370   7.240  0.00  0.00    +0.000 A 
ATOM     15  C   UNL     1      46.726   2.002   7.429  0.00  0.00    +0.000 A 
ATOM     16  C   UNL     1      45.943   1.389   8.393  0.00  0.00    +0.000 A 
ATOM     17  N   UNL     1      45.053   2.045   9.173  0.00  0.00    +0.000 NA
ENDBRANCH  11  12
ENDBRANCH   9  11
ENDBRANCH   6   9
ENDBRANCH   1   3
BRANCH   1  20
ATOM     18  C   UNL     1      49.853   7.723  15.155  0.00  0.00    +0.000 C 
ATOM     19  O   UNL     1      49.404   8.777  15.584  0.00  0.00    +0.000 OA
ATOM     20  N   UNL     1      49.418   7.152  13.968  0.00  0.00    +0.000 N 
ATOM     21  H   UNL     1      49.806   6.278  13.644  0.00  0.00    +0.000 HD
BRANCH  18  29
ATOM     22  C   UNL     1      48.596   3.166  18.658  0.00  0.00    +0.000 C 
ATOM     23  C   UNL     1      49.572   4.111  18.030  0.00  0.00    +0.000 A 
ATOM     24  S   UNL     1      51.238   3.825  18.215  0.00  0.00    +0.000 S 
ATOM     25  C   UNL     1      51.644   5.186  17.288  0.00  0.00    +0.000 A 
ATOM     26  N   UNL     1      52.949   5.477  17.112  0.00  0.00    +0.000 NA
ATOM     27  C   UNL     1      53.190   6.533  16.329  0.00  0.00    +0.000 A 
ATOM     28  C   UNL     1      52.220   7.292  15.714  0.00  0.00    +0.000 A 
ATOM     29  C   UNL     1      50.869   6.969  15.926  0.00  0.00    +0.000 A 
ATOM     30  C   UNL     1      50.539   5.873  16.776  0.00  0.00    +0.000 A 
ATOM     31  C   UNL     1      49.310   5.261  17.289  0.00  0.00    +0.000 A 
ATOM     32  C   UNL     1      47.909   5.754  17.083  0.00  0.00    +0.000 C 
ENDBRANCH  18  29
ENDBRANCH   1  20
TORSDOF 6
ENDMDL
MODEL 7
REMARK VINA RESULT:    -8.012      2.271      3.441
REMARK INTER + INTRA:         -11.005
REMARK INTER:                  -9.768
REMARK INTRA:                  -1.237
REMARK UNBOUND:                -0.183
REMARK  Name = 
REMARK  9 active torsions:
REMARK  status: ('A' for Active; 'I' for Inactive)
REMARK    1  A    between atoms: C_1  and  C_2
REMARK    2  A    between atoms: C_8  and  C_9
REMARK    3  A    between atoms: N_11  and  C_12
REMARK    4  A    between atoms: C_12  and  C_13
REMARK    5  A    between atoms: C_12  and  C_14
REMARK    6  A    between atoms: C_17  and  N_18
REMARK    7  A    between atoms: N_18  and  C_19
REMARK    8  A    between atoms: C_19  and  C_20
REMARK    9  A    between atoms: C_29  and  C_30
REMARK                            x       y       z     vdW  Elec       q    Type
REMARK                         _______ _______ _______ _____ _____    ______ ____
ROOT
ATOM      1  C   UNL     1      47.824   4.706  15.081  0.00  0.00    +0.000 C 
ATOM      2  C   UNL     1      47.366   3.435  15.804  0.00  0.00    +0.000 C 
ENDROOT
BRANCH   1   3
ATOM      3  C   UNL     1      46.996   4.945  13.824  0.00  0.00    +0.000 A 
ATOM      4  C   UNL     1      45.860   4.167  13.567  0.00  0.00    +0.000 A 
ATOM      5  C   UNL     1      45.073   4.400  12.429  0.00  0.00    +0.000 A 
ATOM      6  C   UNL     1      45.377   5.430  11.532  0.00  0.00    +0.000 A 
ATOM      7  C   UNL     1      46.531   6.181  11.769  0.00  0.00    +0.000 A 
ATOM      8  C   UNL     1      47.323   5.952  12.905  0.00  0.00    +0.000 A 
BRANCH   6   9
ATOM      9  N   UNL     1      44.549   5.590  10.412  0.00  0.00    +0.000 N 
ATOM     10  H   UNL     1      43.784   6.228  10.637  0.00  0.00    +0.000 HD
BRANCH   9  11
ATOM     11  C   UNL     1      44.019   4.384   9.766  0.00  0.00    +0.000 C 
BRANCH  11  12
ATOM     12  C   UNL     1      45.079   3.678   8.940  0.00  0.00    +0.000 A 
ATOM     13  C   UNL     1      45.245   2.297   9.047  0.00  0.00    +0.000 A 
ATOM     14  C   UNL     1      46.151   1.656   8.206  0.00  0.00    +0.000 A 
ATOM     15  C   UNL     1      46.871   2.406   7.285  0.00  0.00    +0.000 A 
ATOM     16  C   UNL     1      46.662   3.774   7.252  0.00  0.00    +0.000 A 
ATOM     17  N   UNL     1      45.787   4.425   8.053  0.00  0.00    +0.000 NA
ENDBRANCH  11  12
ENDBRANCH   9  11
ENDBRANCH   6   9
ENDBRANCH   1   3
BRANCH   1  20
ATOM     18  C   UNL     1      48.876   6.256  16.722  0.00  0.00    +0.000 C 
ATOM     19  O   UNL     1      49.948   5.669  16.679  0.00  0.00    +0.000 OA
ATOM     20  N   UNL     1      47.780   5.867  15.966  0.00  0.00    +0.000 N 
ATOM     21  H   UNL     1      46.910   6.378  16.020  0.00  0.00    +0.000 HD
BRANCH  18  29
ATOM     22  C   UNL     1      49.375  11.759  14.701  0.00  0.00    +0.000 C 
ATOM     23  C   UNL     1      49.117  10.783  15.806  0.00  0.00    +0.000 A 
ATOM     24  S   UNL     1      48.564  11.359  17.307  0.00  0.00    +0.000 S 
ATOM     25  C   UNL     1      48.495   9.794  17.959  0.00  0.00    +0.000 A 
ATOM     26  N   UNL     1      48.108   9.649  19.243  0.00  0.00    +0.000 NA
ATOM     27  C   UNL     1      48.031   8.385  19.669  0.00  0.00    +0.000 A 
ATOM     28  C   UNL     1      48.301   7.278  18.895  0.00  0.00    +0.000 A 
ATOM     29  C   UNL     1      48.712   7.463  17.565  0.00  0.00    +0.000 A 
ATOM     30  C   UNL     1      48.847   8.787  17.054  0.00  0.00    +0.000 A 
ATOM     31  C   UNL     1      49.286   9.401  15.797  0.00  0.00    +0.000 A 
ATOM     32  C   UNL     1      49.855   8.692  14.605  0.00  0.00    +0.000 C 
ENDBRANCH  18  29
ENDBRANCH   1  20
TORSDOF 6
ENDMDL
MODEL 8
REMARK VINA RESULT:    -7.950      2.103      2.714
REMARK INTER + INTRA:         -10.922
REMARK INTER:                 -10.617
REMARK INTRA:                  -0.305
REMARK UNBOUND:                -0.183
REMARK  Name = 
REMARK  9 active torsions:
REMARK  status: ('A' for Active; 'I' for Inactive)
REMARK    1  A    between atoms: C_1  and  C_2
REMARK    2  A    between atoms: C_8  and  C_9
REMARK    3  A    between atoms: N_11  and  C_12
REMARK    4  A    between atoms: C_12  and  C_13
REMARK    5  A    between atoms: C_12  and  C_14
REMARK    6  A    between atoms: C_17  and  N_18
REMARK    7  A    between atoms: N_18  and  C_19
REMARK    8  A    between atoms: C_19  and  C_20
REMARK    9  A    between atoms: C_29  and  C_30
REMARK                            x       y       z     vdW  Elec       q    Type
REMARK                         _______ _______ _______ _____ _____    ______ ____
ROOT
ATOM      1  C   UNL     1      46.494   7.748  13.015  0.00  0.00    +0.000 C 
ATOM      2  C   UNL     1      47.333   8.508  11.982  0.00  0.00    +0.000 C 
ENDROOT
BRANCH   1   3
ATOM      3  C   UNL     1      46.003   6.422  12.447  0.00  0.00    +0.000 A 
ATOM      4  C   UNL     1      45.673   6.311  11.090  0.00  0.00    +0.000 A 
ATOM      5  C   UNL     1      45.250   5.088  10.551  0.00  0.00    +0.000 A 
ATOM      6  C   UNL     1      45.170   3.934  11.339  0.00  0.00    +0.000 A 
ATOM      7  C   UNL     1      45.462   4.054  12.700  0.00  0.00    +0.000 A 
ATOM      8  C   UNL     1      45.885   5.276  13.246  0.00  0.00    +0.000 A 
BRANCH   6   9
ATOM      9  N   UNL     1      44.725   2.752  10.729  0.00  0.00    +0.000 N 
ATOM     10  H   UNL     1      45.412   2.011  10.873  0.00  0.00    +0.000 HD
BRANCH   9  11
ATOM     11  C   UNL     1      44.341   2.808   9.314  0.00  0.00    +0.000 C 
BRANCH  11  12
ATOM     12  C   UNL     1      45.484   2.391   8.406  0.00  0.00    +0.000 A 
ATOM     13  C   UNL     1      46.160   3.347   7.648  0.00  0.00    +0.000 A 
ATOM     14  C   UNL     1      47.271   2.959   6.902  0.00  0.00    +0.000 A 
ATOM     15  C   UNL     1      47.675   1.631   6.927  0.00  0.00    +0.000 A 
ATOM     16  C   UNL     1      46.941   0.739   7.691  0.00  0.00    +0.000 A 
ATOM     17  N   UNL     1      45.861   1.085   8.428  0.00  0.00    +0.000 NA
ENDBRANCH  11  12
ENDBRANCH   9  11
ENDBRANCH   6   9
ENDBRANCH   1   3
BRANCH   1  20
ATOM     18  C   UNL     1      48.478   6.924  14.275  0.00  0.00    +0.000 C 
ATOM     19  O   UNL     1      49.037   6.535  13.260  0.00  0.00    +0.000 OA
ATOM     20  N   UNL     1      47.236   7.543  14.256  0.00  0.00    +0.000 N 
ATOM     21  H   UNL     1      46.805   7.859  15.113  0.00  0.00    +0.000 HD
BRANCH  18  29
ATOM     22  C   UNL     1      52.236  10.886  16.468  0.00  0.00    +0.000 C 
ATOM     23  C   UNL     1      51.466   9.607  16.571  0.00  0.00    +0.000 A 
ATOM     24  S   UNL     1      51.453   8.766  18.049  0.00  0.00    +0.000 S 
ATOM     25  C   UNL     1      50.445   7.551  17.427  0.00  0.00    +0.000 A 
ATOM     26  N   UNL     1      50.102   6.526  18.233  0.00  0.00    +0.000 NA
ATOM     27  C   UNL     1      49.266   5.636  17.689  0.00  0.00    +0.000 A 
ATOM     28  C   UNL     1      48.754   5.719  16.413  0.00  0.00    +0.000 A 
ATOM     29  C   UNL     1      49.139   6.794  15.595  0.00  0.00    +0.000 A 
ATOM     30  C   UNL     1      50.054   7.764  16.101  0.00  0.00    +0.000 A 
ATOM     31  C   UNL     1      50.731   8.956  15.583  0.00  0.00    +0.000 A 
ATOM     32  C   UNL     1      50.685   9.473  14.177  0.00  0.00    +0.000 C 
ENDBRANCH  18  29
ENDBRANCH   1  20
TORSDOF 6
ENDMDL
MODEL 9
REMARK VINA RESULT:    -7.699      4.817      6.197
REMARK INTER + INTRA:         -10.582
REMARK INTER:                  -9.503
REMARK INTRA:                  -1.079
REMARK UNBOUND:                -0.183
REMARK  Name = 
REMARK  9 active torsions:
REMARK  status: ('A' for Active; 'I' for Inactive)
REMARK    1  A    between atoms: C_1  and  C_2
REMARK    2  A    between atoms: C_8  and  C_9
REMARK    3  A    between atoms: N_11  and  C_12
REMARK    4  A    between atoms: C_12  and  C_13
REMARK    5  A    between atoms: C_12  and  C_14
REMARK    6  A    between atoms: C_17  and  N_18
REMARK    7  A    between atoms: N_18  and  C_19
REMARK    8  A    between atoms: C_19  and  C_20
REMARK    9  A    between atoms: C_29  and  C_30
REMARK                            x       y       z     vdW  Elec       q    Type
REMARK                         _______ _______ _______ _____ _____    ______ ____
ROOT
ATOM      1  C   UNL     1      43.987   8.517  11.607  0.00  0.00    +0.000 C 
ATOM      2  C   UNL     1      42.790   9.032  10.802  0.00  0.00    +0.000 C 
ENDROOT
BRANCH   1   3
ATOM      3  C   UNL     1      44.227   7.036  11.339  0.00  0.00    +0.000 A 
ATOM      4  C   UNL     1      45.521   6.563  11.084  0.00  0.00    +0.000 A 
ATOM      5  C   UNL     1      45.757   5.198  10.867  0.00  0.00    +0.000 A 
ATOM      6  C   UNL     1      44.719   4.261  10.926  0.00  0.00    +0.000 A 
ATOM      7  C   UNL     1      43.423   4.738  11.142  0.00  0.00    +0.000 A 
ATOM      8  C   UNL     1      43.180   6.103  11.359  0.00  0.00    +0.000 A 
BRANCH   6   9
ATOM      9  N   UNL     1      45.034   2.916  10.685  0.00  0.00    +0.000 N 
ATOM     10  H   UNL     1      46.046   2.788  10.718  0.00  0.00    +0.000 HD
BRANCH   9  11
ATOM     11  C   UNL     1      44.490   2.285   9.478  0.00  0.00    +0.000 C 
BRANCH  11  12
ATOM     12  C   UNL     1      45.517   2.236   8.360  0.00  0.00    +0.000 A 
ATOM     13  C   UNL     1      45.753   3.367   7.577  0.00  0.00    +0.000 A 
ATOM     14  C   UNL     1      46.771   3.333   6.627  0.00  0.00    +0.000 A 
ATOM     15  C   UNL     1      47.523   2.175   6.478  0.00  0.00    +0.000 A 
ATOM     16  C   UNL     1      47.217   1.090   7.282  0.00  0.00    +0.000 A 
ATOM     17  N   UNL     1      46.237   1.093   8.215  0.00  0.00    +0.000 NA
ENDBRANCH  11  12
ENDBRANCH   9  11
ENDBRANCH   6   9
ENDBRANCH   1   3
BRANCH   1  20
ATOM     18  C   UNL     1      46.147   9.541  12.308  0.00  0.00    +0.000 C 
ATOM     19  O   UNL     1      46.057   9.097  13.444  0.00  0.00    +0.000 OA
ATOM     20  N   UNL     1      45.190   9.299  11.333  0.00  0.00    +0.000 N 
ATOM     21  H   UNL     1      45.297   9.676  10.401  0.00  0.00    +0.000 HD
BRANCH  18  29
ATOM     22  C   UNL     1      51.425   7.196  11.183  0.00  0.00    +0.000 C 
ATOM     23  C   UNL     1      50.501   8.369  11.279  0.00  0.00    +0.000 A 
ATOM     24  S   UNL     1      51.028   9.885  10.715  0.00  0.00    +0.000 S 
ATOM     25  C   UNL     1      49.552  10.621  11.111  0.00  0.00    +0.000 A 
ATOM     26  N   UNL     1      49.410  11.942  10.878  0.00  0.00    +0.000 NA
ATOM     27  C   UNL     1      48.204  12.439  11.169  0.00  0.00    +0.000 A 
ATOM     28  C   UNL     1      47.149  11.703  11.659  0.00  0.00    +0.000 A 
ATOM     29  C   UNL     1      47.331  10.331  11.900  0.00  0.00    +0.000 A 
ATOM     30  C   UNL     1      48.604   9.741  11.642  0.00  0.00    +0.000 A 
ATOM     31  C   UNL     1      49.212   8.417  11.803  0.00  0.00    +0.000 A 
ATOM     32  C   UNL     1      48.585   7.214  12.442  0.00  0.00    +0.000 C 
ENDBRANCH  18  29
ENDBRANCH   1  20
TORSDOF 6
ENDMDL
