MODEL 1
REMARK VINA RESULT:    -9.262      0.000      0.000
REMARK INTER + INTRA:         -14.457
REMARK INTER:                 -13.323
REMARK INTRA:                  -1.134
REMARK UNBOUND:                -1.134
REMARK  Name = 
REMARK  8 active torsions:
REMARK  status: ('A' for Active; 'I' for Inactive)
REMARK    1  A    between atoms: C_2  and  O_3
REMARK    2  A    between atoms: C_2  and  C_4
REMARK    3  A    between atoms: C_7  and  N_8
REMARK    4  A    between atoms: N_8  and  C_9
REMARK    5  A    between atoms: C_9  and  C_10
REMARK    6  A    between atoms: C_13  and  C_14
REMARK    7  A    between atoms: C_14  and  N_15
REMARK    8  A    between atoms: C_16  and  C_18
REMARK                            x       y       z     vdW  Elec       q    Type
REMARK                         _______ _______ _______ _____ _____    ______ ____
ROOT
ATOM      1  C   UNL     1      44.871   5.300  11.864  0.00  0.00    +0.000 A 
ATOM      2  C   UNL     1      45.377   4.568  12.946  0.00  0.00    +0.000 A 
ATOM      3  C   UNL     1      46.534   4.986  13.611  0.00  0.00    +0.000 A 
ATOM      4  C   UNL     1      47.196   6.157  13.216  0.00  0.00    +0.000 A 
ATOM      5  C   UNL     1      46.705   6.875  12.118  0.00  0.00    +0.000 A 
ATOM      6  C   UNL     1      45.548   6.457  11.456  0.00  0.00    +0.000 A 
ENDROOT
BRANCH   1   7
ATOM      7  C   UNL     1      43.608   4.863  11.160  0.00  0.00    +0.000 C 
BRANCH   7   8
ATOM      8  N   UNL     1      43.808   4.895   9.718  0.00  0.00    +0.000 N 
ATOM      9  H   UNL     1      42.970   5.145   9.197  0.00  0.00    +0.000 HD
BRANCH   8  13
ATOM     10  C   UNL     1      46.348   2.078   7.871  0.00  0.00    +0.000 A 
ATOM     11  C   UNL     1      45.377   1.640   8.772  0.00  0.00    +0.000 A 
ATOM     12  C   UNL     1      44.520   2.561   9.385  0.00  0.00    +0.000 A 
ATOM     13  C   UNL     1      44.581   3.926   9.081  0.00  0.00    +0.000 A 
ATOM     14  C   UNL     1      45.564   4.347   8.171  0.00  0.00    +0.000 A 
ATOM     15  C   UNL     1      46.437   3.436   7.559  0.00  0.00    +0.000 A 
BRANCH  10  17
ATOM     16  O   UNL     1      48.090   1.338   6.433  0.00  0.00    +0.000 OA
ATOM     17  C   UNL     1      47.235   1.061   7.254  0.00  0.00    +0.000 C 
BRANCH  17  18
ATOM     18  O   UNL     1      46.966  -0.202   7.650  0.00  0.00    +0.000 OA
ATOM     19  H   UNL     1      46.145  -0.300   8.166  0.00  0.00    +0.000 HD
ENDBRANCH  17  18
ENDBRANCH  10  17
ENDBRANCH   8  13
ENDBRANCH   7   8
ENDBRANCH   1   7
BRANCH   4  20
ATOM     20  C   UNL     1      48.437   6.622  13.933  0.00  0.00    +0.000 C 
BRANCH  20  21
ATOM     21  N   UNL     1      48.177   6.835  15.331  0.00  0.00    +0.000 N 
ATOM     22  C   UNL     1      49.117   6.537  16.283  0.00  0.00    +0.000 C 
ATOM     23  O   UNL     1      50.234   6.127  15.988  0.00  0.00    +0.000 OA
ATOM     24  H   UNL     1      47.205   6.941  15.606  0.00  0.00    +0.000 HD
BRANCH  22  25
ATOM     25  C   UNL     1      48.741   6.805  17.677  0.00  0.00    +0.000 A 
ATOM     26  C   UNL     1      48.426   8.101  18.066  0.00  0.00    +0.000 A 
ATOM     27  S   UNL     1      47.934   8.225  19.693  0.00  0.00    +0.000 S 
ATOM     28  C   UNL     1      48.178   6.560  19.951  0.00  0.00    +0.000 A 
ATOM     29  N   UNL     1      47.947   6.000  21.168  0.00  0.00    +0.000 NA
ATOM     30  C   UNL     1      48.206   4.735  21.232  0.00  0.00    +0.000 A 
ATOM     31  N   UNL     1      48.675   3.981  20.186  0.00  0.00    +0.000 N 
ATOM     32  C   UNL     1      48.902   4.499  18.935  0.00  0.00    +0.000 A 
ATOM     33  O   UNL     1      49.300   3.792  18.016  0.00  0.00    +0.000 OA
ATOM     34  C   UNL     1      48.624   5.918  18.809  0.00  0.00    +0.000 A 
ATOM     35  H   UNL     1      48.861   2.996  20.302  0.00  0.00    +0.000 HD
ENDBRANCH  22  25
ENDBRANCH  20  21
ENDBRANCH   4  20
TORSDOF 8
ENDMDL
MODEL 2
REMARK VINA RESULT:    -8.991      1.292      1.470
REMARK INTER + INTRA:         -14.068
REMARK INTER:                 -12.751
REMARK INTRA:                  -1.317
REMARK UNBOUND:                -1.134
REMARK  Name = 
REMARK  8 active torsions:
REMARK  status: ('A' for Active; 'I' for Inactive)
REMARK    1  A    between atoms: C_2  and  O_3
REMARK    2  A    between atoms: C_2  and  C_4
REMARK    3  A    between atoms: C_7  and  N_8
REMARK    4  A    between atoms: N_8  and  C_9
REMARK    5  A    between atoms: C_9  and  C_10
REMARK    6  A    between atoms: C_13  and  C_14
REMARK    7  A    between atoms: C_14  and  N_15
REMARK    8  A    between atoms: C_16  and  C_18
REMARK                            x       y       z     vdW  Elec       q    Type
REMARK                         _______ _______ _______ _____ _____    ______ ____
ROOT
ATOM      1  C   UNL     1      44.644   5.655  11.706  0.00  0.00    +0.000 A 
ATOM      2  C   UNL     1      45.716   5.007  12.335  0.00  0.00    +0.000 A 
ATOM      3  C   UNL     1      46.733   5.745  12.949  0.00  0.00    +0.000 A 
ATOM      4  C   UNL     1      46.686   7.146  12.961  0.00  0.00    +0.000 A 
ATOM      5  C   UNL     1      45.628   7.793  12.311  0.00  0.00    +0.000 A 
ATOM      6  C   UNL     1      44.612   7.056  11.700  0.00  0.00    +0.000 A 
ENDROOT
BRANCH   1   7
ATOM      7  C   UNL     1      43.533   4.859  11.063  0.00  0.00    +0.000 C 
BRANCH   7   8
ATOM      8  N   UNL     1      43.707   4.844   9.618  0.00  0.00    +0.000 N 
ATOM      9  H   UNL     1      42.848   5.024   9.103  0.00  0.00    +0.000 HD
BRANCH   8  13
ATOM     10  C   UNL     1      46.376   2.098   7.846  0.00  0.00    +0.000 A 
ATOM     11  C   UNL     1      45.416   1.638   8.749  0.00  0.00    +0.000 A 
ATOM     12  C   UNL     1      44.517   2.535   9.337  0.00  0.00    +0.000 A 
ATOM     13  C   UNL     1      44.525   3.895   9.006  0.00  0.00    +0.000 A 
ATOM     14  C   UNL     1      45.497   4.338   8.095  0.00  0.00    +0.000 A 
ATOM     15  C   UNL     1      46.412   3.451   7.508  0.00  0.00    +0.000 A 
BRANCH  10  17
ATOM     16  O   UNL     1      48.189   1.409   6.472  0.00  0.00    +0.000 OA
ATOM     17  C   UNL     1      47.309   1.106   7.257  0.00  0.00    +0.000 C 
BRANCH  17  18
ATOM     18  O   UNL     1      47.053  -0.166   7.633  0.00  0.00    +0.000 OA
ATOM     19  H   UNL     1      47.664  -0.829   7.266  0.00  0.00    +0.000 HD
ENDBRANCH  17  18
ENDBRANCH  10  17
ENDBRANCH   8  13
ENDBRANCH   7   8
ENDBRANCH   1   7
BRANCH   4  20
ATOM     20  C   UNL     1      47.772   7.950  13.630  0.00  0.00    +0.000 C 
BRANCH  20  21
ATOM     21  N   UNL     1      48.047   7.448  14.950  0.00  0.00    +0.000 N 
ATOM     22  C   UNL     1      49.324   7.141  15.341  0.00  0.00    +0.000 C 
ATOM     23  O   UNL     1      50.290   7.324  14.610  0.00  0.00    +0.000 OA
ATOM     24  H   UNL     1      47.261   7.072  15.471  0.00  0.00    +0.000 HD
BRANCH  22  25
ATOM     25  C   UNL     1      49.483   6.646  16.715  0.00  0.00    +0.000 A 
ATOM     26  C   UNL     1      50.180   7.408  17.644  0.00  0.00    +0.000 A 
ATOM     27  S   UNL     1      50.202   6.730  19.206  0.00  0.00    +0.000 S 
ATOM     28  C   UNL     1      49.328   5.364  18.685  0.00  0.00    +0.000 A 
ATOM     29  N   UNL     1      49.015   4.363  19.550  0.00  0.00    +0.000 NA
ATOM     30  C   UNL     1      48.380   3.373  19.014  0.00  0.00    +0.000 A 
ATOM     31  N   UNL     1      48.033   3.295  17.689  0.00  0.00    +0.000 N 
ATOM     32  C   UNL     1      48.310   4.291  16.785  0.00  0.00    +0.000 A 
ATOM     33  O   UNL     1      47.964   4.200  15.612  0.00  0.00    +0.000 OA
ATOM     34  C   UNL     1      49.021   5.429  17.338  0.00  0.00    +0.000 A 
ATOM     35  H   UNL     1      47.540   2.491  17.331  0.00  0.00    +0.000 HD
ENDBRANCH  22  25
ENDBRANCH  20  21
ENDBRANCH   4  20
TORSDOF 8
ENDMDL
MODEL 3
REMARK VINA RESULT:    -8.874      1.442      2.440
REMARK INTER + INTRA:         -13.899
REMARK INTER:                 -12.608
REMARK INTRA:                  -1.292
REMARK UNBOUND:                -1.134
REMARK  Name = 
REMARK  8 active torsions:
REMARK  status: ('A' for Active; 'I' for Inactive)
REMARK    1  A    between atoms: C_2  and  O_3
REMARK    2  A    between atoms: C_2  and  C_4
REMARK    3  A    between atoms: C_7  and  N_8
REMARK    4  A    between atoms: N_8  and  C_9
REMARK    5  A    between atoms: C_9  and  C_10
REMARK    6  A    between atoms: C_13  and  C_14
REMARK    7  A    between atoms: C_14  and  N_15
REMARK    8  A    between atoms: C_16  and  C_18
REMARK                            x       y       z     vdW  Elec       q    Type
REMARK                         _______ _______ _______ _____ _____    ______ ____
ROOT
ATOM      1  C   UNL     1      44.827   5.352  11.888  0.00  0.00    +0.000 A 
ATOM      2  C   UNL     1      45.283   4.568  12.957  0.00  0.00    +0.000 A 
ATOM      3  C   UNL     1      46.418   4.944  13.681  0.00  0.00    +0.000 A 
ATOM      4  C   UNL     1      47.108   6.121  13.362  0.00  0.00    +0.000 A 
ATOM      5  C   UNL     1      46.667   6.890  12.277  0.00  0.00    +0.000 A 
ATOM      6  C   UNL     1      45.532   6.516  11.555  0.00  0.00    +0.000 A 
ENDROOT
BRANCH   1   7
ATOM      7  C   UNL     1      43.587   4.959  11.119  0.00  0.00    +0.000 C 
BRANCH   7   8
ATOM      8  N   UNL     1      43.868   4.963   9.690  0.00  0.00    +0.000 N 
ATOM      9  H   UNL     1      43.049   5.151   9.116  0.00  0.00    +0.000 HD
BRANCH   8  13
ATOM     10  C   UNL     1      46.281   2.002   7.900  0.00  0.00    +0.000 A 
ATOM     11  C   UNL     1      46.504   3.345   7.597  0.00  0.00    +0.000 A 
ATOM     12  C   UNL     1      45.719   4.341   8.190  0.00  0.00    +0.000 A 
ATOM     13  C   UNL     1      44.730   4.023   9.128  0.00  0.00    +0.000 A 
ATOM     14  C   UNL     1      44.521   2.666   9.421  0.00  0.00    +0.000 A 
ATOM     15  C   UNL     1      45.293   1.658   8.824  0.00  0.00    +0.000 A 
BRANCH  10  17
ATOM     16  O   UNL     1      46.927  -0.210   7.314  0.00  0.00    +0.000 OA
ATOM     17  C   UNL     1      47.137   0.987   7.238  0.00  0.00    +0.000 C 
BRANCH  17  18
ATOM     18  O   UNL     1      48.199   1.516   6.591  0.00  0.00    +0.000 OA
ATOM     19  H   UNL     1      48.447   1.054   5.770  0.00  0.00    +0.000 HD
ENDBRANCH  17  18
ENDBRANCH  10  17
ENDBRANCH   8  13
ENDBRANCH   7   8
ENDBRANCH   1   7
BRANCH   4  20
ATOM     20  C   UNL     1      48.326   6.540  14.143  0.00  0.00    +0.000 C 
BRANCH  20  21
ATOM     21  N   UNL     1      48.010   6.719  15.536  0.00  0.00    +0.000 N 
ATOM     22  C   UNL     1      48.897   6.361  16.517  0.00  0.00    +0.000 C 
ATOM     23  O   UNL     1      50.011   5.922  16.258  0.00  0.00    +0.000 OA
ATOM     24  H   UNL     1      47.031   6.849  15.771  0.00  0.00    +0.000 HD
BRANCH  22  25
ATOM     25  C   UNL     1      48.467   6.598  17.901  0.00  0.00    +0.000 A 
ATOM     26  C   UNL     1      48.439   5.540  18.802  0.00  0.00    +0.000 A 
ATOM     27  S   UNL     1      47.996   6.000  20.382  0.00  0.00    +0.000 S 
ATOM     28  C   UNL     1      47.771   7.620  19.907  0.00  0.00    +0.000 A 
ATOM     29  N   UNL     1      47.369   8.562  20.801  0.00  0.00    +0.000 NA
ATOM     30  C   UNL     1      47.205   9.741  20.297  0.00  0.00    +0.000 A 
ATOM     31  N   UNL     1      47.407  10.061  18.979  0.00  0.00    +0.000 N 
ATOM     32  C   UNL     1      47.834   9.148  18.046  0.00  0.00    +0.000 A 
ATOM     33  O   UNL     1      48.028   9.473  16.880  0.00  0.00    +0.000 OA
ATOM     34  C   UNL     1      48.036   7.806  18.562  0.00  0.00    +0.000 A 
ATOM     35  H   UNL     1      47.258  11.002  18.647  0.00  0.00    +0.000 HD
ENDBRANCH  22  25
ENDBRANCH  20  21
ENDBRANCH   4  20
TORSDOF 8
ENDMDL
MODEL 4
REMARK VINA RESULT:    -7.123      3.183      8.961
REMARK INTER + INTRA:         -11.381
REMARK INTER:                  -9.892
REMARK INTRA:                  -1.489
REMARK UNBOUND:                -1.134
REMARK  Name = 
REMARK  8 active torsions:
REMARK  status: ('A' for Active; 'I' for Inactive)
REMARK    1  A    between atoms: C_2  and  O_3
REMARK    2  A    between atoms: C_2  and  C_4
REMARK    3  A    between atoms: C_7  and  N_8
REMARK    4  A    between atoms: N_8  and  C_9
REMARK    5  A    between atoms: C_9  and  C_10
REMARK    6  A    between atoms: C_13  and  C_14
REMARK    7  A    between atoms: C_14  and  N_15
REMARK    8  A    between atoms: C_16  and  C_18
REMARK                            x       y       z     vdW  Elec       q    Type
REMARK                         _______ _______ _______ _____ _____    ______ ____
ROOT
ATOM      1  C   UNL     1      50.018   8.556  15.482  0.00  0.00    +0.000 A 
ATOM      2  C   UNL     1      50.507   7.805  14.403  0.00  0.00    +0.000 A 
ATOM      3  C   UNL     1      49.760   7.679  13.228  0.00  0.00    +0.000 A 
ATOM      4  C   UNL     1      48.519   8.318  13.102  0.00  0.00    +0.000 A 
ATOM      5  C   UNL     1      48.020   9.047  14.189  0.00  0.00    +0.000 A 
ATOM      6  C   UNL     1      48.767   9.174  15.362  0.00  0.00    +0.000 A 
ENDROOT
BRANCH   1   7
ATOM      7  C   UNL     1      50.833   8.712  16.744  0.00  0.00    +0.000 C 
BRANCH   7   8
ATOM      8  N   UNL     1      50.136   8.094  17.864  0.00  0.00    +0.000 N 
ATOM      9  H   UNL     1      50.554   8.304  18.767  0.00  0.00    +0.000 HD
BRANCH   8  13
ATOM     10  C   UNL     1      48.513   4.227  17.408  0.00  0.00    +0.000 A 
ATOM     11  C   UNL     1      49.892   4.409  17.304  0.00  0.00    +0.000 A 
ATOM     12  C   UNL     1      50.447   5.685  17.463  0.00  0.00    +0.000 A 
ATOM     13  C   UNL     1      49.649   6.792  17.772  0.00  0.00    +0.000 A 
ATOM     14  C   UNL     1      48.263   6.587  17.874  0.00  0.00    +0.000 A 
ATOM     15  C   UNL     1      47.694   5.317  17.705  0.00  0.00    +0.000 A 
BRANCH  10  17
ATOM     16  O   UNL     1      48.576   1.984  16.621  0.00  0.00    +0.000 OA
ATOM     17  C   UNL     1      47.976   2.856  17.224  0.00  0.00    +0.000 C 
BRANCH  17  18
ATOM     18  O   UNL     1      46.740   2.686  17.741  0.00  0.00    +0.000 OA
ATOM     19  H   UNL     1      46.122   2.198  17.168  0.00  0.00    +0.000 HD
ENDBRANCH  17  18
ENDBRANCH  10  17
ENDBRANCH   8  13
ENDBRANCH   7   8
ENDBRANCH   1   7
BRANCH   4  20
ATOM     20  C   UNL     1      47.713   8.197  11.834  0.00  0.00    +0.000 C 
BRANCH  20  21
ATOM     21  N   UNL     1      46.989   6.954  11.800  0.00  0.00    +0.000 N 
ATOM     22  C   UNL     1      45.626   6.929  11.664  0.00  0.00    +0.000 C 
ATOM     23  O   UNL     1      44.968   7.953  11.517  0.00  0.00    +0.000 OA
ATOM     24  H   UNL     1      47.471   6.133  12.152  0.00  0.00    +0.000 HD
BRANCH  22  25
ATOM     25  C   UNL     1      44.999   5.602  11.633  0.00  0.00    +0.000 A 
ATOM     26  C   UNL     1      44.341   5.126  12.761  0.00  0.00    +0.000 A 
ATOM     27  S   UNL     1      43.602   3.608  12.531  0.00  0.00    +0.000 S 
ATOM     28  C   UNL     1      44.180   3.506  10.933  0.00  0.00    +0.000 A 
ATOM     29  N   UNL     1      43.909   2.422  10.159  0.00  0.00    +0.000 NA
ATOM     30  C   UNL     1      44.439   2.461   8.981  0.00  0.00    +0.000 A 
ATOM     31  N   UNL     1      45.216   3.488   8.509  0.00  0.00    +0.000 N 
ATOM     32  C   UNL     1      45.498   4.611   9.247  0.00  0.00    +0.000 A 
ATOM     33  O   UNL     1      46.178   5.521   8.786  0.00  0.00    +0.000 OA
ATOM     34  C   UNL     1      44.924   4.618  10.580  0.00  0.00    +0.000 A 
ATOM     35  H   UNL     1      45.604   3.456   7.578  0.00  0.00    +0.000 HD
ENDBRANCH  22  25
ENDBRANCH  20  21
ENDBRANCH   4  20
TORSDOF 8
ENDMDL
MODEL 5
REMARK VINA RESULT:    -7.093      3.956      8.454
REMARK INTER + INTRA:         -11.337
REMARK INTER:                  -9.154
REMARK INTRA:                  -2.183
REMARK UNBOUND:                -1.134
REMARK  Name = 
REMARK  8 active torsions:
REMARK  status: ('A' for Active; 'I' for Inactive)
REMARK    1  A    between atoms: C_2  and  O_3
REMARK    2  A    between atoms: C_2  and  C_4
REMARK    3  A    between atoms: C_7  and  N_8
REMARK    4  A    between atoms: N_8  and  C_9
REMARK    5  A    between atoms: C_9  and  C_10
REMARK    6  A    between atoms: C_13  and  C_14
REMARK    7  A    between atoms: C_14  and  N_15
REMARK    8  A    between atoms: C_16  and  C_18
REMARK                            x       y       z     vdW  Elec       q    Type
REMARK                         _______ _______ _______ _____ _____    ______ ____
ROOT
ATOM      1  C   UNL     1      49.290   7.878  19.633  0.00  0.00    +0.000 A 
ATOM      2  C   UNL     1      50.351   8.407  18.884  0.00  0.00    +0.000 A 
ATOM      3  C   UNL     1      50.109   9.061  17.672  0.00  0.00    +0.000 A 
ATOM      4  C   UNL     1      48.800   9.215  17.196  0.00  0.00    +0.000 A 
ATOM      5  C   UNL     1      47.743   8.664  17.932  0.00  0.00    +0.000 A 
ATOM      6  C   UNL     1      47.985   8.013  19.144  0.00  0.00    +0.000 A 
ENDROOT
BRANCH   1   7
ATOM      7  C   UNL     1      49.547   7.192  20.954  0.00  0.00    +0.000 C 
BRANCH   7   8
ATOM      8  N   UNL     1      50.380   6.015  20.748  0.00  0.00    +0.000 N 
ATOM      9  H   UNL     1      51.376   6.202  20.833  0.00  0.00    +0.000 HD
BRANCH   8  13
ATOM     10  C   UNL     1      49.267   3.352  17.670  0.00  0.00    +0.000 A 
ATOM     11  C   UNL     1      50.530   3.944  17.643  0.00  0.00    +0.000 A 
ATOM     12  C   UNL     1      50.918   4.822  18.662  0.00  0.00    +0.000 A 
ATOM     13  C   UNL     1      50.078   5.092  19.748  0.00  0.00    +0.000 A 
ATOM     14  C   UNL     1      48.811   4.486  19.758  0.00  0.00    +0.000 A 
ATOM     15  C   UNL     1      48.405   3.615  18.736  0.00  0.00    +0.000 A 
BRANCH  10  17
ATOM     16  O   UNL     1      49.686   1.638  16.077  0.00  0.00    +0.000 OA
ATOM     17  C   UNL     1      48.903   2.436  16.561  0.00  0.00    +0.000 C 
BRANCH  17  18
ATOM     18  O   UNL     1      47.643   2.610  16.109  0.00  0.00    +0.000 OA
ATOM     19  H   UNL     1      47.000   1.952  16.431  0.00  0.00    +0.000 HD
ENDBRANCH  17  18
ENDBRANCH  10  17
ENDBRANCH   8  13
ENDBRANCH   7   8
ENDBRANCH   1   7
BRANCH   4  20
ATOM     20  C   UNL     1      48.529   9.927  15.896  0.00  0.00    +0.000 C 
BRANCH  20  21
ATOM     21  N   UNL     1      47.574   9.204  15.100  0.00  0.00    +0.000 N 
ATOM     22  C   UNL     1      47.972   8.430  14.041  0.00  0.00    +0.000 C 
ATOM     23  O   UNL     1      49.154   8.278  13.755  0.00  0.00    +0.000 OA
ATOM     24  H   UNL     1      46.605   9.499  15.166  0.00  0.00    +0.000 HD
BRANCH  22  25
ATOM     25  C   UNL     1      46.909   7.732  13.308  0.00  0.00    +0.000 A 
ATOM     26  C   UNL     1      46.043   8.457  12.498  0.00  0.00    +0.000 A 
ATOM     27  S   UNL     1      44.921   7.488  11.657  0.00  0.00    +0.000 S 
ATOM     28  C   UNL     1      45.515   6.070  12.388  0.00  0.00    +0.000 A 
ATOM     29  N   UNL     1      44.970   4.857  12.106  0.00  0.00    +0.000 NA
ATOM     30  C   UNL     1      45.495   3.871  12.756  0.00  0.00    +0.000 A 
ATOM     31  N   UNL     1      46.515   3.991  13.665  0.00  0.00    +0.000 N 
ATOM     32  C   UNL     1      47.110   5.192  13.965  0.00  0.00    +0.000 A 
ATOM     33  O   UNL     1      48.037   5.261  14.765  0.00  0.00    +0.000 OA
ATOM     34  C   UNL     1      46.559   6.333  13.258  0.00  0.00    +0.000 A 
ATOM     35  H   UNL     1      46.879   3.181  14.143  0.00  0.00    +0.000 HD
ENDBRANCH  22  25
ENDBRANCH  20  21
ENDBRANCH   4  20
TORSDOF 8
ENDMDL
MODEL 6
REMARK VINA RESULT:    -6.959      3.878      8.813
REMARK INTER + INTRA:         -11.145
REMARK INTER:                  -9.536
REMARK INTRA:                  -1.608
REMARK UNBOUND:                -1.134
REMARK  Name = 
REMARK  8 active torsions:
REMARK  status: ('A' for Active; 'I' for Inactive)
REMARK    1  A    between atoms: C_2  and  O_3
REMARK    2  A    between atoms: C_2  and  C_4
REMARK    3  A    between atoms: C_7  and  N_8
REMARK    4  A    between atoms: N_8  and  C_9
REMARK    5  A    between atoms: C_9  and  C_10
REMARK    6  A    between atoms: C_13  and  C_14
REMARK    7  A    between atoms: C_14  and  N_15
REMARK    8  A    between atoms: C_16  and  C_18
REMARK                            x       y       z     vdW  Elec       q    Type
REMARK                         _______ _______ _______ _____ _____    ______ ____
ROOT
ATOM      1  C   UNL     1      49.990   8.318  18.046  0.00  0.00    +0.000 A 
ATOM      2  C   UNL     1      48.656   8.725  17.913  0.00  0.00    +0.000 A 
ATOM      3  C   UNL     1      48.106   8.960  16.649  0.00  0.00    +0.000 A 
ATOM      4  C   UNL     1      48.876   8.773  15.493  0.00  0.00    +0.000 A 
ATOM      5  C   UNL     1      50.217   8.391  15.628  0.00  0.00    +0.000 A 
ATOM      6  C   UNL     1      50.765   8.154  16.891  0.00  0.00    +0.000 A 
ENDROOT
BRANCH   1   7
ATOM      7  C   UNL     1      50.579   8.041  19.410  0.00  0.00    +0.000 C 
BRANCH   7   8
ATOM      8  N   UNL     1      50.070   6.776  19.922  0.00  0.00    +0.000 N 
ATOM      9  H   UNL     1      50.306   6.609  20.897  0.00  0.00    +0.000 HD
BRANCH   8  13
ATOM     10  C   UNL     1      50.302   3.173  17.739  0.00  0.00    +0.000 A 
ATOM     11  C   UNL     1      49.055   3.744  17.991  0.00  0.00    +0.000 A 
ATOM     12  C   UNL     1      48.961   4.945  18.705  0.00  0.00    +0.000 A 
ATOM     13  C   UNL     1      50.106   5.622  19.141  0.00  0.00    +0.000 A 
ATOM     14  C   UNL     1      51.352   5.032  18.876  0.00  0.00    +0.000 A 
ATOM     15  C   UNL     1      51.459   3.824  18.173  0.00  0.00    +0.000 A 
BRANCH  10  17
ATOM     16  O   UNL     1      49.695   1.703  15.972  0.00  0.00    +0.000 OA
ATOM     17  C   UNL     1      50.345   1.897  16.984  0.00  0.00    +0.000 C 
BRANCH  17  18
ATOM     18  O   UNL     1      51.127   0.957  17.556  0.00  0.00    +0.000 OA
ATOM     19  H   UNL     1      51.872   1.309  18.076  0.00  0.00    +0.000 HD
ENDBRANCH  17  18
ENDBRANCH  10  17
ENDBRANCH   8  13
ENDBRANCH   7   8
ENDBRANCH   1   7
BRANCH   4  20
ATOM     20  C   UNL     1      48.289   9.013  14.126  0.00  0.00    +0.000 C 
BRANCH  20  21
ATOM     21  N   UNL     1      47.336   7.990  13.786  0.00  0.00    +0.000 N 
ATOM     22  C   UNL     1      47.727   6.834  13.163  0.00  0.00    +0.000 C 
ATOM     23  O   UNL     1      48.902   6.595  12.913  0.00  0.00    +0.000 OA
ATOM     24  H   UNL     1      46.358   8.263  13.765  0.00  0.00    +0.000 HD
BRANCH  22  25
ATOM     25  C   UNL     1      46.667   5.860  12.874  0.00  0.00    +0.000 A 
ATOM     26  C   UNL     1      46.863   4.519  13.182  0.00  0.00    +0.000 A 
ATOM     27  S   UNL     1      45.508   3.538  12.858  0.00  0.00    +0.000 S 
ATOM     28  C   UNL     1      44.629   4.860  12.243  0.00  0.00    +0.000 A 
ATOM     29  N   UNL     1      43.365   4.699  11.770  0.00  0.00    +0.000 NA
ATOM     30  C   UNL     1      42.829   5.778  11.302  0.00  0.00    +0.000 A 
ATOM     31  N   UNL     1      43.446   7.002  11.263  0.00  0.00    +0.000 N 
ATOM     32  C   UNL     1      44.713   7.215  11.748  0.00  0.00    +0.000 A 
ATOM     33  O   UNL     1      45.226   8.328  11.719  0.00  0.00    +0.000 OA
ATOM     34  C   UNL     1      45.359   6.034  12.288  0.00  0.00    +0.000 A 
ATOM     35  H   UNL     1      42.973   7.807  10.880  0.00  0.00    +0.000 HD
ENDBRANCH  22  25
ENDBRANCH  20  21
ENDBRANCH   4  20
TORSDOF 8
ENDMDL
MODEL 7
REMARK VINA RESULT:    -6.868      4.911      8.238
REMARK INTER + INTRA:         -11.014
REMARK INTER:                  -9.912
REMARK INTRA:                  -1.102
REMARK UNBOUND:                -1.134
REMARK  Name = 
REMARK  8 active torsions:
REMARK  status: ('A' for Active; 'I' for Inactive)
REMARK    1  A    between atoms: C_2  and  O_3
REMARK    2  A    between atoms: C_2  and  C_4
REMARK    3  A    between atoms: C_7  and  N_8
REMARK    4  A    between atoms: N_8  and  C_9
REMARK    5  A    between atoms: C_9  and  C_10
REMARK    6  A    between atoms: C_13  and  C_14
REMARK    7  A    between atoms: C_14  and  N_15
REMARK    8  A    between atoms: C_16  and  C_18
REMARK                            x       y       z     vdW  Elec       q    Type
REMARK                         _______ _______ _______ _____ _____    ______ ____
ROOT
ATOM      1  C   UNL     1      50.821   8.533  11.849  0.00  0.00    +0.000 A 
ATOM      2  C   UNL     1      49.782   7.981  11.086  0.00  0.00    +0.000 A 
ATOM      3  C   UNL     1      48.526   7.751  11.654  0.00  0.00    +0.000 A 
ATOM      4  C   UNL     1      48.278   8.087  12.992  0.00  0.00    +0.000 A 
ATOM      5  C   UNL     1      49.324   8.615  13.762  0.00  0.00    +0.000 A 
ATOM      6  C   UNL     1      50.578   8.846  13.193  0.00  0.00    +0.000 A 
ENDROOT
BRANCH   1   7
ATOM      7  C   UNL     1      52.172   8.803  11.231  0.00  0.00    +0.000 C 
BRANCH   7   8
ATOM      8  N   UNL     1      52.965   7.582  11.219  0.00  0.00    +0.000 N 
ATOM      9  H   UNL     1      53.801   7.635  11.797  0.00  0.00    +0.000 HD
BRANCH   8  13
ATOM     10  C   UNL     1      53.463   5.213   7.763  0.00  0.00    +0.000 A 
ATOM     11  C   UNL     1      52.677   6.364   7.700  0.00  0.00    +0.000 A 
ATOM     12  C   UNL     1      52.510   7.166   8.835  0.00  0.00    +0.000 A 
ATOM     13  C   UNL     1      53.157   6.865  10.039  0.00  0.00    +0.000 A 
ATOM     14  C   UNL     1      53.945   5.703  10.083  0.00  0.00    +0.000 A 
ATOM     15  C   UNL     1      54.110   4.885   8.956  0.00  0.00    +0.000 A 
BRANCH  10  17
ATOM     16  O   UNL     1      53.941   4.862   5.461  0.00  0.00    +0.000 OA
ATOM     17  C   UNL     1      53.601   4.395   6.533  0.00  0.00    +0.000 C 
BRANCH  17  18
ATOM     18  O   UNL     1      53.262   3.100   6.706  0.00  0.00    +0.000 OA
ATOM     19  H   UNL     1      52.771   2.913   7.527  0.00  0.00    +0.000 HD
ENDBRANCH  17  18
ENDBRANCH  10  17
ENDBRANCH   8  13
ENDBRANCH   7   8
ENDBRANCH   1   7
BRANCH   4  20
ATOM     20  C   UNL     1      46.924   7.853  13.610  0.00  0.00    +0.000 C 
BRANCH  20  21
ATOM     21  N   UNL     1      46.354   6.614  13.152  0.00  0.00    +0.000 N 
ATOM     22  C   UNL     1      45.264   6.598  12.322  0.00  0.00    +0.000 C 
ATOM     23  O   UNL     1      44.758   7.628  11.893  0.00  0.00    +0.000 OA
ATOM     24  H   UNL     1      46.599   5.777  13.671  0.00  0.00    +0.000 HD
BRANCH  22  25
ATOM     25  C   UNL     1      44.777   5.274  11.913  0.00  0.00    +0.000 A 
ATOM     26  C   UNL     1      44.085   4.486  12.825  0.00  0.00    +0.000 A 
ATOM     27  S   UNL     1      43.520   3.018  12.168  0.00  0.00    +0.000 S 
ATOM     28  C   UNL     1      44.228   3.358  10.657  0.00  0.00    +0.000 A 
ATOM     29  N   UNL     1      44.126   2.480   9.625  0.00  0.00    +0.000 NA
ATOM     30  C   UNL     1      44.739   2.848   8.548  0.00  0.00    +0.000 A 
ATOM     31  N   UNL     1      45.444   4.017   8.413  0.00  0.00    +0.000 N 
ATOM     32  C   UNL     1      45.556   4.942   9.422  0.00  0.00    +0.000 A 
ATOM     33  O   UNL     1      46.175   5.988   9.260  0.00  0.00    +0.000 OA
ATOM     34  C   UNL     1      44.882   4.577  10.654  0.00  0.00    +0.000 A 
ATOM     35  H   UNL     1      45.904   4.245   7.545  0.00  0.00    +0.000 HD
ENDBRANCH  22  25
ENDBRANCH  20  21
ENDBRANCH   4  20
TORSDOF 8
ENDMDL
MODEL 8
REMARK VINA RESULT:    -6.507      5.645      7.330
REMARK INTER + INTRA:         -10.495
REMARK INTER:                  -9.343
REMARK INTRA:                  -1.152
REMARK UNBOUND:                -1.134
REMARK  Name = 
REMARK  8 active torsions:
REMARK  status: ('A' for Active; 'I' for Inactive)
REMARK    1  A    between atoms: C_2  and  O_3
REMARK    2  A    between atoms: C_2  and  C_4
REMARK    3  A    between atoms: C_7  and  N_8
REMARK    4  A    between atoms: N_8  and  C_9
REMARK    5  A    between atoms: C_9  and  C_10
REMARK    6  A    between atoms: C_13  and  C_14
REMARK    7  A    between atoms: C_14  and  N_15
REMARK    8  A    between atoms: C_16  and  C_18
REMARK                            x       y       z     vdW  Elec       q    Type
REMARK                         _______ _______ _______ _____ _____    ______ ____
ROOT
ATOM      1  C   UNL     1      44.484   9.044  11.606  0.00  0.00    +0.000 A 
ATOM      2  C   UNL     1      45.508   8.997  12.562  0.00  0.00    +0.000 A 
ATOM      3  C   UNL     1      46.022   7.771  12.995  0.00  0.00    +0.000 A 
ATOM      4  C   UNL     1      45.534   6.569  12.465  0.00  0.00    +0.000 A 
ATOM      5  C   UNL     1      44.493   6.615  11.529  0.00  0.00    +0.000 A 
ATOM      6  C   UNL     1      43.982   7.840  11.095  0.00  0.00    +0.000 A 
ENDROOT
BRANCH   1   7
ATOM      7  C   UNL     1      43.944  10.368  11.120  0.00  0.00    +0.000 C 
BRANCH   7   8
ATOM      8  N   UNL     1      43.074  10.950  12.133  0.00  0.00    +0.000 N 
ATOM      9  H   UNL     1      43.315  10.674  13.082  0.00  0.00    +0.000 HD
BRANCH   8  13
ATOM     10  C   UNL     1      38.903  11.020  11.505  0.00  0.00    +0.000 A 
ATOM     11  C   UNL     1      39.449  11.736  12.571  0.00  0.00    +0.000 A 
ATOM     12  C   UNL     1      40.832  11.731  12.786  0.00  0.00    +0.000 A 
ATOM     13  C   UNL     1      41.701  11.054  11.922  0.00  0.00    +0.000 A 
ATOM     14  C   UNL     1      41.132  10.341  10.855  0.00  0.00    +0.000 A 
ATOM     15  C   UNL     1      39.747  10.327  10.635  0.00  0.00    +0.000 A 
BRANCH  10  17
ATOM     16  O   UNL     1      36.887  10.812  10.263  0.00  0.00    +0.000 OA
ATOM     17  C   UNL     1      37.431  11.054  11.325  0.00  0.00    +0.000 C 
BRANCH  17  18
ATOM     18  O   UNL     1      36.760  11.429  12.436  0.00  0.00    +0.000 OA
ATOM     19  H   UNL     1      37.152  11.120  13.272  0.00  0.00    +0.000 HD
ENDBRANCH  17  18
ENDBRANCH  10  17
ENDBRANCH   8  13
ENDBRANCH   7   8
ENDBRANCH   1   7
BRANCH   4  20
ATOM     20  C   UNL     1      46.089   5.243  12.918  0.00  0.00    +0.000 C 
BRANCH  20  21
ATOM     21  N   UNL     1      46.643   5.340  14.242  0.00  0.00    +0.000 N 
ATOM     22  C   UNL     1      47.206   4.253  14.859  0.00  0.00    +0.000 C 
ATOM     23  O   UNL     1      47.310   3.169  14.297  0.00  0.00    +0.000 OA
ATOM     24  H   UNL     1      46.359   6.139  14.801  0.00  0.00    +0.000 HD
BRANCH  22  25
ATOM     25  C   UNL     1      47.745   4.475  16.206  0.00  0.00    +0.000 A 
ATOM     26  C   UNL     1      47.307   3.684  17.261  0.00  0.00    +0.000 A 
ATOM     27  S   UNL     1      48.090   4.017  18.737  0.00  0.00    +0.000 S 
ATOM     28  C   UNL     1      49.003   5.270  18.033  0.00  0.00    +0.000 A 
ATOM     29  N   UNL     1      49.886   5.992  18.773  0.00  0.00    +0.000 NA
ATOM     30  C   UNL     1      50.485   6.933  18.120  0.00  0.00    +0.000 A 
ATOM     31  N   UNL     1      50.280   7.215  16.794  0.00  0.00    +0.000 N 
ATOM     32  C   UNL     1      49.416   6.499  16.003  0.00  0.00    +0.000 A 
ATOM     33  O   UNL     1      49.273   6.763  14.814  0.00  0.00    +0.000 OA
ATOM     34  C   UNL     1      48.717   5.427  16.689  0.00  0.00    +0.000 A 
ATOM     35  H   UNL     1      50.778   7.967  16.342  0.00  0.00    +0.000 HD
ENDBRANCH  22  25
ENDBRANCH  20  21
ENDBRANCH   4  20
TORSDOF 8
ENDMDL
MODEL 9
REMARK VINA RESULT:    -6.341      3.285      4.772
REMARK INTER + INTRA:         -10.256
REMARK INTER:                  -9.185
REMARK INTRA:                  -1.070
REMARK UNBOUND:                -1.134
REMARK  Name = 
REMARK  8 active torsions:
REMARK  status: ('A' for Active; 'I' for Inactive)
REMARK    1  A    between atoms: C_2  and  O_3
REMARK    2  A    between atoms: C_2  and  C_4
REMARK    3  A    between atoms: C_7  and  N_8
REMARK    4  A    between atoms: N_8  and  C_9
REMARK    5  A    between atoms: C_9  and  C_10
REMARK    6  A    between atoms: C_13  and  C_14
REMARK    7  A    between atoms: C_14  and  N_15
REMARK    8  A    between atoms: C_16  and  C_18
REMARK                            x       y       z     vdW  Elec       q    Type
REMARK                         _______ _______ _______ _____ _____    ______ ____
ROOT
ATOM      1  C   UNL     1      48.545   7.776  13.526  0.00  0.00    +0.000 A 
ATOM      2  C   UNL     1      48.441   6.720  14.442  0.00  0.00    +0.000 A 
ATOM      3  C   UNL     1      49.073   6.792  15.687  0.00  0.00    +0.000 A 
ATOM      4  C   UNL     1      49.805   7.932  16.047  0.00  0.00    +0.000 A 
ATOM      5  C   UNL     1      49.930   8.976  15.122  0.00  0.00    +0.000 A 
ATOM      6  C   UNL     1      49.297   8.904  13.879  0.00  0.00    +0.000 A 
ENDROOT
BRANCH   1   7
ATOM      7  C   UNL     1      47.843   7.709  12.190  0.00  0.00    +0.000 C 
BRANCH   7   8
ATOM      8  N   UNL     1      46.407   7.582  12.391  0.00  0.00    +0.000 N 
ATOM      9  H   UNL     1      46.085   7.965  13.277  0.00  0.00    +0.000 HD
BRANCH   8  13
ATOM     10  C   UNL     1      44.570   3.993  11.147  0.00  0.00    +0.000 A 
ATOM     11  C   UNL     1      44.575   4.329  12.501  0.00  0.00    +0.000 A 
ATOM     12  C   UNL     1      45.171   5.521  12.929  0.00  0.00    +0.000 A 
ATOM     13  C   UNL     1      45.732   6.421  12.016  0.00  0.00    +0.000 A 
ATOM     14  C   UNL     1      45.716   6.066  10.657  0.00  0.00    +0.000 A 
ATOM     15  C   UNL     1      45.134   4.869  10.217  0.00  0.00    +0.000 A 
BRANCH  10  17
ATOM     16  O   UNL     1      44.199   2.135   9.712  0.00  0.00    +0.000 OA
ATOM     17  C   UNL     1      43.931   2.715  10.748  0.00  0.00    +0.000 C 
BRANCH  17  18
ATOM     18  O   UNL     1      42.989   2.289  11.617  0.00  0.00    +0.000 OA
ATOM     19  H   UNL     1      42.317   1.699  11.231  0.00  0.00    +0.000 HD
ENDBRANCH  17  18
ENDBRANCH  10  17
ENDBRANCH   8  13
ENDBRANCH   7   8
ENDBRANCH   1   7
BRANCH   4  20
ATOM     20  C   UNL     1      50.481   8.023  17.391  0.00  0.00    +0.000 C 
BRANCH  20  21
ATOM     21  N   UNL     1      51.330   6.885  17.621  0.00  0.00    +0.000 N 
ATOM     22  C   UNL     1      50.971   5.898  18.502  0.00  0.00    +0.000 C 
ATOM     23  O   UNL     1      49.898   5.912  19.093  0.00  0.00    +0.000 OA
ATOM     24  H   UNL     1      52.300   6.970  17.335  0.00  0.00    +0.000 HD
BRANCH  22  25
ATOM     25  C   UNL     1      51.914   4.781  18.647  0.00  0.00    +0.000 A 
ATOM     26  C   UNL     1      53.110   4.976  19.326  0.00  0.00    +0.000 A 
ATOM     27  S   UNL     1      54.050   3.562  19.475  0.00  0.00    +0.000 S 
ATOM     28  C   UNL     1      52.917   2.650  18.589  0.00  0.00    +0.000 A 
ATOM     29  N   UNL     1      53.125   1.331  18.337  0.00  0.00    +0.000 NA
ATOM     30  C   UNL     1      52.203   0.771  17.625  0.00  0.00    +0.000 A 
ATOM     31  N   UNL     1      51.091   1.414  17.144  0.00  0.00    +0.000 N 
ATOM     32  C   UNL     1      50.829   2.738  17.391  0.00  0.00    +0.000 A 
ATOM     33  O   UNL     1      49.813   3.277  16.965  0.00  0.00    +0.000 OA
ATOM     34  C   UNL     1      51.835   3.414  18.190  0.00  0.00    +0.000 A 
ATOM     35  H   UNL     1      50.408   0.919  16.590  0.00  0.00    +0.000 HD
ENDBRANCH  22  25
ENDBRANCH  20  21
ENDBRANCH   4  20
TORSDOF 8
ENDMDL
