MODEL 1
REMARK VINA RESULT:    -8.444      0.000      0.000
REMARK INTER + INTRA:         -11.617
REMARK INTER:                 -10.912
REMARK INTRA:                  -0.704
REMARK UNBOUND:                -0.704
REMARK  Name = 
REMARK  5 active torsions:
REMARK  status: ('A' for Active; 'I' for Inactive)
REMARK    1  A    between atoms: C_2  and  C_4
REMARK    2  A    between atoms: C_7  and  C_8
REMARK    3  A    between atoms: C_8  and  O_9
REMARK    4  A    between atoms: O_9  and  C_10
REMARK    5  A    between atoms: C_15  and  C_16
REMARK                            x       y       z     vdW  Elec       q    Type
REMARK                         _______ _______ _______ _____ _____    ______ ____
ROOT
ATOM      1  C   UNL     1      45.428   5.654  11.765  0.00  0.00    +0.000 A 
ATOM      2  C   UNL     1      45.562   4.595  12.657  0.00  0.00    +0.000 A 
ATOM      3  C   UNL     1      46.617   4.591  13.552  0.00  0.00    +0.000 A 
ATOM      4  F   UNL     1      46.729   3.585  14.429  0.00  0.00    +0.000 F 
ATOM      5  C   UNL     1      47.579   5.593  13.541  0.00  0.00    +0.000 A 
ATOM      6  C   UNL     1      47.544   6.600  12.569  0.00  0.00    +0.000 A 
ATOM      7  C   UNL     1      46.417   6.644  11.722  0.00  0.00    +0.000 A 
ENDROOT
BRANCH   6   8
ATOM      8  C   UNL     1      48.681   7.596  12.359  0.00  0.00    +0.000 C 
ATOM      9  C   UNL     1      49.377   7.935  13.697  0.00  0.00    +0.000 C 
ATOM     10  C   UNL     1      48.503   8.835  14.571  0.00  0.00    +0.000 C 
ATOM     11  N   UNL     1      48.193  10.097  13.899  0.00  0.00    +0.000 NA
ATOM     12  C   UNL     1      47.521   9.875  12.621  0.00  0.00    +0.000 C 
ATOM     13  C   UNL     1      48.303   8.939  11.691  0.00  0.00    +0.000 C 
ATOM     14  H   UNL     1      49.059  10.611  13.738  0.00  0.00    +0.000 HD
ENDBRANCH   6   8
BRANCH   1  15
ATOM     15  O   UNL     1      44.412   5.795  10.858  0.00  0.00    +0.000 OA
BRANCH  15  16
ATOM     16  C   UNL     1      43.824   4.567  10.425  0.00  0.00    +0.000 C 
BRANCH  16  20
ATOM     17  C   UNL     1      46.492   2.503   7.735  0.00  0.00    +0.000 A 
ATOM     18  C   UNL     1      46.390   3.897   7.675  0.00  0.00    +0.000 A 
ATOM     19  C   UNL     1      45.503   4.571   8.518  0.00  0.00    +0.000 A 
ATOM     20  C   UNL     1      44.700   3.859   9.419  0.00  0.00    +0.000 A 
ATOM     21  C   UNL     1      44.798   2.461   9.463  0.00  0.00    +0.000 A 
ATOM     22  C   UNL     1      45.678   1.782   8.620  0.00  0.00    +0.000 A 
BRANCH  17  24
ATOM     23  N   UNL     1      48.517   2.452   6.389  0.00  0.00    +0.000 N 
ATOM     24  C   UNL     1      47.454   1.751   6.891  0.00  0.00    +0.000 C 
ATOM     25  O   UNL     1      47.340   0.549   6.693  0.00  0.00    +0.000 OA
ATOM     26  H   UNL     1      49.231   1.906   5.925  0.00  0.00    +0.000 HD
ATOM     27  H   UNL     1      48.780   3.358   6.750  0.00  0.00    +0.000 HD
ENDBRANCH  17  24
ENDBRANCH  16  20
ENDBRANCH  15  16
ENDBRANCH   1  15
TORSDOF 5
ENDMDL
MODEL 2
REMARK VINA RESULT:    -7.903      1.691      2.035
REMARK INTER + INTRA:         -10.917
REMARK INTER:                 -10.546
REMARK INTRA:                  -0.371
REMARK UNBOUND:                -0.704
REMARK  Name = 
REMARK  5 active torsions:
REMARK  status: ('A' for Active; 'I' for Inactive)
REMARK    1  A    between atoms: C_2  and  C_4
REMARK    2  A    between atoms: C_7  and  C_8
REMARK    3  A    between atoms: C_8  and  O_9
REMARK    4  A    between atoms: O_9  and  C_10
REMARK    5  A    between atoms: C_15  and  C_16
REMARK                            x       y       z     vdW  Elec       q    Type
REMARK                         _______ _______ _______ _____ _____    ______ ____
ROOT
ATOM      1  C   UNL     1      44.915   5.641  11.829  0.00  0.00    +0.000 A 
ATOM      2  C   UNL     1      44.342   6.899  11.670  0.00  0.00    +0.000 A 
ATOM      3  C   UNL     1      45.142   8.024  11.757  0.00  0.00    +0.000 A 
ATOM      4  F   UNL     1      44.595   9.234  11.577  0.00  0.00    +0.000 F 
ATOM      5  C   UNL     1      46.495   7.929  12.057  0.00  0.00    +0.000 A 
ATOM      6  C   UNL     1      47.070   6.688  12.352  0.00  0.00    +0.000 A 
ATOM      7  C   UNL     1      46.269   5.542  12.172  0.00  0.00    +0.000 A 
ENDROOT
BRANCH   6   8
ATOM      8  C   UNL     1      48.486   6.534  12.904  0.00  0.00    +0.000 C 
ATOM      9  C   UNL     1      48.524   6.821  14.422  0.00  0.00    +0.000 C 
ATOM     10  C   UNL     1      48.374   8.315  14.714  0.00  0.00    +0.000 C 
ATOM     11  N   UNL     1      49.442   9.094  14.087  0.00  0.00    +0.000 NA
ATOM     12  C   UNL     1      49.477   8.892  12.640  0.00  0.00    +0.000 C 
ATOM     13  C   UNL     1      49.577   7.412  12.248  0.00  0.00    +0.000 C 
ATOM     14  H   UNL     1      50.338   8.815  14.486  0.00  0.00    +0.000 HD
ENDBRANCH   6   8
BRANCH   1  15
ATOM     15  O   UNL     1      44.243   4.452  11.729  0.00  0.00    +0.000 OA
BRANCH  15  16
ATOM     16  C   UNL     1      43.576   4.247  10.481  0.00  0.00    +0.000 C 
BRANCH  16  20
ATOM     17  C   UNL     1      46.386   2.466   7.734  0.00  0.00    +0.000 A 
ATOM     18  C   UNL     1      46.184   3.850   7.716  0.00  0.00    +0.000 A 
ATOM     19  C   UNL     1      45.251   4.431   8.578  0.00  0.00    +0.000 A 
ATOM     20  C   UNL     1      44.501   3.636   9.455  0.00  0.00    +0.000 A 
ATOM     21  C   UNL     1      44.699   2.248   9.456  0.00  0.00    +0.000 A 
ATOM     22  C   UNL     1      45.626   1.661   8.594  0.00  0.00    +0.000 A 
BRANCH  17  24
ATOM     23  N   UNL     1      48.466   2.575   6.479  0.00  0.00    +0.000 N 
ATOM     24  C   UNL     1      47.399   1.812   6.869  0.00  0.00    +0.000 C 
ATOM     25  O   UNL     1      47.320   0.631   6.558  0.00  0.00    +0.000 OA
ATOM     26  H   UNL     1      49.211   2.087   5.999  0.00  0.00    +0.000 HD
ATOM     27  H   UNL     1      48.693   3.449   6.932  0.00  0.00    +0.000 HD
ENDBRANCH  17  24
ENDBRANCH  16  20
ENDBRANCH  15  16
ENDBRANCH   1  15
TORSDOF 5
ENDMDL
MODEL 3
REMARK VINA RESULT:    -7.463      4.856      7.822
REMARK INTER + INTRA:         -10.349
REMARK INTER:                 -10.159
REMARK INTRA:                  -0.190
REMARK UNBOUND:                -0.704
REMARK  Name = 
REMARK  5 active torsions:
REMARK  status: ('A' for Active; 'I' for Inactive)
REMARK    1  A    between atoms: C_2  and  C_4
REMARK    2  A    between atoms: C_7  and  C_8
REMARK    3  A    between atoms: C_8  and  O_9
REMARK    4  A    between atoms: O_9  and  C_10
REMARK    5  A    between atoms: C_15  and  C_16
REMARK                            x       y       z     vdW  Elec       q    Type
REMARK                         _______ _______ _______ _____ _____    ______ ____
ROOT
ATOM      1  C   UNL     1      46.578   4.886  13.995  0.00  0.00    +0.000 A 
ATOM      2  C   UNL     1      47.615   5.705  13.560  0.00  0.00    +0.000 A 
ATOM      3  C   UNL     1      47.445   6.463  12.415  0.00  0.00    +0.000 A 
ATOM      4  F   UNL     1      48.433   7.272  12.011  0.00  0.00    +0.000 F 
ATOM      5  C   UNL     1      46.284   6.379  11.657  0.00  0.00    +0.000 A 
ATOM      6  C   UNL     1      45.279   5.467  11.997  0.00  0.00    +0.000 A 
ATOM      7  C   UNL     1      45.422   4.767  13.213  0.00  0.00    +0.000 A 
ENDROOT
BRANCH   6   8
ATOM      8  C   UNL     1      44.086   5.164  11.094  0.00  0.00    +0.000 C 
ATOM      9  C   UNL     1      43.012   4.348  11.847  0.00  0.00    +0.000 C 
ATOM     10  C   UNL     1      43.455   2.899  12.058  0.00  0.00    +0.000 C 
ATOM     11  N   UNL     1      43.713   2.227  10.784  0.00  0.00    +0.000 NA
ATOM     12  C   UNL     1      44.729   2.927  10.002  0.00  0.00    +0.000 C 
ATOM     13  C   UNL     1      44.394   4.408   9.780  0.00  0.00    +0.000 C 
ATOM     14  H   UNL     1      42.847   2.184  10.247  0.00  0.00    +0.000 HD
ENDBRANCH   6   8
BRANCH   1  15
ATOM     15  O   UNL     1      46.605   4.119  15.129  0.00  0.00    +0.000 OA
BRANCH  15  16
ATOM     16  C   UNL     1      47.306   4.703  16.228  0.00  0.00    +0.000 C 
BRANCH  16  20
ATOM     17  C   UNL     1      50.712   2.305  17.352  0.00  0.00    +0.000 A 
ATOM     18  C   UNL     1      49.654   1.719  16.648  0.00  0.00    +0.000 A 
ATOM     19  C   UNL     1      48.532   2.479  16.311  0.00  0.00    +0.000 A 
ATOM     20  C   UNL     1      48.448   3.827  16.684  0.00  0.00    +0.000 A 
ATOM     21  C   UNL     1      49.506   4.404  17.402  0.00  0.00    +0.000 A 
ATOM     22  C   UNL     1      50.627   3.647  17.747  0.00  0.00    +0.000 A 
BRANCH  17  24
ATOM     23  N   UNL     1      51.781   0.245  18.078  0.00  0.00    +0.000 N 
ATOM     24  C   UNL     1      51.942   1.548  17.690  0.00  0.00    +0.000 C 
ATOM     25  O   UNL     1      53.057   2.040  17.578  0.00  0.00    +0.000 OA
ATOM     26  H   UNL     1      52.629  -0.297  18.182  0.00  0.00    +0.000 HD
ATOM     27  H   UNL     1      50.919  -0.257  17.921  0.00  0.00    +0.000 HD
ENDBRANCH  17  24
ENDBRANCH  16  20
ENDBRANCH  15  16
ENDBRANCH   1  15
TORSDOF 5
ENDMDL
MODEL 4
REMARK VINA RESULT:    -6.590      4.663      7.164
REMARK INTER + INTRA:          -9.221
REMARK INTER:                  -8.522
REMARK INTRA:                  -0.698
REMARK UNBOUND:                -0.704
REMARK  Name = 
REMARK  5 active torsions:
REMARK  status: ('A' for Active; 'I' for Inactive)
REMARK    1  A    between atoms: C_2  and  C_4
REMARK    2  A    between atoms: C_7  and  C_8
REMARK    3  A    between atoms: C_8  and  O_9
REMARK    4  A    between atoms: O_9  and  C_10
REMARK    5  A    between atoms: C_15  and  C_16
REMARK                            x       y       z     vdW  Elec       q    Type
REMARK                         _______ _______ _______ _____ _____    ______ ____
ROOT
ATOM      1  C   UNL     1      46.597   4.329  13.910  0.00  0.00    +0.000 A 
ATOM      2  C   UNL     1      45.677   4.062  12.902  0.00  0.00    +0.000 A 
ATOM      3  C   UNL     1      45.510   4.977  11.877  0.00  0.00    +0.000 A 
ATOM      4  F   UNL     1      44.644   4.707  10.891  0.00  0.00    +0.000 F 
ATOM      5  C   UNL     1      46.198   6.183  11.864  0.00  0.00    +0.000 A 
ATOM      6  C   UNL     1      47.030   6.537  12.933  0.00  0.00    +0.000 A 
ATOM      7  C   UNL     1      47.263   5.561  13.924  0.00  0.00    +0.000 A 
ENDROOT
BRANCH   6   8
ATOM      8  C   UNL     1      47.638   7.928  13.092  0.00  0.00    +0.000 C 
ATOM      9  C   UNL     1      48.466   8.318  11.847  0.00  0.00    +0.000 C 
ATOM     10  C   UNL     1      49.785   7.547  11.787  0.00  0.00    +0.000 C 
ATOM     11  N   UNL     1      50.610   7.804  12.969  0.00  0.00    +0.000 NA
ATOM     12  C   UNL     1      49.908   7.454  14.201  0.00  0.00    +0.000 C 
ATOM     13  C   UNL     1      48.544   8.145  14.327  0.00  0.00    +0.000 C 
ATOM     14  H   UNL     1      50.859   8.792  12.994  0.00  0.00    +0.000 HD
ENDBRANCH   6   8
BRANCH   1  15
ATOM     15  O   UNL     1      46.883   3.492  14.955  0.00  0.00    +0.000 OA
BRANCH  15  16
ATOM     16  C   UNL     1      47.141   4.154  16.196  0.00  0.00    +0.000 C 
BRANCH  16  20
ATOM     17  C   UNL     1      51.074   3.090  17.614  0.00  0.00    +0.000 A 
ATOM     18  C   UNL     1      50.187   2.084  17.214  0.00  0.00    +0.000 A 
ATOM     19  C   UNL     1      48.899   2.417  16.787  0.00  0.00    +0.000 A 
ATOM     20  C   UNL     1      48.480   3.754  16.767  0.00  0.00    +0.000 A 
ATOM     21  C   UNL     1      49.371   4.755  17.183  0.00  0.00    +0.000 A 
ATOM     22  C   UNL     1      50.656   4.427  17.616  0.00  0.00    +0.000 A 
BRANCH  17  24
ATOM     23  N   UNL     1      52.722   1.507  18.445  0.00  0.00    +0.000 N 
ATOM     24  C   UNL     1      52.466   2.785  18.030  0.00  0.00    +0.000 C 
ATOM     25  O   UNL     1      53.360   3.617  17.958  0.00  0.00    +0.000 OA
ATOM     26  H   UNL     1      53.695   1.277  18.604  0.00  0.00    +0.000 HD
ATOM     27  H   UNL     1      52.084   0.746  18.261  0.00  0.00    +0.000 HD
ENDBRANCH  17  24
ENDBRANCH  16  20
ENDBRANCH  15  16
ENDBRANCH   1  15
TORSDOF 5
ENDMDL
MODEL 5
REMARK VINA RESULT:    -6.569      4.269      6.035
REMARK INTER + INTRA:          -9.194
REMARK INTER:                  -8.277
REMARK INTRA:                  -0.917
REMARK UNBOUND:                -0.704
REMARK  Name = 
REMARK  5 active torsions:
REMARK  status: ('A' for Active; 'I' for Inactive)
REMARK    1  A    between atoms: C_2  and  C_4
REMARK    2  A    between atoms: C_7  and  C_8
REMARK    3  A    between atoms: C_8  and  O_9
REMARK    4  A    between atoms: O_9  and  C_10
REMARK    5  A    between atoms: C_15  and  C_16
REMARK                            x       y       z     vdW  Elec       q    Type
REMARK                         _______ _______ _______ _____ _____    ______ ____
ROOT
ATOM      1  C   UNL     1      48.684   8.072  14.657  0.00  0.00    +0.000 A 
ATOM      2  C   UNL     1      48.210   9.239  15.247  0.00  0.00    +0.000 A 
ATOM      3  C   UNL     1      48.224   9.356  16.626  0.00  0.00    +0.000 A 
ATOM      4  F   UNL     1      47.792  10.490  17.192  0.00  0.00    +0.000 F 
ATOM      5  C   UNL     1      48.647   8.310  17.436  0.00  0.00    +0.000 A 
ATOM      6  C   UNL     1      49.005   7.078  16.876  0.00  0.00    +0.000 A 
ATOM      7  C   UNL     1      49.073   7.000  15.470  0.00  0.00    +0.000 A 
ENDROOT
BRANCH   6   8
ATOM      8  C   UNL     1      49.263   5.826  17.711  0.00  0.00    +0.000 C 
ATOM      9  C   UNL     1      48.827   4.553  16.951  0.00  0.00    +0.000 C 
ATOM     10  C   UNL     1      47.304   4.427  16.897  0.00  0.00    +0.000 C 
ATOM     11  N   UNL     1      46.723   4.365  18.239  0.00  0.00    +0.000 NA
ATOM     12  C   UNL     1      47.077   5.540  19.032  0.00  0.00    +0.000 C 
ATOM     13  C   UNL     1      48.591   5.778  19.103  0.00  0.00    +0.000 C 
ATOM     14  H   UNL     1      47.061   3.527  18.711  0.00  0.00    +0.000 HD
ENDBRANCH   6   8
BRANCH   1  15
ATOM     15  O   UNL     1      48.759   7.847  13.308  0.00  0.00    +0.000 OA
BRANCH  15  16
ATOM     16  C   UNL     1      48.546   6.489  12.918  0.00  0.00    +0.000 C 
BRANCH  16  20
ATOM     17  C   UNL     1      44.444   5.488  12.030  0.00  0.00    +0.000 A 
ATOM     18  C   UNL     1      45.114   6.428  11.239  0.00  0.00    +0.000 A 
ATOM     19  C   UNL     1      46.431   6.783  11.540  0.00  0.00    +0.000 A 
ATOM     20  C   UNL     1      47.087   6.216  12.641  0.00  0.00    +0.000 A 
ATOM     21  C   UNL     1      46.403   5.286  13.438  0.00  0.00    +0.000 A 
ATOM     22  C   UNL     1      45.086   4.931  13.145  0.00  0.00    +0.000 A 
BRANCH  17  24
ATOM     23  N   UNL     1      42.079   5.996  11.785  0.00  0.00    +0.000 N 
ATOM     24  C   UNL     1      43.062   5.046  11.719  0.00  0.00    +0.000 C 
ATOM     25  O   UNL     1      42.811   3.902  11.367  0.00  0.00    +0.000 OA
ATOM     26  H   UNL     1      41.166   5.717  11.449  0.00  0.00    +0.000 HD
ATOM     27  H   UNL     1      42.289   6.984  11.806  0.00  0.00    +0.000 HD
ENDBRANCH  17  24
ENDBRANCH  16  20
ENDBRANCH  15  16
ENDBRANCH   1  15
TORSDOF 5
ENDMDL
MODEL 6
REMARK VINA RESULT:    -6.361      4.300      8.163
REMARK INTER + INTRA:          -8.924
REMARK INTER:                  -8.946
REMARK INTRA:                   0.022
REMARK UNBOUND:                -0.704
REMARK  Name = 
REMARK  5 active torsions:
REMARK  status: ('A' for Active; 'I' for Inactive)
REMARK    1  A    between atoms: C_2  and  C_4
REMARK    2  A    between atoms: C_7  and  C_8
REMARK    3  A    between atoms: C_8  and  O_9
REMARK    4  A    between atoms: O_9  and  C_10
REMARK    5  A    between atoms: C_15  and  C_16
REMARK                            x       y       z     vdW  Elec       q    Type
REMARK                         _______ _______ _______ _____ _____    ______ ____
ROOT
ATOM      1  C   UNL     1      46.899   5.747  12.881  0.00  0.00    +0.000 A 
ATOM      2  C   UNL     1      47.061   7.129  12.874  0.00  0.00    +0.000 A 
ATOM      3  C   UNL     1      46.104   7.920  12.262  0.00  0.00    +0.000 A 
ATOM      4  F   UNL     1      46.246   9.252  12.279  0.00  0.00    +0.000 F 
ATOM      5  C   UNL     1      45.017   7.362  11.603  0.00  0.00    +0.000 A 
ATOM      6  C   UNL     1      44.898   5.972  11.480  0.00  0.00    +0.000 A 
ATOM      7  C   UNL     1      45.827   5.178  12.183  0.00  0.00    +0.000 A 
ENDROOT
BRANCH   6   8
ATOM      8  C   UNL     1      43.859   5.299  10.587  0.00  0.00    +0.000 C 
ATOM      9  C   UNL     1      42.780   4.584  11.432  0.00  0.00    +0.000 C 
ATOM     10  C   UNL     1      43.326   3.308  12.073  0.00  0.00    +0.000 C 
ATOM     11  N   UNL     1      43.800   2.361  11.063  0.00  0.00    +0.000 NA
ATOM     12  C   UNL     1      44.836   2.950  10.217  0.00  0.00    +0.000 C 
ATOM     13  C   UNL     1      44.394   4.268   9.567  0.00  0.00    +0.000 C 
ATOM     14  H   UNL     1      43.015   2.073  10.481  0.00  0.00    +0.000 HD
ENDBRANCH   6   8
BRANCH   1  15
ATOM     15  O   UNL     1      47.750   4.859  13.482  0.00  0.00    +0.000 OA
BRANCH  15  16
ATOM     16  C   UNL     1      47.119   3.944  14.381  0.00  0.00    +0.000 C 
BRANCH  16  20
ATOM     17  C   UNL     1      48.433   4.704  18.419  0.00  0.00    +0.000 A 
ATOM     18  C   UNL     1      47.726   3.532  18.131  0.00  0.00    +0.000 A 
ATOM     19  C   UNL     1      47.267   3.294  16.833  0.00  0.00    +0.000 A 
ATOM     20  C   UNL     1      47.496   4.230  15.815  0.00  0.00    +0.000 A 
ATOM     21  C   UNL     1      48.192   5.409  16.116  0.00  0.00    +0.000 A 
ATOM     22  C   UNL     1      48.649   5.654  17.412  0.00  0.00    +0.000 A 
BRANCH  17  24
ATOM     23  N   UNL     1      48.647   4.093  20.763  0.00  0.00    +0.000 N 
ATOM     24  C   UNL     1      48.980   4.976  19.772  0.00  0.00    +0.000 C 
ATOM     25  O   UNL     1      49.736   5.912  19.989  0.00  0.00    +0.000 OA
ATOM     26  H   UNL     1      49.125   4.213  21.647  0.00  0.00    +0.000 HD
ATOM     27  H   UNL     1      48.257   3.183  20.561  0.00  0.00    +0.000 HD
ENDBRANCH  17  24
ENDBRANCH  16  20
ENDBRANCH  15  16
ENDBRANCH   1  15
TORSDOF 5
ENDMDL
MODEL 7
REMARK VINA RESULT:    -6.318      4.215      6.019
REMARK INTER + INTRA:          -8.869
REMARK INTER:                  -8.161
REMARK INTRA:                  -0.707
REMARK UNBOUND:                -0.704
REMARK  Name = 
REMARK  5 active torsions:
REMARK  status: ('A' for Active; 'I' for Inactive)
REMARK    1  A    between atoms: C_2  and  C_4
REMARK    2  A    between atoms: C_7  and  C_8
REMARK    3  A    between atoms: C_8  and  O_9
REMARK    4  A    between atoms: O_9  and  C_10
REMARK    5  A    between atoms: C_15  and  C_16
REMARK                            x       y       z     vdW  Elec       q    Type
REMARK                         _______ _______ _______ _____ _____    ______ ____
ROOT
ATOM      1  C   UNL     1      49.211   7.278  14.876  0.00  0.00    +0.000 A 
ATOM      2  C   UNL     1      50.480   7.810  14.671  0.00  0.00    +0.000 A 
ATOM      3  C   UNL     1      51.526   7.401  15.480  0.00  0.00    +0.000 A 
ATOM      4  F   UNL     1      52.753   7.894  15.265  0.00  0.00    +0.000 F 
ATOM      5  C   UNL     1      51.324   6.515  16.530  0.00  0.00    +0.000 A 
ATOM      6  C   UNL     1      50.036   6.066  16.843  0.00  0.00    +0.000 A 
ATOM      7  C   UNL     1      48.995   6.416  15.959  0.00  0.00    +0.000 A 
ENDROOT
BRANCH   6   8
ATOM      8  C   UNL     1      49.712   5.275  18.108  0.00  0.00    +0.000 C 
ATOM      9  C   UNL     1      50.935   4.455  18.578  0.00  0.00    +0.000 C 
ATOM     10  C   UNL     1      51.186   3.252  17.668  0.00  0.00    +0.000 C 
ATOM     11  N   UNL     1      50.032   2.352  17.638  0.00  0.00    +0.000 NA
ATOM     12  C   UNL     1      48.824   3.043  17.193  0.00  0.00    +0.000 C 
ATOM     13  C   UNL     1      48.516   4.298  18.020  0.00  0.00    +0.000 C 
ATOM     14  H   UNL     1      49.878   1.975  18.572  0.00  0.00    +0.000 HD
ENDBRANCH   6   8
BRANCH   1  15
ATOM     15  O   UNL     1      48.105   7.570  14.124  0.00  0.00    +0.000 OA
BRANCH  15  16
ATOM     16  C   UNL     1      48.158   7.096  12.777  0.00  0.00    +0.000 C 
BRANCH  16  20
ATOM     17  C   UNL     1      45.066   4.239  11.830  0.00  0.00    +0.000 A 
ATOM     18  C   UNL     1      45.223   5.379  11.033  0.00  0.00    +0.000 A 
ATOM     19  C   UNL     1      46.199   6.326  11.353  0.00  0.00    +0.000 A 
ATOM     20  C   UNL     1      47.017   6.153  12.478  0.00  0.00    +0.000 A 
ATOM     21  C   UNL     1      46.843   5.016  13.279  0.00  0.00    +0.000 A 
ATOM     22  C   UNL     1      45.866   4.068  12.968  0.00  0.00    +0.000 A 
BRANCH  17  24
ATOM     23  N   UNL     1      43.670   2.374  12.526  0.00  0.00    +0.000 N 
ATOM     24  C   UNL     1      44.075   3.185  11.501  0.00  0.00    +0.000 C 
ATOM     25  O   UNL     1      43.596   3.074  10.381  0.00  0.00    +0.000 OA
ATOM     26  H   UNL     1      42.904   1.746  12.321  0.00  0.00    +0.000 HD
ATOM     27  H   UNL     1      43.838   2.610  13.494  0.00  0.00    +0.000 HD
ENDBRANCH  17  24
ENDBRANCH  16  20
ENDBRANCH  15  16
ENDBRANCH   1  15
TORSDOF 5
ENDMDL
MODEL 8
REMARK VINA RESULT:    -6.141      3.926      5.145
REMARK INTER + INTRA:          -8.640
REMARK INTER:                  -8.123
REMARK INTRA:                  -0.517
REMARK UNBOUND:                -0.704
REMARK  Name = 
REMARK  5 active torsions:
REMARK  status: ('A' for Active; 'I' for Inactive)
REMARK    1  A    between atoms: C_2  and  C_4
REMARK    2  A    between atoms: C_7  and  C_8
REMARK    3  A    between atoms: C_8  and  O_9
REMARK    4  A    between atoms: O_9  and  C_10
REMARK    5  A    between atoms: C_15  and  C_16
REMARK                            x       y       z     vdW  Elec       q    Type
REMARK                         _______ _______ _______ _____ _____    ______ ____
ROOT
ATOM      1  C   UNL     1      48.047   4.985  15.665  0.00  0.00    +0.000 A 
ATOM      2  C   UNL     1      47.395   3.823  16.067  0.00  0.00    +0.000 A 
ATOM      3  C   UNL     1      47.391   3.477  17.407  0.00  0.00    +0.000 A 
ATOM      4  F   UNL     1      46.740   2.374  17.798  0.00  0.00    +0.000 F 
ATOM      5  C   UNL     1      48.075   4.233  18.351  0.00  0.00    +0.000 A 
ATOM      6  C   UNL     1      48.848   5.331  17.957  0.00  0.00    +0.000 A 
ATOM      7  C   UNL     1      48.771   5.727  16.606  0.00  0.00    +0.000 A 
ENDROOT
BRANCH   6   8
ATOM      8  C   UNL     1      49.795   6.066  18.902  0.00  0.00    +0.000 C 
ATOM      9  C   UNL     1      49.312   5.961  20.366  0.00  0.00    +0.000 C 
ATOM     10  C   UNL     1      48.085   6.840  20.615  0.00  0.00    +0.000 C 
ATOM     11  N   UNL     1      48.371   8.249  20.340  0.00  0.00    +0.000 NA
ATOM     12  C   UNL     1      48.829   8.447  18.967  0.00  0.00    +0.000 C 
ATOM     13  C   UNL     1      50.032   7.566  18.607  0.00  0.00    +0.000 C 
ATOM     14  H   UNL     1      49.090   8.576  20.984  0.00  0.00    +0.000 HD
ENDBRANCH   6   8
BRANCH   1  15
ATOM     15  O   UNL     1      48.091   5.456  14.380  0.00  0.00    +0.000 OA
BRANCH  15  16
ATOM     16  C   UNL     1      46.954   6.229  13.989  0.00  0.00    +0.000 C 
BRANCH  16  20
ATOM     17  C   UNL     1      45.052   4.241  10.666  0.00  0.00    +0.000 A 
ATOM     18  C   UNL     1      45.558   5.535  10.501  0.00  0.00    +0.000 A 
ATOM     19  C   UNL     1      46.145   6.200  11.580  0.00  0.00    +0.000 A 
ATOM     20  C   UNL     1      46.219   5.586  12.838  0.00  0.00    +0.000 A 
ATOM     21  C   UNL     1      45.696   4.294  12.999  0.00  0.00    +0.000 A 
ATOM     22  C   UNL     1      45.104   3.628  11.925  0.00  0.00    +0.000 A 
BRANCH  17  24
ATOM     23  N   UNL     1      44.151   4.191   8.407  0.00  0.00    +0.000 N 
ATOM     24  C   UNL     1      44.463   3.481   9.535  0.00  0.00    +0.000 C 
ATOM     25  O   UNL     1      44.310   2.268   9.581  0.00  0.00    +0.000 OA
ATOM     26  H   UNL     1      43.872   3.646   7.602  0.00  0.00    +0.000 HD
ATOM     27  H   UNL     1      44.509   5.121   8.244  0.00  0.00    +0.000 HD
ENDBRANCH  17  24
ENDBRANCH  16  20
ENDBRANCH  15  16
ENDBRANCH   1  15
TORSDOF 5
ENDMDL
MODEL 9
REMARK VINA RESULT:    -5.591      3.946      5.673
REMARK INTER + INTRA:          -7.929
REMARK INTER:                  -7.347
REMARK INTRA:                  -0.583
REMARK UNBOUND:                -0.704
REMARK  Name = 
REMARK  5 active torsions:
REMARK  status: ('A' for Active; 'I' for Inactive)
REMARK    1  A    between atoms: C_2  and  C_4
REMARK    2  A    between atoms: C_7  and  C_8
REMARK    3  A    between atoms: C_8  and  O_9
REMARK    4  A    between atoms: O_9  and  C_10
REMARK    5  A    between atoms: C_15  and  C_16
REMARK                            x       y       z     vdW  Elec       q    Type
REMARK                         _______ _______ _______ _____ _____    ______ ____
ROOT
ATOM      1  C   UNL     1      49.314   8.195  11.864  0.00  0.00    +0.000 A 
ATOM      2  C   UNL     1      48.452   9.286  11.823  0.00  0.00    +0.000 A 
ATOM      3  C   UNL     1      48.903  10.488  11.304  0.00  0.00    +0.000 A 
ATOM      4  F   UNL     1      48.064  11.530  11.240  0.00  0.00    +0.000 F 
ATOM      5  C   UNL     1      50.214  10.644  10.876  0.00  0.00    +0.000 A 
ATOM      6  C   UNL     1      51.139   9.604  11.026  0.00  0.00    +0.000 A 
ATOM      7  C   UNL     1      50.648   8.359  11.471  0.00  0.00    +0.000 A 
ENDROOT
BRANCH   6   8
ATOM      8  C   UNL     1      52.637   9.777  10.786  0.00  0.00    +0.000 C 
ATOM      9  C   UNL     1      52.907  10.883   9.740  0.00  0.00    +0.000 C 
ATOM     10  C   UNL     1      52.547  10.418   8.329  0.00  0.00    +0.000 C 
ATOM     11  N   UNL     1      53.321   9.238   7.939  0.00  0.00    +0.000 NA
ATOM     12  C   UNL     1      53.119   8.131   8.872  0.00  0.00    +0.000 C 
ATOM     13  C   UNL     1      53.409   8.519  10.327  0.00  0.00    +0.000 C 
ATOM     14  H   UNL     1      54.310   9.480   7.915  0.00  0.00    +0.000 HD
ENDBRANCH   6   8
BRANCH   1  15
ATOM     15  O   UNL     1      48.981   6.947  12.316  0.00  0.00    +0.000 OA
BRANCH  15  16
ATOM     16  C   UNL     1      47.813   6.902  13.139  0.00  0.00    +0.000 C 
BRANCH  16  20
ATOM     17  C   UNL     1      45.024   4.075  11.452  0.00  0.00    +0.000 A 
ATOM     18  C   UNL     1      45.327   5.249  10.754  0.00  0.00    +0.000 A 
ATOM     19  C   UNL     1      46.202   6.187  11.308  0.00  0.00    +0.000 A 
ATOM     20  C   UNL     1      46.772   5.968  12.570  0.00  0.00    +0.000 A 
ATOM     21  C   UNL     1      46.452   4.795  13.269  0.00  0.00    +0.000 A 
ATOM     22  C   UNL     1      45.574   3.858  12.723  0.00  0.00    +0.000 A 
BRANCH  17  24
ATOM     23  N   UNL     1      44.650   2.269   9.867  0.00  0.00    +0.000 N 
ATOM     24  C   UNL     1      44.137   3.031  10.881  0.00  0.00    +0.000 C 
ATOM     25  O   UNL     1      43.017   2.820  11.325  0.00  0.00    +0.000 OA
ATOM     26  H   UNL     1      44.088   1.482   9.573  0.00  0.00    +0.000 HD
ATOM     27  H   UNL     1      45.640   2.239   9.668  0.00  0.00    +0.000 HD
ENDBRANCH  17  24
ENDBRANCH  16  20
ENDBRANCH  15  16
ENDBRANCH   1  15
TORSDOF 5
ENDMDL
