MODEL 1
REMARK VINA RESULT:    -8.776      0.000      0.000
REMARK INTER + INTRA:         -13.492
REMARK INTER:                 -12.623
REMARK INTRA:                  -0.869
REMARK UNBOUND:                -0.869
REMARK  Name = 
REMARK  8 active torsions:
REMARK  status: ('A' for Active; 'I' for Inactive)
REMARK    1  A    between atoms: C_2  and  C_21
REMARK    2  A    between atoms: N_3  and  C_4
REMARK    3  A    between atoms: C_4  and  C_5
REMARK    4  A    between atoms: C_8  and  C_9
REMARK    5  A    between atoms: C_9  and  O_10
REMARK    6  A    between atoms: C_9  and  C_11
REMARK    7  A    between atoms: C_11  and  N_12
REMARK    8  A    between atoms: N_12  and  C_13
REMARK                            x       y       z     vdW  Elec       q    Type
REMARK                         _______ _______ _______ _____ _____    ______ ____
ROOT
ATOM      1  C   UNL     1      47.226   6.069  13.190  0.00  0.00    +0.000 A 
ATOM      2  C   UNL     1      46.453   5.016  13.695  0.00  0.00    +0.000 A 
ATOM      3  C   UNL     1      45.351   4.535  12.978  0.00  0.00    +0.000 A 
ATOM      4  C   UNL     1      45.012   5.080  11.730  0.00  0.00    +0.000 A 
ATOM      5  C   UNL     1      45.806   6.123  11.224  0.00  0.00    +0.000 A 
ATOM      6  C   UNL     1      46.902   6.604  11.940  0.00  0.00    +0.000 A 
ENDROOT
BRANCH   1   7
ATOM      7  C   UNL     1      48.390   6.613  13.973  0.00  0.00    +0.000 C 
BRANCH   7  10
ATOM      8  O   UNL     1      50.218   6.123  15.967  0.00  0.00    +0.000 OA
ATOM      9  C   UNL     1      49.107   6.530  16.298  0.00  0.00    +0.000 C 
ATOM     10  N   UNL     1      48.102   6.718  15.381  0.00  0.00    +0.000 N 
ATOM     11  H   UNL     1      47.269   7.234  15.648  0.00  0.00    +0.000 HD
BRANCH   9  12
ATOM     12  C   UNL     1      48.791   6.805  17.703  0.00  0.00    +0.000 A 
ATOM     13  C   UNL     1      48.457   8.096  18.092  0.00  0.00    +0.000 A 
ATOM     14  S   UNL     1      48.104   8.240  19.754  0.00  0.00    +0.000 S 
ATOM     15  C   UNL     1      48.343   6.574  20.004  0.00  0.00    +0.000 A 
ATOM     16  N   UNL     1      48.150   6.017  21.231  0.00  0.00    +0.000 NA
ATOM     17  C   UNL     1      48.331   4.738  21.266  0.00  0.00    +0.000 A 
ATOM     18  N   UNL     1      48.696   3.970  20.194  0.00  0.00    +0.000 N 
ATOM     19  C   UNL     1      48.938   4.494  18.946  0.00  0.00    +0.000 A 
ATOM     20  O   UNL     1      49.317   3.785  18.017  0.00  0.00    +0.000 OA
ATOM     21  C   UNL     1      48.720   5.923  18.842  0.00  0.00    +0.000 A 
ATOM     22  H   UNL     1      48.841   2.975  20.294  0.00  0.00    +0.000 HD
ENDBRANCH   9  12
ENDBRANCH   7  10
ENDBRANCH   1   7
BRANCH   4  23
ATOM     23  C   UNL     1      43.831   4.527  10.953  0.00  0.00    +0.000 C 
BRANCH  23  24
ATOM     24  O   UNL     1      43.174   5.589  10.254  0.00  0.00    +0.000 OA
ATOM     25  H   UNL     1      42.673   6.102  10.912  0.00  0.00    +0.000 HD
ENDBRANCH  23  24
BRANCH  23  26
ATOM     26  C   UNL     1      44.225   3.434   9.926  0.00  0.00    +0.000 C 
BRANCH  26  27
ATOM     27  N   UNL     1      44.485   3.951   8.576  0.00  0.00    +0.000 NA
ATOM     28  H   UNL     1      45.013   4.820   8.644  0.00  0.00    +0.000 HD
BRANCH  27  29
ATOM     29  C   UNL     1      45.191   3.003   7.705  0.00  0.00    +0.000 C 
ATOM     30  C   UNL     1      45.762   1.880   8.591  0.00  0.00    +0.000 C 
ATOM     31  C   UNL     1      46.590   0.879   7.788  0.00  0.00    +0.000 C 
ATOM     32  C   UNL     1      47.702   1.572   7.007  0.00  0.00    +0.000 C 
ATOM     33  C   UNL     1      47.139   2.662   6.106  0.00  0.00    +0.000 C 
ATOM     34  C   UNL     1      46.319   3.674   6.901  0.00  0.00    +0.000 C 
ENDBRANCH  27  29
ENDBRANCH  26  27
ENDBRANCH  23  26
ENDBRANCH   4  23
TORSDOF 8
ENDMDL
MODEL 2
REMARK VINA RESULT:    -8.405      1.286      1.915
REMARK INTER + INTRA:         -12.959
REMARK INTER:                 -11.976
REMARK INTRA:                  -0.983
REMARK UNBOUND:                -0.869
REMARK  Name = 
REMARK  8 active torsions:
REMARK  status: ('A' for Active; 'I' for Inactive)
REMARK    1  A    between atoms: C_2  and  C_21
REMARK    2  A    between atoms: N_3  and  C_4
REMARK    3  A    between atoms: C_4  and  C_5
REMARK    4  A    between atoms: C_8  and  C_9
REMARK    5  A    between atoms: C_9  and  O_10
REMARK    6  A    between atoms: C_9  and  C_11
REMARK    7  A    between atoms: C_11  and  N_12
REMARK    8  A    between atoms: N_12  and  C_13
REMARK                            x       y       z     vdW  Elec       q    Type
REMARK                         _______ _______ _______ _____ _____    ______ ____
ROOT
ATOM      1  C   UNL     1      47.123   5.959  13.430  0.00  0.00    +0.000 A 
ATOM      2  C   UNL     1      46.598   4.673  13.609  0.00  0.00    +0.000 A 
ATOM      3  C   UNL     1      45.529   4.226  12.823  0.00  0.00    +0.000 A 
ATOM      4  C   UNL     1      44.977   5.046  11.827  0.00  0.00    +0.000 A 
ATOM      5  C   UNL     1      45.524   6.327  11.644  0.00  0.00    +0.000 A 
ATOM      6  C   UNL     1      46.588   6.774  12.429  0.00  0.00    +0.000 A 
ENDROOT
BRANCH   1   7
ATOM      7  C   UNL     1      48.249   6.457  14.296  0.00  0.00    +0.000 C 
BRANCH   7  10
ATOM      8  O   UNL     1      50.287   6.115  16.109  0.00  0.00    +0.000 OA
ATOM      9  C   UNL     1      49.133   6.069  16.530  0.00  0.00    +0.000 C 
ATOM     10  N   UNL     1      48.051   6.141  15.688  0.00  0.00    +0.000 N 
ATOM     11  H   UNL     1      47.124   6.297  16.073  0.00  0.00    +0.000 HD
BRANCH   9  12
ATOM     12  C   UNL     1      48.858   5.902  17.961  0.00  0.00    +0.000 A 
ATOM     13  C   UNL     1      49.187   4.708  18.590  0.00  0.00    +0.000 A 
ATOM     14  S   UNL     1      48.816   4.685  20.253  0.00  0.00    +0.000 S 
ATOM     15  C   UNL     1      48.244   6.287  20.202  0.00  0.00    +0.000 A 
ATOM     16  N   UNL     1      47.808   6.910  21.331  0.00  0.00    +0.000 NA
ATOM     17  C   UNL     1      47.438   8.135  21.151  0.00  0.00    +0.000 A 
ATOM     18  N   UNL     1      47.452   8.787  19.947  0.00  0.00    +0.000 N 
ATOM     19  C   UNL     1      47.847   8.187  18.776  0.00  0.00    +0.000 A 
ATOM     20  O   UNL     1      47.796   8.783  17.702  0.00  0.00    +0.000 OA
ATOM     21  C   UNL     1      48.303   6.820  18.925  0.00  0.00    +0.000 A 
ATOM     22  H   UNL     1      47.129   9.741  19.871  0.00  0.00    +0.000 HD
ENDBRANCH   9  12
ENDBRANCH   7  10
ENDBRANCH   1   7
BRANCH   4  23
ATOM     23  C   UNL     1      43.837   4.535  10.966  0.00  0.00    +0.000 C 
BRANCH  23  24
ATOM     24  O   UNL     1      43.232   5.629  10.268  0.00  0.00    +0.000 OA
ATOM     25  H   UNL     1      43.823   6.396  10.363  0.00  0.00    +0.000 HD
ENDBRANCH  23  24
BRANCH  23  26
ATOM     26  C   UNL     1      44.278   3.473   9.924  0.00  0.00    +0.000 C 
BRANCH  26  27
ATOM     27  N   UNL     1      44.601   4.031   8.605  0.00  0.00    +0.000 NA
ATOM     28  H   UNL     1      45.172   4.866   8.722  0.00  0.00    +0.000 HD
BRANCH  27  29
ATOM     29  C   UNL     1      45.278   3.083   7.712  0.00  0.00    +0.000 C 
ATOM     30  C   UNL     1      45.793   1.910   8.567  0.00  0.00    +0.000 C 
ATOM     31  C   UNL     1      46.590   0.903   7.741  0.00  0.00    +0.000 C 
ATOM     32  C   UNL     1      47.738   1.574   6.995  0.00  0.00    +0.000 C 
ATOM     33  C   UNL     1      47.229   2.713   6.123  0.00  0.00    +0.000 C 
ATOM     34  C   UNL     1      46.442   3.733   6.941  0.00  0.00    +0.000 C 
ENDBRANCH  27  29
ENDBRANCH  26  27
ENDBRANCH  23  26
ENDBRANCH   4  23
TORSDOF 8
ENDMDL
MODEL 3
REMARK VINA RESULT:    -8.331      1.620      2.082
REMARK INTER + INTRA:         -12.853
REMARK INTER:                 -11.427
REMARK INTRA:                  -1.426
REMARK UNBOUND:                -0.869
REMARK  Name = 
REMARK  8 active torsions:
REMARK  status: ('A' for Active; 'I' for Inactive)
REMARK    1  A    between atoms: C_2  and  C_21
REMARK    2  A    between atoms: N_3  and  C_4
REMARK    3  A    between atoms: C_4  and  C_5
REMARK    4  A    between atoms: C_8  and  C_9
REMARK    5  A    between atoms: C_9  and  O_10
REMARK    6  A    between atoms: C_9  and  C_11
REMARK    7  A    between atoms: C_11  and  N_12
REMARK    8  A    between atoms: N_12  and  C_13
REMARK                            x       y       z     vdW  Elec       q    Type
REMARK                         _______ _______ _______ _____ _____    ______ ____
ROOT
ATOM      1  C   UNL     1      47.368   6.373  13.211  0.00  0.00    +0.000 A 
ATOM      2  C   UNL     1      47.160   5.026  13.536  0.00  0.00    +0.000 A 
ATOM      3  C   UNL     1      45.884   4.460  13.438  0.00  0.00    +0.000 A 
ATOM      4  C   UNL     1      44.793   5.220  12.990  0.00  0.00    +0.000 A 
ATOM      5  C   UNL     1      45.016   6.564  12.649  0.00  0.00    +0.000 A 
ATOM      6  C   UNL     1      46.287   7.130  12.750  0.00  0.00    +0.000 A 
ENDROOT
BRANCH   1   7
ATOM      7  C   UNL     1      48.731   6.996  13.349  0.00  0.00    +0.000 C 
BRANCH   7  10
ATOM      8  O   UNL     1      48.213   8.704  15.439  0.00  0.00    +0.000 OA
ATOM      9  C   UNL     1      48.890   7.705  15.672  0.00  0.00    +0.000 C 
ATOM     10  N   UNL     1      49.273   6.841  14.675  0.00  0.00    +0.000 N 
ATOM     11  H   UNL     1      49.657   5.933  14.917  0.00  0.00    +0.000 HD
BRANCH   9  12
ATOM     12  C   UNL     1      49.349   7.404  17.032  0.00  0.00    +0.000 A 
ATOM     13  C   UNL     1      50.197   8.290  17.683  0.00  0.00    +0.000 A 
ATOM     14  S   UNL     1      50.621   7.798  19.259  0.00  0.00    +0.000 S 
ATOM     15  C   UNL     1      49.651   6.405  19.143  0.00  0.00    +0.000 A 
ATOM     16  N   UNL     1      49.529   5.549  20.195  0.00  0.00    +0.000 NA
ATOM     17  C   UNL     1      48.732   4.555  19.978  0.00  0.00    +0.000 A 
ATOM     18  N   UNL     1      48.058   4.334  18.808  0.00  0.00    +0.000 N 
ATOM     19  C   UNL     1      48.179   5.150  17.708  0.00  0.00    +0.000 A 
ATOM     20  O   UNL     1      47.603   4.893  16.654  0.00  0.00    +0.000 OA
ATOM     21  C   UNL     1      49.039   6.300  17.906  0.00  0.00    +0.000 A 
ATOM     22  H   UNL     1      47.464   3.524  18.697  0.00  0.00    +0.000 HD
ENDBRANCH   9  12
ENDBRANCH   7  10
ENDBRANCH   1   7
BRANCH   4  23
ATOM     23  C   UNL     1      43.422   4.582  12.863  0.00  0.00    +0.000 C 
BRANCH  23  24
ATOM     24  O   UNL     1      42.432   5.449  13.428  0.00  0.00    +0.000 OA
ATOM     25  H   UNL     1      41.603   5.297  12.941  0.00  0.00    +0.000 HD
ENDBRANCH  23  24
BRANCH  23  26
ATOM     26  C   UNL     1      43.020   4.268  11.398  0.00  0.00    +0.000 C 
BRANCH  26  27
ATOM     27  N   UNL     1      43.490   2.963  10.918  0.00  0.00    +0.000 NA
ATOM     28  H   UNL     1      42.746   2.509  10.390  0.00  0.00    +0.000 HD
BRANCH  27  29
ATOM     29  C   UNL     1      44.709   3.036  10.103  0.00  0.00    +0.000 C 
ATOM     30  C   UNL     1      44.697   4.380   9.352  0.00  0.00    +0.000 C 
ATOM     31  C   UNL     1      45.887   4.521   8.406  0.00  0.00    +0.000 C 
ATOM     32  C   UNL     1      45.967   3.353   7.428  0.00  0.00    +0.000 C 
ATOM     33  C   UNL     1      46.012   2.024   8.167  0.00  0.00    +0.000 C 
ATOM     34  C   UNL     1      44.819   1.868   9.107  0.00  0.00    +0.000 C 
ENDBRANCH  27  29
ENDBRANCH  26  27
ENDBRANCH  23  26
ENDBRANCH   4  23
TORSDOF 8
ENDMDL
MODEL 4
REMARK VINA RESULT:    -7.782      3.105      4.942
REMARK INTER + INTRA:         -12.063
REMARK INTER:                 -10.882
REMARK INTRA:                  -1.181
REMARK UNBOUND:                -0.869
REMARK  Name = 
REMARK  8 active torsions:
REMARK  status: ('A' for Active; 'I' for Inactive)
REMARK    1  A    between atoms: C_2  and  C_21
REMARK    2  A    between atoms: N_3  and  C_4
REMARK    3  A    between atoms: C_4  and  C_5
REMARK    4  A    between atoms: C_8  and  C_9
REMARK    5  A    between atoms: C_9  and  O_10
REMARK    6  A    between atoms: C_9  and  C_11
REMARK    7  A    between atoms: C_11  and  N_12
REMARK    8  A    between atoms: N_12  and  C_13
REMARK                            x       y       z     vdW  Elec       q    Type
REMARK                         _______ _______ _______ _____ _____    ______ ____
ROOT
ATOM      1  C   UNL     1      46.751   5.366  13.723  0.00  0.00    +0.000 A 
ATOM      2  C   UNL     1      46.077   6.324  12.954  0.00  0.00    +0.000 A 
ATOM      3  C   UNL     1      45.133   5.932  11.997  0.00  0.00    +0.000 A 
ATOM      4  C   UNL     1      44.825   4.576  11.805  0.00  0.00    +0.000 A 
ATOM      5  C   UNL     1      45.493   3.625  12.594  0.00  0.00    +0.000 A 
ATOM      6  C   UNL     1      46.436   4.016  13.545  0.00  0.00    +0.000 A 
ENDROOT
BRANCH   1   7
ATOM      7  C   UNL     1      47.791   5.780  14.727  0.00  0.00    +0.000 C 
BRANCH   7  10
ATOM      8  O   UNL     1      50.302   6.829  15.120  0.00  0.00    +0.000 OA
ATOM      9  C   UNL     1      49.407   7.600  14.780  0.00  0.00    +0.000 C 
ATOM     10  N   UNL     1      48.105   7.184  14.645  0.00  0.00    +0.000 N 
ATOM     11  H   UNL     1      47.432   7.785  14.178  0.00  0.00    +0.000 HD
BRANCH   9  12
ATOM     12  C   UNL     1      49.687   9.018  14.529  0.00  0.00    +0.000 A 
ATOM     13  C   UNL     1      50.218   9.804  15.543  0.00  0.00    +0.000 A 
ATOM     14  S   UNL     1      50.497  11.421  15.082  0.00  0.00    +0.000 S 
ATOM     15  C   UNL     1      49.960  11.117  13.495  0.00  0.00    +0.000 A 
ATOM     16  N   UNL     1      49.984  12.096  12.550  0.00  0.00    +0.000 NA
ATOM     17  C   UNL     1      49.583  11.714  11.382  0.00  0.00    +0.000 A 
ATOM     18  N   UNL     1      49.150  10.451  11.078  0.00  0.00    +0.000 N 
ATOM     19  C   UNL     1      49.073   9.442  12.009  0.00  0.00    +0.000 A 
ATOM     20  O   UNL     1      48.629   8.335  11.716  0.00  0.00    +0.000 OA
ATOM     21  C   UNL     1      49.541   9.807  13.331  0.00  0.00    +0.000 A 
ATOM     22  H   UNL     1      48.831  10.223  10.148  0.00  0.00    +0.000 HD
ENDBRANCH   9  12
ENDBRANCH   7  10
ENDBRANCH   1   7
BRANCH   4  23
ATOM     23  C   UNL     1      43.779   4.171  10.783  0.00  0.00    +0.000 C 
BRANCH  23  24
ATOM     24  O   UNL     1      43.341   5.326  10.057  0.00  0.00    +0.000 OA
ATOM     25  H   UNL     1      44.092   5.629   9.517  0.00  0.00    +0.000 HD
ENDBRANCH  23  24
BRANCH  23  26
ATOM     26  C   UNL     1      44.286   3.116   9.765  0.00  0.00    +0.000 C 
BRANCH  26  27
ATOM     27  N   UNL     1      44.394   3.619   8.390  0.00  0.00    +0.000 NA
ATOM     28  H   UNL     1      44.737   4.579   8.408  0.00  0.00    +0.000 HD
BRANCH  27  29
ATOM     29  C   UNL     1      45.251   2.798   7.525  0.00  0.00    +0.000 C 
ATOM     30  C   UNL     1      45.855   1.673   8.387  0.00  0.00    +0.000 C 
ATOM     31  C   UNL     1      46.832   0.806   7.596  0.00  0.00    +0.000 C 
ATOM     32  C   UNL     1      47.931   1.646   6.952  0.00  0.00    +0.000 C 
ATOM     33  C   UNL     1      47.339   2.738   6.075  0.00  0.00    +0.000 C 
ATOM     34  C   UNL     1      46.369   3.619   6.858  0.00  0.00    +0.000 C 
ENDBRANCH  27  29
ENDBRANCH  26  27
ENDBRANCH  23  26
ENDBRANCH   4  23
TORSDOF 8
ENDMDL
MODEL 5
REMARK VINA RESULT:    -7.655      2.329      3.154
REMARK INTER + INTRA:         -11.880
REMARK INTER:                 -10.761
REMARK INTRA:                  -1.119
REMARK UNBOUND:                -0.869
REMARK  Name = 
REMARK  8 active torsions:
REMARK  status: ('A' for Active; 'I' for Inactive)
REMARK    1  A    between atoms: C_2  and  C_21
REMARK    2  A    between atoms: N_3  and  C_4
REMARK    3  A    between atoms: C_4  and  C_5
REMARK    4  A    between atoms: C_8  and  C_9
REMARK    5  A    between atoms: C_9  and  O_10
REMARK    6  A    between atoms: C_9  and  C_11
REMARK    7  A    between atoms: C_11  and  N_12
REMARK    8  A    between atoms: N_12  and  C_13
REMARK                            x       y       z     vdW  Elec       q    Type
REMARK                         _______ _______ _______ _____ _____    ______ ____
ROOT
ATOM      1  C   UNL     1      47.362   6.788  12.561  0.00  0.00    +0.000 A 
ATOM      2  C   UNL     1      46.912   6.849  11.236  0.00  0.00    +0.000 A 
ATOM      3  C   UNL     1      45.770   6.143  10.839  0.00  0.00    +0.000 A 
ATOM      4  C   UNL     1      45.038   5.382  11.764  0.00  0.00    +0.000 A 
ATOM      5  C   UNL     1      45.487   5.343  13.094  0.00  0.00    +0.000 A 
ATOM      6  C   UNL     1      46.628   6.043  13.489  0.00  0.00    +0.000 A 
ENDROOT
BRANCH   1   7
ATOM      7  C   UNL     1      48.609   7.515  12.984  0.00  0.00    +0.000 C 
BRANCH   7  10
ATOM      8  O   UNL     1      48.504   8.147  15.657  0.00  0.00    +0.000 OA
ATOM      9  C   UNL     1      49.151   7.155  15.330  0.00  0.00    +0.000 C 
ATOM     10  N   UNL     1      49.332   6.811  14.013  0.00  0.00    +0.000 N 
ATOM     11  H   UNL     1      49.696   5.892  13.779  0.00  0.00    +0.000 HD
BRANCH   9  12
ATOM     12  C   UNL     1      49.789   6.302  16.338  0.00  0.00    +0.000 A 
ATOM     13  C   UNL     1      49.004   5.493  17.150  0.00  0.00    +0.000 A 
ATOM     14  S   UNL     1      49.902   4.556  18.255  0.00  0.00    +0.000 S 
ATOM     15  C   UNL     1      51.374   5.165  17.657  0.00  0.00    +0.000 A 
ATOM     16  N   UNL     1      52.564   4.726  18.152  0.00  0.00    +0.000 NA
ATOM     17  C   UNL     1      53.600   5.246  17.580  0.00  0.00    +0.000 A 
ATOM     18  N   UNL     1      53.554   6.170  16.571  0.00  0.00    +0.000 N 
ATOM     19  C   UNL     1      52.377   6.670  16.066  0.00  0.00    +0.000 A 
ATOM     20  O   UNL     1      52.370   7.539  15.198  0.00  0.00    +0.000 OA
ATOM     21  C   UNL     1      51.181   6.097  16.651  0.00  0.00    +0.000 A 
ATOM     22  H   UNL     1      54.403   6.553  16.180  0.00  0.00    +0.000 HD
ENDBRANCH   9  12
ENDBRANCH   7  10
ENDBRANCH   1   7
BRANCH   4  23
ATOM     23  C   UNL     1      43.786   4.646  11.322  0.00  0.00    +0.000 C 
BRANCH  23  24
ATOM     24  O   UNL     1      43.237   5.283  10.163  0.00  0.00    +0.000 OA
ATOM     25  H   UNL     1      42.670   6.010  10.474  0.00  0.00    +0.000 HD
ENDBRANCH  23  24
BRANCH  23  26
ATOM     26  C   UNL     1      44.033   3.151  10.990  0.00  0.00    +0.000 C 
BRANCH  26  27
ATOM     27  N   UNL     1      44.017   2.850   9.554  0.00  0.00    +0.000 NA
ATOM     28  H   UNL     1      43.494   3.574   9.062  0.00  0.00    +0.000 HD
BRANCH  27  29
ATOM     29  C   UNL     1      45.354   2.712   8.963  0.00  0.00    +0.000 C 
ATOM     30  C   UNL     1      45.501   3.783   7.866  0.00  0.00    +0.000 C 
ATOM     31  C   UNL     1      46.833   3.671   7.128  0.00  0.00    +0.000 C 
ATOM     32  C   UNL     1      47.040   2.273   6.554  0.00  0.00    +0.000 C 
ATOM     33  C   UNL     1      46.928   1.215   7.641  0.00  0.00    +0.000 C 
ATOM     34  C   UNL     1      45.594   1.309   8.377  0.00  0.00    +0.000 C 
ENDBRANCH  27  29
ENDBRANCH  26  27
ENDBRANCH  23  26
ENDBRANCH   4  23
TORSDOF 8
ENDMDL
MODEL 6
REMARK VINA RESULT:    -7.335      1.493      2.031
REMARK INTER + INTRA:         -11.419
REMARK INTER:                 -10.654
REMARK INTRA:                  -0.765
REMARK UNBOUND:                -0.869
REMARK  Name = 
REMARK  8 active torsions:
REMARK  status: ('A' for Active; 'I' for Inactive)
REMARK    1  A    between atoms: C_2  and  C_21
REMARK    2  A    between atoms: N_3  and  C_4
REMARK    3  A    between atoms: C_4  and  C_5
REMARK    4  A    between atoms: C_8  and  C_9
REMARK    5  A    between atoms: C_9  and  O_10
REMARK    6  A    between atoms: C_9  and  C_11
REMARK    7  A    between atoms: C_11  and  N_12
REMARK    8  A    between atoms: N_12  and  C_13
REMARK                            x       y       z     vdW  Elec       q    Type
REMARK                         _______ _______ _______ _____ _____    ______ ____
ROOT
ATOM      1  C   UNL     1      47.721   6.943  13.578  0.00  0.00    +0.000 A 
ATOM      2  C   UNL     1      47.194   7.682  12.511  0.00  0.00    +0.000 A 
ATOM      3  C   UNL     1      46.280   7.098  11.626  0.00  0.00    +0.000 A 
ATOM      4  C   UNL     1      45.855   5.772  11.801  0.00  0.00    +0.000 A 
ATOM      5  C   UNL     1      46.376   5.047  12.885  0.00  0.00    +0.000 A 
ATOM      6  C   UNL     1      47.290   5.627  13.766  0.00  0.00    +0.000 A 
ENDROOT
BRANCH   1   7
ATOM      7  C   UNL     1      48.731   7.554  14.511  0.00  0.00    +0.000 C 
BRANCH   7  10
ATOM      8  O   UNL     1      50.075   5.863  16.212  0.00  0.00    +0.000 OA
ATOM      9  C   UNL     1      49.170   6.548  16.684  0.00  0.00    +0.000 C 
ATOM     10  N   UNL     1      48.386   7.356  15.897  0.00  0.00    +0.000 N 
ATOM     11  H   UNL     1      47.785   8.050  16.330  0.00  0.00    +0.000 HD
BRANCH   9  12
ATOM     12  C   UNL     1      48.864   6.511  18.118  0.00  0.00    +0.000 A 
ATOM     13  C   UNL     1      47.653   5.985  18.548  0.00  0.00    +0.000 A 
ATOM     14  S   UNL     1      47.463   6.001  20.242  0.00  0.00    +0.000 S 
ATOM     15  C   UNL     1      49.012   6.671  20.463  0.00  0.00    +0.000 A 
ATOM     16  N   UNL     1      49.502   6.902  21.712  0.00  0.00    +0.000 NA
ATOM     17  C   UNL     1      50.703   7.378  21.729  0.00  0.00    +0.000 A 
ATOM     18  N   UNL     1      51.452   7.654  20.617  0.00  0.00    +0.000 N 
ATOM     19  C   UNL     1      50.984   7.472  19.337  0.00  0.00    +0.000 A 
ATOM     20  O   UNL     1      51.661   7.781  18.359  0.00  0.00    +0.000 OA
ATOM     21  C   UNL     1      49.651   6.910  19.258  0.00  0.00    +0.000 A 
ATOM     22  H   UNL     1      52.379   8.044  20.700  0.00  0.00    +0.000 HD
ENDBRANCH   9  12
ENDBRANCH   7  10
ENDBRANCH   1   7
BRANCH   4  23
ATOM     23  C   UNL     1      44.842   5.165  10.848  0.00  0.00    +0.000 C 
BRANCH  23  24
ATOM     24  O   UNL     1      43.697   6.020  10.753  0.00  0.00    +0.000 OA
ATOM     25  H   UNL     1      43.020   5.664  11.354  0.00  0.00    +0.000 HD
ENDBRANCH  23  24
BRANCH  23  26
ATOM     26  C   UNL     1      45.401   4.934   9.419  0.00  0.00    +0.000 C 
BRANCH  26  27
ATOM     27  N   UNL     1      44.478   4.221   8.528  0.00  0.00    +0.000 NA
ATOM     28  H   UNL     1      44.013   4.891   7.917  0.00  0.00    +0.000 HD
BRANCH  27  29
ATOM     29  C   UNL     1      45.122   3.175   7.724  0.00  0.00    +0.000 C 
ATOM     30  C   UNL     1      45.624   2.081   8.684  0.00  0.00    +0.000 C 
ATOM     31  C   UNL     1      46.388   0.979   7.951  0.00  0.00    +0.000 C 
ATOM     32  C   UNL     1      47.538   1.548   7.127  0.00  0.00    +0.000 C 
ATOM     33  C   UNL     1      47.041   2.607   6.155  0.00  0.00    +0.000 C 
ATOM     34  C   UNL     1      46.287   3.719   6.878  0.00  0.00    +0.000 C 
ENDBRANCH  27  29
ENDBRANCH  26  27
ENDBRANCH  23  26
ENDBRANCH   4  23
TORSDOF 8
ENDMDL
MODEL 7
REMARK VINA RESULT:    -7.290      3.431      8.789
REMARK INTER + INTRA:         -11.355
REMARK INTER:                  -9.709
REMARK INTRA:                  -1.647
REMARK UNBOUND:                -0.869
REMARK  Name = 
REMARK  8 active torsions:
REMARK  status: ('A' for Active; 'I' for Inactive)
REMARK    1  A    between atoms: C_2  and  C_21
REMARK    2  A    between atoms: N_3  and  C_4
REMARK    3  A    between atoms: C_4  and  C_5
REMARK    4  A    between atoms: C_8  and  C_9
REMARK    5  A    between atoms: C_9  and  O_10
REMARK    6  A    between atoms: C_9  and  C_11
REMARK    7  A    between atoms: C_11  and  N_12
REMARK    8  A    between atoms: N_12  and  C_13
REMARK                            x       y       z     vdW  Elec       q    Type
REMARK                         _______ _______ _______ _____ _____    ______ ____
ROOT
ATOM      1  C   UNL     1      48.404   8.046  13.679  0.00  0.00    +0.000 A 
ATOM      2  C   UNL     1      48.768   6.854  14.318  0.00  0.00    +0.000 A 
ATOM      3  C   UNL     1      49.000   6.829  15.698  0.00  0.00    +0.000 A 
ATOM      4  C   UNL     1      48.848   7.989  16.473  0.00  0.00    +0.000 A 
ATOM      5  C   UNL     1      48.464   9.175  15.826  0.00  0.00    +0.000 A 
ATOM      6  C   UNL     1      48.236   9.200  14.449  0.00  0.00    +0.000 A 
ENDROOT
BRANCH   1   7
ATOM      7  C   UNL     1      48.188   8.086  12.190  0.00  0.00    +0.000 C 
BRANCH   7  10
ATOM      8  O   UNL     1      45.479   7.898  11.762  0.00  0.00    +0.000 OA
ATOM      9  C   UNL     1      46.176   6.937  11.445  0.00  0.00    +0.000 C 
ATOM     10  N   UNL     1      47.525   6.904  11.701  0.00  0.00    +0.000 N 
ATOM     11  H   UNL     1      48.103   6.196  11.259  0.00  0.00    +0.000 HD
BRANCH   9  12
ATOM     12  C   UNL     1      45.588   5.758  10.800  0.00  0.00    +0.000 A 
ATOM     13  C   UNL     1      45.838   5.513   9.456  0.00  0.00    +0.000 A 
ATOM     14  S   UNL     1      45.094   4.097   8.868  0.00  0.00    +0.000 S 
ATOM     15  C   UNL     1      44.448   3.736  10.401  0.00  0.00    +0.000 A 
ATOM     16  N   UNL     1      43.724   2.602  10.604  0.00  0.00    +0.000 NA
ATOM     17  C   UNL     1      43.327   2.438  11.823  0.00  0.00    +0.000 A 
ATOM     18  N   UNL     1      43.578   3.308  12.850  0.00  0.00    +0.000 N 
ATOM     19  C   UNL     1      44.272   4.483  12.684  0.00  0.00    +0.000 A 
ATOM     20  O   UNL     1      44.433   5.268  13.614  0.00  0.00    +0.000 OA
ATOM     21  C   UNL     1      44.767   4.702  11.340  0.00  0.00    +0.000 A 
ATOM     22  H   UNL     1      43.221   3.130  13.778  0.00  0.00    +0.000 HD
ENDBRANCH   9  12
ENDBRANCH   7  10
ENDBRANCH   1   7
BRANCH   4  23
ATOM     23  C   UNL     1      49.076   7.937  17.973  0.00  0.00    +0.000 C 
BRANCH  23  24
ATOM     24  O   UNL     1      48.869   9.237  18.537  0.00  0.00    +0.000 OA
ATOM     25  H   UNL     1      49.317   9.878  17.959  0.00  0.00    +0.000 HD
ENDBRANCH  23  24
BRANCH  23  26
ATOM     26  C   UNL     1      48.148   6.932  18.704  0.00  0.00    +0.000 C 
BRANCH  26  27
ATOM     27  N   UNL     1      48.866   5.883  19.438  0.00  0.00    +0.000 NA
ATOM     28  H   UNL     1      48.599   5.915  20.421  0.00  0.00    +0.000 HD
BRANCH  27  29
ATOM     29  C   UNL     1      48.650   4.533  18.904  0.00  0.00    +0.000 C 
ATOM     30  C   UNL     1      49.894   4.141  18.086  0.00  0.00    +0.000 C 
ATOM     31  C   UNL     1      49.734   2.778  17.415  0.00  0.00    +0.000 C 
ATOM     32  C   UNL     1      48.478   2.723  16.552  0.00  0.00    +0.000 C 
ATOM     33  C   UNL     1      47.242   3.078  17.365  0.00  0.00    +0.000 C 
ATOM     34  C   UNL     1      47.385   4.444  18.030  0.00  0.00    +0.000 C 
ENDBRANCH  27  29
ENDBRANCH  26  27
ENDBRANCH  23  26
ENDBRANCH   4  23
TORSDOF 8
ENDMDL
MODEL 8
REMARK VINA RESULT:    -7.102      2.981      9.180
REMARK INTER + INTRA:         -11.085
REMARK INTER:                  -9.376
REMARK INTRA:                  -1.709
REMARK UNBOUND:                -0.869
REMARK  Name = 
REMARK  8 active torsions:
REMARK  status: ('A' for Active; 'I' for Inactive)
REMARK    1  A    between atoms: C_2  and  C_21
REMARK    2  A    between atoms: N_3  and  C_4
REMARK    3  A    between atoms: C_4  and  C_5
REMARK    4  A    between atoms: C_8  and  C_9
REMARK    5  A    between atoms: C_9  and  O_10
REMARK    6  A    between atoms: C_9  and  C_11
REMARK    7  A    between atoms: C_11  and  N_12
REMARK    8  A    between atoms: N_12  and  C_13
REMARK                            x       y       z     vdW  Elec       q    Type
REMARK                         _______ _______ _______ _____ _____    ______ ____
ROOT
ATOM      1  C   UNL     1      48.019   7.870  13.537  0.00  0.00    +0.000 A 
ATOM      2  C   UNL     1      47.707   8.986  14.324  0.00  0.00    +0.000 A 
ATOM      3  C   UNL     1      48.162   9.074  15.646  0.00  0.00    +0.000 A 
ATOM      4  C   UNL     1      48.958   8.060  16.200  0.00  0.00    +0.000 A 
ATOM      5  C   UNL     1      49.281   6.955  15.396  0.00  0.00    +0.000 A 
ATOM      6  C   UNL     1      48.824   6.866  14.080  0.00  0.00    +0.000 A 
ENDROOT
BRANCH   1   7
ATOM      7  C   UNL     1      47.503   7.755  12.129  0.00  0.00    +0.000 C 
BRANCH   7  10
ATOM      8  O   UNL     1      44.942   7.067  12.853  0.00  0.00    +0.000 OA
ATOM      9  C   UNL     1      45.590   6.251  12.200  0.00  0.00    +0.000 C 
ATOM     10  N   UNL     1      46.904   6.470  11.868  0.00  0.00    +0.000 N 
ATOM     11  H   UNL     1      47.351   5.882  11.171  0.00  0.00    +0.000 HD
BRANCH   9  12
ATOM     12  C   UNL     1      44.992   4.984  11.768  0.00  0.00    +0.000 A 
ATOM     13  C   UNL     1      44.249   4.232  12.668  0.00  0.00    +0.000 A 
ATOM     14  S   UNL     1      43.614   2.798  12.002  0.00  0.00    +0.000 S 
ATOM     15  C   UNL     1      44.271   3.153  10.473  0.00  0.00    +0.000 A 
ATOM     16  N   UNL     1      44.053   2.331   9.411  0.00  0.00    +0.000 NA
ATOM     17  C   UNL     1      44.581   2.743   8.305  0.00  0.00    +0.000 A 
ATOM     18  N   UNL     1      45.312   3.892   8.169  0.00  0.00    +0.000 N 
ATOM     19  C   UNL     1      45.589   4.732   9.221  0.00  0.00    +0.000 A 
ATOM     20  O   UNL     1      46.295   5.727   9.076  0.00  0.00    +0.000 OA
ATOM     21  C   UNL     1      44.995   4.333  10.481  0.00  0.00    +0.000 A 
ATOM     22  H   UNL     1      45.715   4.147   7.278  0.00  0.00    +0.000 HD
ENDBRANCH   9  12
ENDBRANCH   7  10
ENDBRANCH   1   7
BRANCH   4  23
ATOM     23  C   UNL     1      49.466   8.185  17.625  0.00  0.00    +0.000 C 
BRANCH  23  24
ATOM     24  O   UNL     1      49.445   9.560  18.025  0.00  0.00    +0.000 OA
ATOM     25  H   UNL     1      49.862  10.075  17.313  0.00  0.00    +0.000 HD
ENDBRANCH  23  24
BRANCH  23  26
ATOM     26  C   UNL     1      48.639   7.364  18.649  0.00  0.00    +0.000 C 
BRANCH  26  27
ATOM     27  N   UNL     1      49.362   6.218  19.216  0.00  0.00    +0.000 NA
ATOM     28  H   UNL     1      49.340   6.275  20.233  0.00  0.00    +0.000 HD
BRANCH  27  29
ATOM     29  C   UNL     1      48.845   4.916  18.775  0.00  0.00    +0.000 C 
ATOM     30  C   UNL     1      49.936   4.235  17.928  0.00  0.00    +0.000 C 
ATOM     31  C   UNL     1      49.465   2.903  17.349  0.00  0.00    +0.000 C 
ATOM     32  C   UNL     1      48.176   3.064  16.549  0.00  0.00    +0.000 C 
ATOM     33  C   UNL     1      47.086   3.708  17.393  0.00  0.00    +0.000 C 
ATOM     34  C   UNL     1      47.542   5.046  17.966  0.00  0.00    +0.000 C 
ENDBRANCH  27  29
ENDBRANCH  26  27
ENDBRANCH  23  26
ENDBRANCH   4  23
TORSDOF 8
ENDMDL
MODEL 9
REMARK VINA RESULT:    -7.077      4.082      9.478
REMARK INTER + INTRA:         -11.049
REMARK INTER:                  -9.370
REMARK INTRA:                  -1.679
REMARK UNBOUND:                -0.869
REMARK  Name = 
REMARK  8 active torsions:
REMARK  status: ('A' for Active; 'I' for Inactive)
REMARK    1  A    between atoms: C_2  and  C_21
REMARK    2  A    between atoms: N_3  and  C_4
REMARK    3  A    between atoms: C_4  and  C_5
REMARK    4  A    between atoms: C_8  and  C_9
REMARK    5  A    between atoms: C_9  and  O_10
REMARK    6  A    between atoms: C_9  and  C_11
REMARK    7  A    between atoms: C_11  and  N_12
REMARK    8  A    between atoms: N_12  and  C_13
REMARK                            x       y       z     vdW  Elec       q    Type
REMARK                         _______ _______ _______ _____ _____    ______ ____
ROOT
ATOM      1  C   UNL     1      48.644   3.418  17.335  0.00  0.00    +0.000 A 
ATOM      2  C   UNL     1      49.588   2.440  16.999  0.00  0.00    +0.000 A 
ATOM      3  C   UNL     1      50.904   2.530  17.471  0.00  0.00    +0.000 A 
ATOM      4  C   UNL     1      51.296   3.586  18.308  0.00  0.00    +0.000 A 
ATOM      5  C   UNL     1      50.336   4.550  18.654  0.00  0.00    +0.000 A 
ATOM      6  C   UNL     1      49.026   4.462  18.181  0.00  0.00    +0.000 A 
ENDROOT
BRANCH   1   7
ATOM      7  C   UNL     1      47.239   3.345  16.802  0.00  0.00    +0.000 C 
BRANCH   7  10
ATOM      8  O   UNL     1      47.291   3.138  14.062  0.00  0.00    +0.000 OA
ATOM      9  C   UNL     1      46.914   4.203  14.547  0.00  0.00    +0.000 C 
ATOM     10  N   UNL     1      46.937   4.429  15.902  0.00  0.00    +0.000 N 
ATOM     11  H   UNL     1      46.443   5.229  16.287  0.00  0.00    +0.000 HD
BRANCH   9  12
ATOM     12  C   UNL     1      46.447   5.300  13.694  0.00  0.00    +0.000 A 
ATOM     13  C   UNL     1      47.276   6.388  13.458  0.00  0.00    +0.000 A 
ATOM     14  S   UNL     1      46.588   7.564  12.434  0.00  0.00    +0.000 S 
ATOM     15  C   UNL     1      45.174   6.639  12.232  0.00  0.00    +0.000 A 
ATOM     16  N   UNL     1      44.171   7.064  11.417  0.00  0.00    +0.000 NA
ATOM     17  C   UNL     1      43.175   6.244  11.330  0.00  0.00    +0.000 A 
ATOM     18  N   UNL     1      43.087   5.049  11.991  0.00  0.00    +0.000 N 
ATOM     19  C   UNL     1      44.058   4.597  12.853  0.00  0.00    +0.000 A 
ATOM     20  O   UNL     1      43.923   3.545  13.474  0.00  0.00    +0.000 OA
ATOM     21  C   UNL     1      45.213   5.464  12.965  0.00  0.00    +0.000 A 
ATOM     22  H   UNL     1      42.270   4.463  11.895  0.00  0.00    +0.000 HD
ENDBRANCH   9  12
ENDBRANCH   7  10
ENDBRANCH   1   7
BRANCH   4  23
ATOM     23  C   UNL     1      52.719   3.652  18.833  0.00  0.00    +0.000 C 
BRANCH  23  24
ATOM     24  O   UNL     1      53.184   2.331  19.133  0.00  0.00    +0.000 OA
ATOM     25  H   UNL     1      53.685   2.018  18.359  0.00  0.00    +0.000 HD
ENDBRANCH  23  24
BRANCH  23  26
ATOM     26  C   UNL     1      53.714   4.308  17.839  0.00  0.00    +0.000 C 
BRANCH  26  27
ATOM     27  N   UNL     1      54.173   5.640  18.249  0.00  0.00    +0.000 NA
ATOM     28  H   UNL     1      55.175   5.719  18.079  0.00  0.00    +0.000 HD
BRANCH  27  29
ATOM     29  C   UNL     1      53.465   6.741  17.584  0.00  0.00    +0.000 C 
ATOM     30  C   UNL     1      52.505   7.374  18.608  0.00  0.00    +0.000 C 
ATOM     31  C   UNL     1      51.656   8.483  17.990  0.00  0.00    +0.000 C 
ATOM     32  C   UNL     1      50.894   7.987  16.766  0.00  0.00    +0.000 C 
ATOM     33  C   UNL     1      51.842   7.389  15.738  0.00  0.00    +0.000 C 
ATOM     34  C   UNL     1      52.688   6.272  16.341  0.00  0.00    +0.000 C 
ENDBRANCH  27  29
ENDBRANCH  26  27
ENDBRANCH  23  26
ENDBRANCH   4  23
TORSDOF 8
ENDMDL
