MODEL 1
REMARK VINA RESULT:    -8.327      0.000      0.000
REMARK INTER + INTRA:         -12.391
REMARK INTER:                 -11.248
REMARK INTRA:                  -1.143
REMARK UNBOUND:                -1.143
REMARK  Name = 
REMARK  6 active torsions:
REMARK  status: ('A' for Active; 'I' for Inactive)
REMARK    1  A    between atoms: C_2  and  C_25
REMARK    2  A    between atoms: N_3  and  C_4
REMARK    3  A    between atoms: C_4  and  C_5
REMARK    4  A    between atoms: C_8  and  C_9
REMARK    5  A    between atoms: C_9  and  N_10
REMARK    6  A    between atoms: C_11  and  C_13
REMARK                            x       y       z     vdW  Elec       q    Type
REMARK                         _______ _______ _______ _____ _____    ______ ____
ROOT
ATOM      1  C   UNL     1      45.226   6.521  11.155  0.00  0.00    +0.000 A 
ATOM      2  C   UNL     1      44.699   7.607  11.867  0.00  0.00    +0.000 A 
ATOM      3  C   UNL     1      45.480   8.292  12.806  0.00  0.00    +0.000 A 
ATOM      4  C   UNL     1      46.811   7.918  13.034  0.00  0.00    +0.000 A 
ATOM      5  C   UNL     1      47.339   6.839  12.315  0.00  0.00    +0.000 A 
ATOM      6  C   UNL     1      46.559   6.154  11.376  0.00  0.00    +0.000 A 
ENDROOT
BRANCH   1   7
ATOM      7  C   UNL     1      44.365   5.747  10.188  0.00  0.00    +0.000 C 
BRANCH   7  10
ATOM      8  O   UNL     1      44.324   2.982   9.966  0.00  0.00    +0.000 OA
ATOM      9  C   UNL     1      45.031   3.619   9.194  0.00  0.00    +0.000 C 
ATOM     10  N   UNL     1      45.141   4.996   9.229  0.00  0.00    +0.000 N 
ATOM     11  H   UNL     1      45.550   5.490   8.447  0.00  0.00    +0.000 HD
BRANCH   9  12
ATOM     12  C   UNL     1      45.800   2.918   8.132  0.00  0.00    +0.000 A 
ATOM     13  C   UNL     1      46.146   1.574   8.330  0.00  0.00    +0.000 A 
ATOM     14  C   UNL     1      46.882   0.888   7.362  0.00  0.00    +0.000 A 
ATOM     15  C   UNL     1      47.285   1.545   6.201  0.00  0.00    +0.000 A 
ATOM     16  C   UNL     1      46.962   2.888   6.007  0.00  0.00    +0.000 A 
ATOM     17  C   UNL     1      46.222   3.577   6.971  0.00  0.00    +0.000 A 
ENDBRANCH   9  12
ENDBRANCH   7  10
ENDBRANCH   1   7
BRANCH   4  18
ATOM     18  C   UNL     1      47.649   8.631  14.067  0.00  0.00    +0.000 C 
BRANCH  18  19
ATOM     19  N   UNL     1      47.940   7.781  15.194  0.00  0.00    +0.000 N 
ATOM     20  C   UNL     1      49.169   7.183  15.329  0.00  0.00    +0.000 C 
ATOM     21  O   UNL     1      50.075   7.378  14.522  0.00  0.00    +0.000 OA
ATOM     22  H   UNL     1      47.152   7.434  15.732  0.00  0.00    +0.000 HD
BRANCH  20  23
ATOM     23  C   UNL     1      49.374   6.347  16.520  0.00  0.00    +0.000 A 
ATOM     24  C   UNL     1      50.358   6.693  17.437  0.00  0.00    +0.000 A 
ATOM     25  S   UNL     1      50.431   5.656  18.788  0.00  0.00    +0.000 S 
ATOM     26  C   UNL     1      49.187   4.674  18.169  0.00  0.00    +0.000 A 
ATOM     27  N   UNL     1      48.770   3.568  18.842  0.00  0.00    +0.000 NA
ATOM     28  C   UNL     1      47.846   2.895  18.241  0.00  0.00    +0.000 A 
ATOM     29  N   UNL     1      47.299   3.232  17.030  0.00  0.00    +0.000 N 
ATOM     30  C   UNL     1      47.663   4.357  16.331  0.00  0.00    +0.000 A 
ATOM     31  O   UNL     1      47.122   4.654  15.271  0.00  0.00    +0.000 OA
ATOM     32  C   UNL     1      48.711   5.142  16.957  0.00  0.00    +0.000 A 
ATOM     33  H   UNL     1      46.573   2.665  16.616  0.00  0.00    +0.000 HD
ENDBRANCH  20  23
ENDBRANCH  18  19
ENDBRANCH   4  18
TORSDOF 6
ENDMDL
MODEL 2
REMARK VINA RESULT:    -7.869      2.476      2.785
REMARK INTER + INTRA:         -11.772
REMARK INTER:                 -10.883
REMARK INTRA:                  -0.889
REMARK UNBOUND:                -1.143
REMARK  Name = 
REMARK  6 active torsions:
REMARK  status: ('A' for Active; 'I' for Inactive)
REMARK    1  A    between atoms: C_2  and  C_25
REMARK    2  A    between atoms: N_3  and  C_4
REMARK    3  A    between atoms: C_4  and  C_5
REMARK    4  A    between atoms: C_8  and  C_9
REMARK    5  A    between atoms: C_9  and  N_10
REMARK    6  A    between atoms: C_11  and  C_13
REMARK                            x       y       z     vdW  Elec       q    Type
REMARK                         _______ _______ _______ _____ _____    ______ ____
ROOT
ATOM      1  C   UNL     1      45.263   6.501  11.759  0.00  0.00    +0.000 A 
ATOM      2  C   UNL     1      46.432   5.996  12.345  0.00  0.00    +0.000 A 
ATOM      3  C   UNL     1      47.257   6.821  13.119  0.00  0.00    +0.000 A 
ATOM      4  C   UNL     1      46.917   8.162  13.342  0.00  0.00    +0.000 A 
ATOM      5  C   UNL     1      45.743   8.662  12.764  0.00  0.00    +0.000 A 
ATOM      6  C   UNL     1      44.918   7.839  11.990  0.00  0.00    +0.000 A 
ENDROOT
BRANCH   1   7
ATOM      7  C   UNL     1      44.408   5.627  10.876  0.00  0.00    +0.000 C 
BRANCH   7  10
ATOM      8  O   UNL     1      43.844   3.050  10.017  0.00  0.00    +0.000 OA
ATOM      9  C   UNL     1      44.798   3.636   9.517  0.00  0.00    +0.000 C 
ATOM     10  N   UNL     1      45.179   4.913   9.885  0.00  0.00    +0.000 N 
ATOM     11  H   UNL     1      45.818   5.436   9.302  0.00  0.00    +0.000 HD
BRANCH   9  12
ATOM     12  C   UNL     1      45.591   2.991   8.437  0.00  0.00    +0.000 A 
ATOM     13  C   UNL     1      45.893   1.627   8.550  0.00  0.00    +0.000 A 
ATOM     14  C   UNL     1      46.650   0.991   7.564  0.00  0.00    +0.000 A 
ATOM     15  C   UNL     1      47.118   1.718   6.471  0.00  0.00    +0.000 A 
ATOM     16  C   UNL     1      46.838   3.080   6.363  0.00  0.00    +0.000 A 
ATOM     17  C   UNL     1      46.077   3.719   7.346  0.00  0.00    +0.000 A 
ENDBRANCH   9  12
ENDBRANCH   7  10
ENDBRANCH   1   7
BRANCH   4  18
ATOM     18  C   UNL     1      47.817   9.064  14.149  0.00  0.00    +0.000 C 
BRANCH  18  19
ATOM     19  N   UNL     1      47.544   8.960  15.562  0.00  0.00    +0.000 N 
ATOM     20  C   UNL     1      48.331   9.606  16.483  0.00  0.00    +0.000 C 
ATOM     21  O   UNL     1      49.268  10.324  16.142  0.00  0.00    +0.000 OA
ATOM     22  H   UNL     1      46.933   8.208  15.864  0.00  0.00    +0.000 HD
BRANCH  20  23
ATOM     23  C   UNL     1      47.962   9.451  17.896  0.00  0.00    +0.000 A 
ATOM     24  C   UNL     1      47.607  10.571  18.637  0.00  0.00    +0.000 A 
ATOM     25  S   UNL     1      47.153  10.216  20.242  0.00  0.00    +0.000 S 
ATOM     26  C   UNL     1      47.469   8.559  20.022  0.00  0.00    +0.000 A 
ATOM     27  N   UNL     1      47.305   7.674  21.042  0.00  0.00    +0.000 NA
ATOM     28  C   UNL     1      47.616   6.457  20.748  0.00  0.00    +0.000 A 
ATOM     29  N   UNL     1      48.072   6.043  19.523  0.00  0.00    +0.000 N 
ATOM     30  C   UNL     1      48.221   6.893  18.453  0.00  0.00    +0.000 A 
ATOM     31  O   UNL     1      48.588   6.482  17.357  0.00  0.00    +0.000 OA
ATOM     32  C   UNL     1      47.898   8.279  18.735  0.00  0.00    +0.000 A 
ATOM     33  H   UNL     1      48.292   5.072  19.355  0.00  0.00    +0.000 HD
ENDBRANCH  20  23
ENDBRANCH  18  19
ENDBRANCH   4  18
TORSDOF 6
ENDMDL
MODEL 3
REMARK VINA RESULT:    -7.772      2.173      2.687
REMARK INTER + INTRA:         -11.641
REMARK INTER:                 -10.735
REMARK INTRA:                  -0.906
REMARK UNBOUND:                -1.143
REMARK  Name = 
REMARK  6 active torsions:
REMARK  status: ('A' for Active; 'I' for Inactive)
REMARK    1  A    between atoms: C_2  and  C_25
REMARK    2  A    between atoms: N_3  and  C_4
REMARK    3  A    between atoms: C_4  and  C_5
REMARK    4  A    between atoms: C_8  and  C_9
REMARK    5  A    between atoms: C_9  and  N_10
REMARK    6  A    between atoms: C_11  and  C_13
REMARK                            x       y       z     vdW  Elec       q    Type
REMARK                         _______ _______ _______ _____ _____    ______ ____
ROOT
ATOM      1  C   UNL     1      45.248   5.526  11.658  0.00  0.00    +0.000 A 
ATOM      2  C   UNL     1      45.446   6.912  11.605  0.00  0.00    +0.000 A 
ATOM      3  C   UNL     1      46.400   7.529  12.424  0.00  0.00    +0.000 A 
ATOM      4  C   UNL     1      47.192   6.768  13.295  0.00  0.00    +0.000 A 
ATOM      5  C   UNL     1      47.000   5.382  13.339  0.00  0.00    +0.000 A 
ATOM      6  C   UNL     1      46.046   4.765  12.522  0.00  0.00    +0.000 A 
ENDROOT
BRANCH   1   7
ATOM      7  C   UNL     1      44.178   4.871  10.821  0.00  0.00    +0.000 C 
BRANCH   7  10
ATOM      8  O   UNL     1      45.700   5.428   8.569  0.00  0.00    +0.000 OA
ATOM      9  C   UNL     1      45.468   4.256   8.841  0.00  0.00    +0.000 C 
ATOM     10  N   UNL     1      44.707   3.867   9.927  0.00  0.00    +0.000 N 
ATOM     11  H   UNL     1      44.727   2.906  10.240  0.00  0.00    +0.000 HD
BRANCH   9  12
ATOM     12  C   UNL     1      46.043   3.167   8.008  0.00  0.00    +0.000 A 
ATOM     13  C   UNL     1      46.512   3.480   6.725  0.00  0.00    +0.000 A 
ATOM     14  C   UNL     1      47.042   2.480   5.908  0.00  0.00    +0.000 A 
ATOM     15  C   UNL     1      47.092   1.164   6.364  0.00  0.00    +0.000 A 
ATOM     16  C   UNL     1      46.607   0.842   7.631  0.00  0.00    +0.000 A 
ATOM     17  C   UNL     1      46.080   1.841   8.454  0.00  0.00    +0.000 A 
ENDBRANCH   9  12
ENDBRANCH   7  10
ENDBRANCH   1   7
BRANCH   4  18
ATOM     18  C   UNL     1      48.200   7.430  14.201  0.00  0.00    +0.000 C 
BRANCH  18  19
ATOM     19  N   UNL     1      48.035   7.014  15.572  0.00  0.00    +0.000 N 
ATOM     20  C   UNL     1      49.089   6.503  16.288  0.00  0.00    +0.000 C 
ATOM     21  O   UNL     1      50.216   6.416  15.806  0.00  0.00    +0.000 OA
ATOM     22  H   UNL     1      47.086   6.867  15.904  0.00  0.00    +0.000 HD
BRANCH  20  23
ATOM     23  C   UNL     1      48.824   6.123  17.682  0.00  0.00    +0.000 A 
ATOM     24  C   UNL     1      49.083   4.824  18.098  0.00  0.00    +0.000 A 
ATOM     25  S   UNL     1      48.776   4.560  19.754  0.00  0.00    +0.000 S 
ATOM     26  C   UNL     1      48.231   6.158  19.963  0.00  0.00    +0.000 A 
ATOM     27  N   UNL     1      47.786   6.592  21.173  0.00  0.00    +0.000 NA
ATOM     28  C   UNL     1      47.369   7.813  21.181  0.00  0.00    +0.000 A 
ATOM     29  N   UNL     1      47.361   8.642  20.088  0.00  0.00    +0.000 N 
ATOM     30  C   UNL     1      47.833   8.259  18.855  0.00  0.00    +0.000 A 
ATOM     31  O   UNL     1      47.854   9.040  17.909  0.00  0.00    +0.000 OA
ATOM     32  C   UNL     1      48.300   6.888  18.789  0.00  0.00    +0.000 A 
ATOM     33  H   UNL     1      47.027   9.592  20.163  0.00  0.00    +0.000 HD
ENDBRANCH  20  23
ENDBRANCH  18  19
ENDBRANCH   4  18
TORSDOF 6
ENDMDL
MODEL 4
REMARK VINA RESULT:    -7.170      4.976      9.473
REMARK INTER + INTRA:         -10.828
REMARK INTER:                  -9.966
REMARK INTRA:                  -0.862
REMARK UNBOUND:                -1.143
REMARK  Name = 
REMARK  6 active torsions:
REMARK  status: ('A' for Active; 'I' for Inactive)
REMARK    1  A    between atoms: C_2  and  C_25
REMARK    2  A    between atoms: N_3  and  C_4
REMARK    3  A    between atoms: C_4  and  C_5
REMARK    4  A    between atoms: C_8  and  C_9
REMARK    5  A    between atoms: C_9  and  N_10
REMARK    6  A    between atoms: C_11  and  C_13
REMARK                            x       y       z     vdW  Elec       q    Type
REMARK                         _______ _______ _______ _____ _____    ______ ____
ROOT
ATOM      1  C   UNL     1      51.420   3.148  17.667  0.00  0.00    +0.000 A 
ATOM      2  C   UNL     1      50.784   4.379  17.883  0.00  0.00    +0.000 A 
ATOM      3  C   UNL     1      49.409   4.521  17.661  0.00  0.00    +0.000 A 
ATOM      4  C   UNL     1      48.638   3.429  17.241  0.00  0.00    +0.000 A 
ATOM      5  C   UNL     1      49.272   2.198  17.036  0.00  0.00    +0.000 A 
ATOM      6  C   UNL     1      50.646   2.054  17.257  0.00  0.00    +0.000 A 
ENDROOT
BRANCH   1   7
ATOM      7  C   UNL     1      52.910   3.012  17.848  0.00  0.00    +0.000 C 
BRANCH   7  10
ATOM      8  O   UNL     1      54.243   1.215  19.488  0.00  0.00    +0.000 OA
ATOM      9  C   UNL     1      54.046   0.903  18.319  0.00  0.00    +0.000 C 
ATOM     10  N   UNL     1      53.410   1.729  17.412  0.00  0.00    +0.000 N 
ATOM     11  H   UNL     1      53.073   1.352  16.536  0.00  0.00    +0.000 HD
BRANCH   9  12
ATOM     12  C   UNL     1      54.467  -0.434  17.821  0.00  0.00    +0.000 A 
ATOM     13  C   UNL     1      54.811  -0.567  16.468  0.00  0.00    +0.000 A 
ATOM     14  C   UNL     1      55.194  -1.810  15.961  0.00  0.00    +0.000 A 
ATOM     15  C   UNL     1      55.222  -2.924  16.798  0.00  0.00    +0.000 A 
ATOM     16  C   UNL     1      54.860  -2.802  18.140  0.00  0.00    +0.000 A 
ATOM     17  C   UNL     1      54.480  -1.559  18.653  0.00  0.00    +0.000 A 
ENDBRANCH   9  12
ENDBRANCH   7  10
ENDBRANCH   1   7
BRANCH   4  18
ATOM     18  C   UNL     1      47.162   3.583  16.971  0.00  0.00    +0.000 C 
BRANCH  18  19
ATOM     19  N   UNL     1      46.909   4.573  15.953  0.00  0.00    +0.000 N 
ATOM     20  C   UNL     1      47.046   4.268  14.621  0.00  0.00    +0.000 C 
ATOM     21  O   UNL     1      47.350   3.139  14.245  0.00  0.00    +0.000 OA
ATOM     22  H   UNL     1      46.883   5.545  16.244  0.00  0.00    +0.000 HD
BRANCH  20  23
ATOM     23  C   UNL     1      46.750   5.340  13.660  0.00  0.00    +0.000 A 
ATOM     24  C   UNL     1      47.727   6.282  13.365  0.00  0.00    +0.000 A 
ATOM     25  S   UNL     1      47.246   7.422  12.191  0.00  0.00    +0.000 S 
ATOM     26  C   UNL     1      45.695   6.732  12.078  0.00  0.00    +0.000 A 
ATOM     27  N   UNL     1      44.755   7.259  11.248  0.00  0.00    +0.000 NA
ATOM     28  C   UNL     1      43.612   6.660  11.289  0.00  0.00    +0.000 A 
ATOM     29  N   UNL     1      43.327   5.578  12.080  0.00  0.00    +0.000 N 
ATOM     30  C   UNL     1      44.254   4.990  12.907  0.00  0.00    +0.000 A 
ATOM     31  O   UNL     1      43.979   3.994  13.569  0.00  0.00    +0.000 OA
ATOM     32  C   UNL     1      45.553   5.635  12.911  0.00  0.00    +0.000 A 
ATOM     33  H   UNL     1      42.413   5.150  12.060  0.00  0.00    +0.000 HD
ENDBRANCH  20  23
ENDBRANCH  18  19
ENDBRANCH   4  18
TORSDOF 6
ENDMDL
MODEL 5
REMARK VINA RESULT:    -7.058      3.342      8.691
REMARK INTER + INTRA:         -10.676
REMARK INTER:                  -9.654
REMARK INTRA:                  -1.022
REMARK UNBOUND:                -1.143
REMARK  Name = 
REMARK  6 active torsions:
REMARK  status: ('A' for Active; 'I' for Inactive)
REMARK    1  A    between atoms: C_2  and  C_25
REMARK    2  A    between atoms: N_3  and  C_4
REMARK    3  A    between atoms: C_4  and  C_5
REMARK    4  A    between atoms: C_8  and  C_9
REMARK    5  A    between atoms: C_9  and  N_10
REMARK    6  A    between atoms: C_11  and  C_13
REMARK                            x       y       z     vdW  Elec       q    Type
REMARK                         _______ _______ _______ _____ _____    ______ ____
ROOT
ATOM      1  C   UNL     1      50.448   7.389  15.391  0.00  0.00    +0.000 A 
ATOM      2  C   UNL     1      50.863   8.050  14.227  0.00  0.00    +0.000 A 
ATOM      3  C   UNL     1      49.999   8.179  13.133  0.00  0.00    +0.000 A 
ATOM      4  C   UNL     1      48.695   7.670  13.190  0.00  0.00    +0.000 A 
ATOM      5  C   UNL     1      48.278   7.019  14.359  0.00  0.00    +0.000 A 
ATOM      6  C   UNL     1      49.141   6.889  15.452  0.00  0.00    +0.000 A 
ENDROOT
BRANCH   1   7
ATOM      7  C   UNL     1      51.400   7.198  16.545  0.00  0.00    +0.000 C 
BRANCH   7  10
ATOM      8  O   UNL     1      50.528   5.465  18.529  0.00  0.00    +0.000 OA
ATOM      9  C   UNL     1      51.329   5.048  17.700  0.00  0.00    +0.000 C 
ATOM     10  N   UNL     1      51.842   5.829  16.683  0.00  0.00    +0.000 N 
ATOM     11  H   UNL     1      52.316   5.395  15.902  0.00  0.00    +0.000 HD
BRANCH   9  12
ATOM     12  C   UNL     1      51.771   3.628  17.736  0.00  0.00    +0.000 A 
ATOM     13  C   UNL     1      50.853   2.631  17.378  0.00  0.00    +0.000 A 
ATOM     14  C   UNL     1      51.228   1.286  17.416  0.00  0.00    +0.000 A 
ATOM     15  C   UNL     1      52.513   0.934  17.823  0.00  0.00    +0.000 A 
ATOM     16  C   UNL     1      53.424   1.920  18.201  0.00  0.00    +0.000 A 
ATOM     17  C   UNL     1      53.055   3.268  18.160  0.00  0.00    +0.000 A 
ENDBRANCH   9  12
ENDBRANCH   7  10
ENDBRANCH   1   7
BRANCH   4  18
ATOM     18  C   UNL     1      47.769   7.778  12.004  0.00  0.00    +0.000 C 
BRANCH  18  19
ATOM     19  N   UNL     1      47.048   6.550  11.780  0.00  0.00    +0.000 N 
ATOM     20  C   UNL     1      45.678   6.508  11.868  0.00  0.00    +0.000 C 
ATOM     21  O   UNL     1      45.014   7.515  12.102  0.00  0.00    +0.000 OA
ATOM     22  H   UNL     1      47.578   5.685  11.812  0.00  0.00    +0.000 HD
BRANCH  20  23
ATOM     23  C   UNL     1      45.035   5.213  11.607  0.00  0.00    +0.000 A 
ATOM     24  C   UNL     1      44.337   4.578  12.625  0.00  0.00    +0.000 A 
ATOM     25  S   UNL     1      43.603   3.116  12.145  0.00  0.00    +0.000 S 
ATOM     26  C   UNL     1      44.238   3.250  10.573  0.00  0.00    +0.000 A 
ATOM     27  N   UNL     1      44.003   2.289   9.639  0.00  0.00    +0.000 NA
ATOM     28  C   UNL     1      44.575   2.500   8.502  0.00  0.00    +0.000 A 
ATOM     29  N   UNL     1      45.357   3.588   8.211  0.00  0.00    +0.000 N 
ATOM     30  C   UNL     1      45.594   4.601   9.110  0.00  0.00    +0.000 A 
ATOM     31  O   UNL     1      46.262   5.583   8.804  0.00  0.00    +0.000 OA
ATOM     32  C   UNL     1      44.985   4.405  10.412  0.00  0.00    +0.000 A 
ATOM     33  H   UNL     1      45.771   3.697   7.297  0.00  0.00    +0.000 HD
ENDBRANCH  20  23
ENDBRANCH  18  19
ENDBRANCH   4  18
TORSDOF 6
ENDMDL
MODEL 6
REMARK VINA RESULT:    -7.015      3.846      6.786
REMARK INTER + INTRA:         -10.619
REMARK INTER:                  -9.652
REMARK INTRA:                  -0.967
REMARK UNBOUND:                -1.143
REMARK  Name = 
REMARK  6 active torsions:
REMARK  status: ('A' for Active; 'I' for Inactive)
REMARK    1  A    between atoms: C_2  and  C_25
REMARK    2  A    between atoms: N_3  and  C_4
REMARK    3  A    between atoms: C_4  and  C_5
REMARK    4  A    between atoms: C_8  and  C_9
REMARK    5  A    between atoms: C_9  and  N_10
REMARK    6  A    between atoms: C_11  and  C_13
REMARK                            x       y       z     vdW  Elec       q    Type
REMARK                         _______ _______ _______ _____ _____    ______ ____
ROOT
ATOM      1  C   UNL     1      44.878   9.171  11.893  0.00  0.00    +0.000 A 
ATOM      2  C   UNL     1      44.288   7.985  11.434  0.00  0.00    +0.000 A 
ATOM      3  C   UNL     1      44.802   6.739  11.812  0.00  0.00    +0.000 A 
ATOM      4  C   UNL     1      45.902   6.653  12.677  0.00  0.00    +0.000 A 
ATOM      5  C   UNL     1      46.483   7.839  13.143  0.00  0.00    +0.000 A 
ATOM      6  C   UNL     1      45.971   9.085  12.765  0.00  0.00    +0.000 A 
ENDROOT
BRANCH   1   7
ATOM      7  C   UNL     1      44.362  10.512  11.436  0.00  0.00    +0.000 C 
BRANCH   7  10
ATOM      8  O   UNL     1      42.016  10.465   9.956  0.00  0.00    +0.000 OA
ATOM      9  C   UNL     1      41.949  10.747  11.147  0.00  0.00    +0.000 C 
ATOM     10  N   UNL     1      43.055  10.818  11.972  0.00  0.00    +0.000 N 
ATOM     11  H   UNL     1      42.936  10.831  12.976  0.00  0.00    +0.000 HD
BRANCH   9  12
ATOM     12  C   UNL     1      40.628  11.001  11.782  0.00  0.00    +0.000 A 
ATOM     13  C   UNL     1      40.550  11.949  12.812  0.00  0.00    +0.000 A 
ATOM     14  C   UNL     1      39.331  12.201  13.443  0.00  0.00    +0.000 A 
ATOM     15  C   UNL     1      38.191  11.498  13.058  0.00  0.00    +0.000 A 
ATOM     16  C   UNL     1      38.266  10.538  12.050  0.00  0.00    +0.000 A 
ATOM     17  C   UNL     1      39.483  10.286  11.412  0.00  0.00    +0.000 A 
ENDBRANCH   9  12
ENDBRANCH   7  10
ENDBRANCH   1   7
BRANCH   4  18
ATOM     18  C   UNL     1      46.479   5.314  13.064  0.00  0.00    +0.000 C 
BRANCH  18  19
ATOM     19  N   UNL     1      47.005   5.331  14.406  0.00  0.00    +0.000 N 
ATOM     20  C   UNL     1      47.406   4.172  15.023  0.00  0.00    +0.000 C 
ATOM     21  O   UNL     1      47.369   3.087  14.447  0.00  0.00    +0.000 OA
ATOM     22  H   UNL     1      46.833   6.162  14.964  0.00  0.00    +0.000 HD
BRANCH  20  23
ATOM     23  C   UNL     1      47.943   4.295  16.385  0.00  0.00    +0.000 A 
ATOM     24  C   UNL     1      47.491   3.437  17.379  0.00  0.00    +0.000 A 
ATOM     25  S   UNL     1      48.252   3.672  18.886  0.00  0.00    +0.000 S 
ATOM     26  C   UNL     1      49.174   4.967  18.279  0.00  0.00    +0.000 A 
ATOM     27  N   UNL     1      50.036   5.648  19.082  0.00  0.00    +0.000 NA
ATOM     28  C   UNL     1      50.642   6.629  18.503  0.00  0.00    +0.000 A 
ATOM     29  N   UNL     1      50.468   6.988  17.191  0.00  0.00    +0.000 N 
ATOM     30  C   UNL     1      49.635   6.309  16.333  0.00  0.00    +0.000 A 
ATOM     31  O   UNL     1      49.536   6.628  15.153  0.00  0.00    +0.000 OA
ATOM     32  C   UNL     1      48.917   5.204  16.940  0.00  0.00    +0.000 A 
ATOM     33  H   UNL     1      50.979   7.763  16.795  0.00  0.00    +0.000 HD
ENDBRANCH  20  23
ENDBRANCH  18  19
ENDBRANCH   4  18
TORSDOF 6
ENDMDL
MODEL 7
REMARK VINA RESULT:    -6.813      3.623      8.419
REMARK INTER + INTRA:         -10.346
REMARK INTER:                  -9.486
REMARK INTRA:                  -0.860
REMARK UNBOUND:                -1.143
REMARK  Name = 
REMARK  6 active torsions:
REMARK  status: ('A' for Active; 'I' for Inactive)
REMARK    1  A    between atoms: C_2  and  C_25
REMARK    2  A    between atoms: N_3  and  C_4
REMARK    3  A    between atoms: C_4  and  C_5
REMARK    4  A    between atoms: C_8  and  C_9
REMARK    5  A    between atoms: C_9  and  N_10
REMARK    6  A    between atoms: C_11  and  C_13
REMARK                            x       y       z     vdW  Elec       q    Type
REMARK                         _______ _______ _______ _____ _____    ______ ____
ROOT
ATOM      1  C   UNL     1      50.017   7.188  15.794  0.00  0.00    +0.000 A 
ATOM      2  C   UNL     1      48.852   6.547  15.349  0.00  0.00    +0.000 A 
ATOM      3  C   UNL     1      48.328   6.820  14.079  0.00  0.00    +0.000 A 
ATOM      4  C   UNL     1      48.971   7.722  13.221  0.00  0.00    +0.000 A 
ATOM      5  C   UNL     1      50.140   8.353  13.663  0.00  0.00    +0.000 A 
ATOM      6  C   UNL     1      50.665   8.081  14.931  0.00  0.00    +0.000 A 
ENDROOT
BRANCH   1   7
ATOM      7  C   UNL     1      50.546   6.939  17.183  0.00  0.00    +0.000 C 
BRANCH   7  10
ATOM      8  O   UNL     1      49.588   4.635  18.396  0.00  0.00    +0.000 OA
ATOM      9  C   UNL     1      50.706   4.609  17.896  0.00  0.00    +0.000 C 
ATOM     10  N   UNL     1      51.288   5.703  17.284  0.00  0.00    +0.000 N 
ATOM     11  H   UNL     1      52.102   5.580  16.698  0.00  0.00    +0.000 HD
BRANCH   9  12
ATOM     12  C   UNL     1      51.497   3.350  17.897  0.00  0.00    +0.000 A 
ATOM     13  C   UNL     1      52.815   3.385  18.374  0.00  0.00    +0.000 A 
ATOM     14  C   UNL     1      53.593   2.226  18.374  0.00  0.00    +0.000 A 
ATOM     15  C   UNL     1      53.063   1.034  17.885  0.00  0.00    +0.000 A 
ATOM     16  C   UNL     1      51.761   0.996  17.389  0.00  0.00    +0.000 A 
ATOM     17  C   UNL     1      50.976   2.153  17.391  0.00  0.00    +0.000 A 
ENDBRANCH   9  12
ENDBRANCH   7  10
ENDBRANCH   1   7
BRANCH   4  18
ATOM     18  C   UNL     1      48.395   8.043  11.864  0.00  0.00    +0.000 C 
BRANCH  18  19
ATOM     19  N   UNL     1      47.663   6.926  11.319  0.00  0.00    +0.000 N 
ATOM     20  C   UNL     1      46.292   6.885  11.374  0.00  0.00    +0.000 C 
ATOM     21  O   UNL     1      45.636   7.809  11.850  0.00  0.00    +0.000 OA
ATOM     22  H   UNL     1      48.183   6.073  11.136  0.00  0.00    +0.000 HD
BRANCH  20  23
ATOM     23  C   UNL     1      45.638   5.713  10.778  0.00  0.00    +0.000 A 
ATOM     24  C   UNL     1      45.739   5.494   9.410  0.00  0.00    +0.000 A 
ATOM     25  S   UNL     1      44.975   4.063   8.886  0.00  0.00    +0.000 S 
ATOM     26  C   UNL     1      44.431   3.713  10.460  0.00  0.00    +0.000 A 
ATOM     27  N   UNL     1      43.674   2.610  10.708  0.00  0.00    +0.000 NA
ATOM     28  C   UNL     1      43.300   2.487  11.937  0.00  0.00    +0.000 A 
ATOM     29  N   UNL     1      43.618   3.364  12.941  0.00  0.00    +0.000 N 
ATOM     30  C   UNL     1      44.407   4.472  12.745  0.00  0.00    +0.000 A 
ATOM     31  O   UNL     1      44.711   5.213  13.674  0.00  0.00    +0.000 OA
ATOM     32  C   UNL     1      44.843   4.666  11.375  0.00  0.00    +0.000 A 
ATOM     33  H   UNL     1      43.299   3.206  13.886  0.00  0.00    +0.000 HD
ENDBRANCH  20  23
ENDBRANCH  18  19
ENDBRANCH   4  18
TORSDOF 6
ENDMDL
MODEL 8
REMARK VINA RESULT:    -6.483      4.073      6.847
REMARK INTER + INTRA:          -9.900
REMARK INTER:                  -8.959
REMARK INTRA:                  -0.941
REMARK UNBOUND:                -1.143
REMARK  Name = 
REMARK  6 active torsions:
REMARK  status: ('A' for Active; 'I' for Inactive)
REMARK    1  A    between atoms: C_2  and  C_25
REMARK    2  A    between atoms: N_3  and  C_4
REMARK    3  A    between atoms: C_4  and  C_5
REMARK    4  A    between atoms: C_8  and  C_9
REMARK    5  A    between atoms: C_9  and  N_10
REMARK    6  A    between atoms: C_11  and  C_13
REMARK                            x       y       z     vdW  Elec       q    Type
REMARK                         _______ _______ _______ _____ _____    ______ ____
ROOT
ATOM      1  C   UNL     1      44.395   9.407  11.587  0.00  0.00    +0.000 A 
ATOM      2  C   UNL     1      43.935   8.180  11.089  0.00  0.00    +0.000 A 
ATOM      3  C   UNL     1      44.514   6.977  11.511  0.00  0.00    +0.000 A 
ATOM      4  C   UNL     1      45.549   6.976  12.456  0.00  0.00    +0.000 A 
ATOM      5  C   UNL     1      46.000   8.202  12.960  0.00  0.00    +0.000 A 
ATOM      6  C   UNL     1      45.422   9.405  12.539  0.00  0.00    +0.000 A 
ENDROOT
BRANCH   1   7
ATOM      7  C   UNL     1      43.812  10.705  11.087  0.00  0.00    +0.000 C 
BRANCH   7  10
ATOM      8  O   UNL     1      41.207  10.643  10.132  0.00  0.00    +0.000 OA
ATOM      9  C   UNL     1      41.400  11.036  11.277  0.00  0.00    +0.000 C 
ATOM     10  N   UNL     1      42.657  11.126  11.845  0.00  0.00    +0.000 N 
ATOM     11  H   UNL     1      42.751  11.238  12.846  0.00  0.00    +0.000 HD
BRANCH   9  12
ATOM     12  C   UNL     1      40.251  11.415  12.141  0.00  0.00    +0.000 A 
ATOM     13  C   UNL     1      40.502  12.156  13.305  0.00  0.00    +0.000 A 
ATOM     14  C   UNL     1      39.449  12.515  14.149  0.00  0.00    +0.000 A 
ATOM     15  C   UNL     1      38.148  12.124  13.841  0.00  0.00    +0.000 A 
ATOM     16  C   UNL     1      37.894  11.369  12.696  0.00  0.00    +0.000 A 
ATOM     17  C   UNL     1      38.943  11.012  11.846  0.00  0.00    +0.000 A 
ENDBRANCH   9  12
ENDBRANCH   7  10
ENDBRANCH   1   7
BRANCH   4  18
ATOM     18  C   UNL     1      46.197   5.685  12.891  0.00  0.00    +0.000 C 
BRANCH  18  19
ATOM     19  N   UNL     1      46.739   5.786  14.224  0.00  0.00    +0.000 N 
ATOM     20  C   UNL     1      48.079   6.001  14.428  0.00  0.00    +0.000 C 
ATOM     21  O   UNL     1      48.859   6.153  13.491  0.00  0.00    +0.000 OA
ATOM     22  H   UNL     1      46.164   5.443  14.988  0.00  0.00    +0.000 HD
BRANCH  20  23
ATOM     23  C   UNL     1      48.531   6.104  15.822  0.00  0.00    +0.000 A 
ATOM     24  C   UNL     1      49.221   7.236  16.235  0.00  0.00    +0.000 A 
ATOM     25  S   UNL     1      49.625   7.228  17.892  0.00  0.00    +0.000 S 
ATOM     26  C   UNL     1      48.941   5.684  18.105  0.00  0.00    +0.000 A 
ATOM     27  N   UNL     1      48.974   5.067  19.317  0.00  0.00    +0.000 NA
ATOM     28  C   UNL     1      48.452   3.886  19.328  0.00  0.00    +0.000 A 
ATOM     29  N   UNL     1      47.897   3.269  18.237  0.00  0.00    +0.000 N 
ATOM     30  C   UNL     1      47.810   3.866  17.002  0.00  0.00    +0.000 A 
ATOM     31  O   UNL     1      47.266   3.304  16.057  0.00  0.00    +0.000 OA
ATOM     32  C   UNL     1      48.396   5.191  16.932  0.00  0.00    +0.000 A 
ATOM     33  H   UNL     1      47.498   2.344  18.314  0.00  0.00    +0.000 HD
ENDBRANCH  20  23
ENDBRANCH  18  19
ENDBRANCH   4  18
TORSDOF 6
ENDMDL
MODEL 9
REMARK VINA RESULT:    -6.349      5.295      7.779
REMARK INTER + INTRA:          -9.718
REMARK INTER:                  -8.769
REMARK INTRA:                  -0.949
REMARK UNBOUND:                -1.143
REMARK  Name = 
REMARK  6 active torsions:
REMARK  status: ('A' for Active; 'I' for Inactive)
REMARK    1  A    between atoms: C_2  and  C_25
REMARK    2  A    between atoms: N_3  and  C_4
REMARK    3  A    between atoms: C_4  and  C_5
REMARK    4  A    between atoms: C_8  and  C_9
REMARK    5  A    between atoms: C_9  and  N_10
REMARK    6  A    between atoms: C_11  and  C_13
REMARK                            x       y       z     vdW  Elec       q    Type
REMARK                         _______ _______ _______ _____ _____    ______ ____
ROOT
ATOM      1  C   UNL     1      51.064   8.773  11.167  0.00  0.00    +0.000 A 
ATOM      2  C   UNL     1      50.506   7.522  11.464  0.00  0.00    +0.000 A 
ATOM      3  C   UNL     1      49.155   7.408  11.815  0.00  0.00    +0.000 A 
ATOM      4  C   UNL     1      48.330   8.540  11.853  0.00  0.00    +0.000 A 
ATOM      5  C   UNL     1      48.887   9.788  11.546  0.00  0.00    +0.000 A 
ATOM      6  C   UNL     1      50.237   9.903  11.196  0.00  0.00    +0.000 A 
ENDROOT
BRANCH   1   7
ATOM      7  C   UNL     1      52.532   8.902  10.849  0.00  0.00    +0.000 C 
BRANCH   7  10
ATOM      8  O   UNL     1      53.027   6.819   9.084  0.00  0.00    +0.000 OA
ATOM      9  C   UNL     1      53.002   7.962   8.644  0.00  0.00    +0.000 C 
ATOM     10  N   UNL     1      52.784   9.074   9.436  0.00  0.00    +0.000 N 
ATOM     11  H   UNL     1      52.551   9.960   9.009  0.00  0.00    +0.000 HD
BRANCH   9  12
ATOM     12  C   UNL     1      53.178   8.208   7.188  0.00  0.00    +0.000 A 
ATOM     13  C   UNL     1      52.468   9.261   6.595  0.00  0.00    +0.000 A 
ATOM     14  C   UNL     1      52.595   9.510   5.227  0.00  0.00    +0.000 A 
ATOM     15  C   UNL     1      53.421   8.702   4.447  0.00  0.00    +0.000 A 
ATOM     16  C   UNL     1      54.114   7.641   5.028  0.00  0.00    +0.000 A 
ATOM     17  C   UNL     1      53.993   7.390   6.397  0.00  0.00    +0.000 A 
ENDBRANCH   9  12
ENDBRANCH   7  10
ENDBRANCH   1   7
BRANCH   4  18
ATOM     18  C   UNL     1      46.882   8.429  12.260  0.00  0.00    +0.000 C 
BRANCH  18  19
ATOM     19  N   UNL     1      46.387   7.084  12.099  0.00  0.00    +0.000 N 
ATOM     20  C   UNL     1      45.110   6.849  11.655  0.00  0.00    +0.000 C 
ATOM     21  O   UNL     1      44.355   7.767  11.343  0.00  0.00    +0.000 OA
ATOM     22  H   UNL     1      46.903   6.339  12.559  0.00  0.00    +0.000 HD
BRANCH  20  23
ATOM     23  C   UNL     1      44.704   5.445  11.509  0.00  0.00    +0.000 A 
ATOM     24  C   UNL     1      44.012   4.821  12.538  0.00  0.00    +0.000 A 
ATOM     25  S   UNL     1      43.566   3.213  12.190  0.00  0.00    +0.000 S 
ATOM     26  C   UNL     1      44.332   3.272  10.672  0.00  0.00    +0.000 A 
ATOM     27  N   UNL     1      44.346   2.186   9.854  0.00  0.00    +0.000 NA
ATOM     28  C   UNL     1      44.994   2.359   8.750  0.00  0.00    +0.000 A 
ATOM     29  N   UNL     1      45.624   3.521   8.389  0.00  0.00    +0.000 N 
ATOM     30  C   UNL     1      45.608   4.655   9.167  0.00  0.00    +0.000 A 
ATOM     31  O   UNL     1      46.144   5.693   8.795  0.00  0.00    +0.000 OA
ATOM     32  C   UNL     1      44.905   4.509  10.428  0.00  0.00    +0.000 A 
ATOM     33  H   UNL     1      46.109   3.594   7.507  0.00  0.00    +0.000 HD
ENDBRANCH  20  23
ENDBRANCH  18  19
ENDBRANCH   4  18
TORSDOF 6
ENDMDL
