MODEL 1
REMARK VINA RESULT:    -7.687      0.000      0.000
REMARK INTER + INTRA:         -10.369
REMARK INTER:                  -9.485
REMARK INTRA:                  -0.884
REMARK UNBOUND:                -0.884
REMARK  Name = 
REMARK  4 active torsions:
REMARK  status: ('A' for Active; 'I' for Inactive)
REMARK    1  A    between atoms: C_4  and  C_5
REMARK    2  A    between atoms: C_9  and  C_10
REMARK    3  A    between atoms: C_10  and  C_11
REMARK    4  A    between atoms: C_11  and  C_12
REMARK                            x       y       z     vdW  Elec       q    Type
REMARK                         _______ _______ _______ _____ _____    ______ ____
ROOT
ATOM      1  C   UNL     1      45.056   3.126   9.711  0.00  0.00    +0.000 A 
ATOM      2  C   UNL     1      43.977   2.449  10.263  0.00  0.00    +0.000 A 
ATOM      3  C   UNL     1      43.376   2.962  11.405  0.00  0.00    +0.000 A 
ATOM      4  C   UNL     1      43.864   4.142  11.959  0.00  0.00    +0.000 A 
ATOM      5  C   UNL     1      44.961   4.775  11.378  0.00  0.00    +0.000 A 
ATOM      6  N   UNL     1      45.551   4.254  10.275  0.00  0.00    +0.000 NA
ENDROOT
BRANCH   1  10
ATOM      7  C   UNL     1      47.117   1.957   6.122  0.00  0.00    +0.000 A 
ATOM      8  C   UNL     1      46.646   3.261   6.259  0.00  0.00    +0.000 A 
ATOM      9  C   UNL     1      45.958   3.642   7.412  0.00  0.00    +0.000 A 
ATOM     10  C   UNL     1      45.724   2.728   8.456  0.00  0.00    +0.000 A 
ATOM     11  C   UNL     1      46.213   1.417   8.290  0.00  0.00    +0.000 A 
ATOM     12  C   UNL     1      46.901   1.033   7.139  0.00  0.00    +0.000 A 
ENDBRANCH   1  10
BRANCH   5  13
ATOM     13  C   UNL     1      45.508   6.104  11.901  0.00  0.00    +0.000 C 
ATOM     14  C   UNL     1      44.549   6.912  12.773  0.00  0.00    +0.000 C 
ATOM     15  C   UNL     1      44.883   7.405  11.400  0.00  0.00    +0.000 C 
BRANCH  13  16
ATOM     16  C   UNL     1      46.988   6.136  12.254  0.00  0.00    +0.000 C 
BRANCH  16  17
ATOM     17  C   UNL     1      47.318   5.742  13.674  0.00  0.00    +0.000 A 
ATOM     18  C   UNL     1      46.822   4.597  14.305  0.00  0.00    +0.000 A 
ATOM     19  C   UNL     1      47.234   4.277  15.596  0.00  0.00    +0.000 A 
ATOM     20  C   UNL     1      48.149   5.107  16.220  0.00  0.00    +0.000 A 
ATOM     21  N   UNL     1      48.664   6.214  15.648  0.00  0.00    +0.000 NA
ATOM     22  C   UNL     1      48.241   6.499  14.395  0.00  0.00    +0.000 A 
ENDBRANCH  16  17
ENDBRANCH  13  16
ENDBRANCH   5  13
TORSDOF 4
ENDMDL
MODEL 2
REMARK VINA RESULT:    -7.382      2.050      6.335
REMARK INTER + INTRA:          -9.992
REMARK INTER:                  -9.348
REMARK INTRA:                  -0.644
REMARK UNBOUND:                -0.884
REMARK  Name = 
REMARK  4 active torsions:
REMARK  status: ('A' for Active; 'I' for Inactive)
REMARK    1  A    between atoms: C_4  and  C_5
REMARK    2  A    between atoms: C_9  and  C_10
REMARK    3  A    between atoms: C_10  and  C_11
REMARK    4  A    between atoms: C_11  and  C_12
REMARK                            x       y       z     vdW  Elec       q    Type
REMARK                         _______ _______ _______ _____ _____    ______ ____
ROOT
ATOM      1  C   UNL     1      46.912   6.320  12.597  0.00  0.00    +0.000 A 
ATOM      2  C   UNL     1      47.533   5.413  13.445  0.00  0.00    +0.000 A 
ATOM      3  C   UNL     1      46.933   4.181  13.667  0.00  0.00    +0.000 A 
ATOM      4  C   UNL     1      45.733   3.884  13.026  0.00  0.00    +0.000 A 
ATOM      5  C   UNL     1      45.140   4.834  12.198  0.00  0.00    +0.000 A 
ATOM      6  N   UNL     1      45.726   6.041  12.006  0.00  0.00    +0.000 NA
ENDROOT
BRANCH   1  10
ATOM      7  C   UNL     1      48.673  10.116  11.607  0.00  0.00    +0.000 A 
ATOM      8  C   UNL     1      47.339  10.052  12.002  0.00  0.00    +0.000 A 
ATOM      9  C   UNL     1      46.754   8.821  12.305  0.00  0.00    +0.000 A 
ATOM     10  C   UNL     1      47.491   7.624  12.219  0.00  0.00    +0.000 A 
ATOM     11  C   UNL     1      48.837   7.720  11.818  0.00  0.00    +0.000 A 
ATOM     12  C   UNL     1      49.424   8.949  11.515  0.00  0.00    +0.000 A 
ENDBRANCH   1  10
BRANCH   5  13
ATOM     13  C   UNL     1      43.854   4.550  11.419  0.00  0.00    +0.000 C 
ATOM     14  C   UNL     1      43.145   5.777  10.851  0.00  0.00    +0.000 C 
ATOM     15  C   UNL     1      42.525   5.036  11.993  0.00  0.00    +0.000 C 
BRANCH  13  16
ATOM     16  C   UNL     1      43.829   3.270  10.596  0.00  0.00    +0.000 C 
BRANCH  16  17
ATOM     17  C   UNL     1      44.838   3.207   9.475  0.00  0.00    +0.000 A 
ATOM     18  C   UNL     1      45.420   2.024   9.008  0.00  0.00    +0.000 A 
ATOM     19  C   UNL     1      46.291   2.055   7.922  0.00  0.00    +0.000 A 
ATOM     20  C   UNL     1      46.549   3.274   7.319  0.00  0.00    +0.000 A 
ATOM     21  N   UNL     1      46.004   4.438   7.725  0.00  0.00    +0.000 NA
ATOM     22  C   UNL     1      45.163   4.375   8.784  0.00  0.00    +0.000 A 
ENDBRANCH  16  17
ENDBRANCH  13  16
ENDBRANCH   5  13
TORSDOF 4
ENDMDL
MODEL 3
REMARK VINA RESULT:    -7.379      1.275      1.771
REMARK INTER + INTRA:          -9.988
REMARK INTER:                  -9.207
REMARK INTRA:                  -0.782
REMARK UNBOUND:                -0.884
REMARK  Name = 
REMARK  4 active torsions:
REMARK  status: ('A' for Active; 'I' for Inactive)
REMARK    1  A    between atoms: C_4  and  C_5
REMARK    2  A    between atoms: C_9  and  C_10
REMARK    3  A    between atoms: C_10  and  C_11
REMARK    4  A    between atoms: C_11  and  C_12
REMARK                            x       y       z     vdW  Elec       q    Type
REMARK                         _______ _______ _______ _____ _____    ______ ____
ROOT
ATOM      1  C   UNL     1      44.826   4.654  10.123  0.00  0.00    +0.000 A 
ATOM      2  C   UNL     1      43.473   4.700  10.427  0.00  0.00    +0.000 A 
ATOM      3  C   UNL     1      43.027   5.615  11.373  0.00  0.00    +0.000 A 
ATOM      4  C   UNL     1      43.946   6.465  11.981  0.00  0.00    +0.000 A 
ATOM      5  C   UNL     1      45.297   6.368  11.656  0.00  0.00    +0.000 A 
ATOM      6  N   UNL     1      45.721   5.458  10.746  0.00  0.00    +0.000 NA
ENDROOT
BRANCH   1  10
ATOM      7  C   UNL     1      46.615   2.091   7.170  0.00  0.00    +0.000 A 
ATOM      8  C   UNL     1      46.674   3.473   7.016  0.00  0.00    +0.000 A 
ATOM      9  C   UNL     1      46.077   4.312   7.959  0.00  0.00    +0.000 A 
ATOM     10  C   UNL     1      45.407   3.786   9.080  0.00  0.00    +0.000 A 
ATOM     11  C   UNL     1      45.365   2.384   9.210  0.00  0.00    +0.000 A 
ATOM     12  C   UNL     1      45.960   1.544   8.269  0.00  0.00    +0.000 A 
ENDBRANCH   1  10
BRANCH   5  13
ATOM     13  C   UNL     1      46.348   7.311  12.243  0.00  0.00    +0.000 C 
ATOM     14  C   UNL     1      45.810   8.406  13.162  0.00  0.00    +0.000 C 
ATOM     15  C   UNL     1      46.342   8.777  11.815  0.00  0.00    +0.000 C 
BRANCH  13  16
ATOM     16  C   UNL     1      47.697   6.694  12.587  0.00  0.00    +0.000 C 
BRANCH  16  17
ATOM     17  C   UNL     1      47.746   5.951  13.900  0.00  0.00    +0.000 A 
ATOM     18  C   UNL     1      48.446   6.395  15.027  0.00  0.00    +0.000 A 
ATOM     19  C   UNL     1      48.380   5.678  16.219  0.00  0.00    +0.000 A 
ATOM     20  C   UNL     1      47.599   4.536  16.257  0.00  0.00    +0.000 A 
ATOM     21  N   UNL     1      46.897   4.075  15.202  0.00  0.00    +0.000 NA
ATOM     22  C   UNL     1      46.985   4.793  14.058  0.00  0.00    +0.000 A 
ENDBRANCH  16  17
ENDBRANCH  13  16
ENDBRANCH   5  13
TORSDOF 4
ENDMDL
MODEL 4
REMARK VINA RESULT:    -7.223      2.345      4.086
REMARK INTER + INTRA:          -9.796
REMARK INTER:                  -8.857
REMARK INTRA:                  -0.940
REMARK UNBOUND:                -0.884
REMARK  Name = 
REMARK  4 active torsions:
REMARK  status: ('A' for Active; 'I' for Inactive)
REMARK    1  A    between atoms: C_4  and  C_5
REMARK    2  A    between atoms: C_9  and  C_10
REMARK    3  A    between atoms: C_10  and  C_11
REMARK    4  A    between atoms: C_11  and  C_12
REMARK                            x       y       z     vdW  Elec       q    Type
REMARK                         _______ _______ _______ _____ _____    ______ ____
ROOT
ATOM      1  C   UNL     1      44.816   4.292  10.252  0.00  0.00    +0.000 A 
ATOM      2  C   UNL     1      43.504   4.108  10.666  0.00  0.00    +0.000 A 
ATOM      3  C   UNL     1      43.011   4.891  11.702  0.00  0.00    +0.000 A 
ATOM      4  C   UNL     1      43.839   5.843  12.287  0.00  0.00    +0.000 A 
ATOM      5  C   UNL     1      45.154   5.979  11.848  0.00  0.00    +0.000 A 
ATOM      6  N   UNL     1      45.629   5.195  10.850  0.00  0.00    +0.000 NA
ENDROOT
BRANCH   1  10
ATOM      7  C   UNL     1      46.697   2.186   7.008  0.00  0.00    +0.000 A 
ATOM      8  C   UNL     1      46.643   3.578   6.993  0.00  0.00    +0.000 A 
ATOM      9  C   UNL     1      46.015   4.268   8.032  0.00  0.00    +0.000 A 
ATOM     10  C   UNL     1      45.426   3.581   9.111  0.00  0.00    +0.000 A 
ATOM     11  C   UNL     1      45.496   2.175   9.099  0.00  0.00    +0.000 A 
ATOM     12  C   UNL     1      46.123   1.483   8.062  0.00  0.00    +0.000 A 
ENDBRANCH   1  10
BRANCH   5  13
ATOM     13  C   UNL     1      46.097   7.045  12.408  0.00  0.00    +0.000 C 
ATOM     14  C   UNL     1      47.452   7.156  11.711  0.00  0.00    +0.000 C 
ATOM     15  C   UNL     1      47.385   6.598  13.097  0.00  0.00    +0.000 C 
BRANCH  13  16
ATOM     16  C   UNL     1      45.450   8.327  12.910  0.00  0.00    +0.000 C 
BRANCH  16  17
ATOM     17  C   UNL     1      45.168   9.363  11.848  0.00  0.00    +0.000 A 
ATOM     18  C   UNL     1      44.075   9.314  10.977  0.00  0.00    +0.000 A 
ATOM     19  C   UNL     1      43.856  10.350  10.072  0.00  0.00    +0.000 A 
ATOM     20  C   UNL     1      44.734  11.421  10.073  0.00  0.00    +0.000 A 
ATOM     21  N   UNL     1      45.793  11.518  10.901  0.00  0.00    +0.000 NA
ATOM     22  C   UNL     1      45.979  10.494  11.766  0.00  0.00    +0.000 A 
ENDBRANCH  16  17
ENDBRANCH  13  16
ENDBRANCH   5  13
TORSDOF 4
ENDMDL
MODEL 5
REMARK VINA RESULT:    -7.119      1.527      6.999
REMARK INTER + INTRA:          -9.667
REMARK INTER:                  -9.481
REMARK INTRA:                  -0.187
REMARK UNBOUND:                -0.884
REMARK  Name = 
REMARK  4 active torsions:
REMARK  status: ('A' for Active; 'I' for Inactive)
REMARK    1  A    between atoms: C_4  and  C_5
REMARK    2  A    between atoms: C_9  and  C_10
REMARK    3  A    between atoms: C_10  and  C_11
REMARK    4  A    between atoms: C_11  and  C_12
REMARK                            x       y       z     vdW  Elec       q    Type
REMARK                         _______ _______ _______ _____ _____    ______ ____
ROOT
ATOM      1  C   UNL     1      47.115   5.465  13.672  0.00  0.00    +0.000 A 
ATOM      2  C   UNL     1      47.748   6.454  12.932  0.00  0.00    +0.000 A 
ATOM      3  C   UNL     1      47.201   6.835  11.713  0.00  0.00    +0.000 A 
ATOM      4  C   UNL     1      46.030   6.224  11.273  0.00  0.00    +0.000 A 
ATOM      5  C   UNL     1      45.442   5.224  12.044  0.00  0.00    +0.000 A 
ATOM      6  N   UNL     1      45.997   4.847  13.221  0.00  0.00    +0.000 NA
ENDROOT
BRANCH   1  10
ATOM      7  C   UNL     1      48.513   4.198  17.536  0.00  0.00    +0.000 A 
ATOM      8  C   UNL     1      47.705   3.354  16.780  0.00  0.00    +0.000 A 
ATOM      9  C   UNL     1      47.229   3.766  15.533  0.00  0.00    +0.000 A 
ATOM     10  C   UNL     1      47.552   5.034  15.014  0.00  0.00    +0.000 A 
ATOM     11  C   UNL     1      48.372   5.866  15.801  0.00  0.00    +0.000 A 
ATOM     12  C   UNL     1      48.848   5.456  17.047  0.00  0.00    +0.000 A 
ENDBRANCH   1  10
BRANCH   5  13
ATOM     13  C   UNL     1      44.125   4.555  11.646  0.00  0.00    +0.000 C 
ATOM     14  C   UNL     1      42.983   4.704  12.649  0.00  0.00    +0.000 C 
ATOM     15  C   UNL     1      43.627   3.367  12.468  0.00  0.00    +0.000 C 
BRANCH  13  16
ATOM     16  C   UNL     1      43.776   4.569  10.165  0.00  0.00    +0.000 C 
BRANCH  16  17
ATOM     17  C   UNL     1      44.681   3.742   9.284  0.00  0.00    +0.000 A 
ATOM     18  C   UNL     1      45.544   4.277   8.323  0.00  0.00    +0.000 A 
ATOM     19  C   UNL     1      46.393   3.441   7.602  0.00  0.00    +0.000 A 
ATOM     20  C   UNL     1      46.367   2.084   7.874  0.00  0.00    +0.000 A 
ATOM     21  N   UNL     1      45.563   1.523   8.800  0.00  0.00    +0.000 NA
ATOM     22  C   UNL     1      44.748   2.362   9.480  0.00  0.00    +0.000 A 
ENDBRANCH  16  17
ENDBRANCH  13  16
ENDBRANCH   5  13
TORSDOF 4
ENDMDL
MODEL 6
REMARK VINA RESULT:    -6.992      1.505      7.032
REMARK INTER + INTRA:          -9.511
REMARK INTER:                  -9.289
REMARK INTRA:                  -0.222
REMARK UNBOUND:                -0.884
REMARK  Name = 
REMARK  4 active torsions:
REMARK  status: ('A' for Active; 'I' for Inactive)
REMARK    1  A    between atoms: C_4  and  C_5
REMARK    2  A    between atoms: C_9  and  C_10
REMARK    3  A    between atoms: C_10  and  C_11
REMARK    4  A    between atoms: C_11  and  C_12
REMARK                            x       y       z     vdW  Elec       q    Type
REMARK                         _______ _______ _______ _____ _____    ______ ____
ROOT
ATOM      1  C   UNL     1      47.229   5.442  13.930  0.00  0.00    +0.000 A 
ATOM      2  C   UNL     1      47.862   6.458  13.228  0.00  0.00    +0.000 A 
ATOM      3  C   UNL     1      47.357   6.835  11.990  0.00  0.00    +0.000 A 
ATOM      4  C   UNL     1      46.227   6.191  11.493  0.00  0.00    +0.000 A 
ATOM      5  C   UNL     1      45.637   5.165  12.228  0.00  0.00    +0.000 A 
ATOM      6  N   UNL     1      46.152   4.794  13.426  0.00  0.00    +0.000 NA
ENDROOT
BRANCH   1  10
ATOM      7  C   UNL     1      48.243   4.210  17.924  0.00  0.00    +0.000 A 
ATOM      8  C   UNL     1      48.750   5.403  17.416  0.00  0.00    +0.000 A 
ATOM      9  C   UNL     1      48.442   5.800  16.113  0.00  0.00    +0.000 A 
ATOM     10  C   UNL     1      47.620   5.011  15.287  0.00  0.00    +0.000 A 
ATOM     11  C   UNL     1      47.122   3.809  15.828  0.00  0.00    +0.000 A 
ATOM     12  C   UNL     1      47.428   3.411  17.129  0.00  0.00    +0.000 A 
ENDBRANCH   1  10
BRANCH   5  13
ATOM     13  C   UNL     1      44.361   4.460  11.767  0.00  0.00    +0.000 C 
ATOM     14  C   UNL     1      43.210   4.459  12.772  0.00  0.00    +0.000 C 
ATOM     15  C   UNL     1      43.930   3.180  12.481  0.00  0.00    +0.000 C 
BRANCH  13  16
ATOM     16  C   UNL     1      44.014   4.581  10.290  0.00  0.00    +0.000 C 
BRANCH  16  17
ATOM     17  C   UNL     1      44.932   3.835   9.352  0.00  0.00    +0.000 A 
ATOM     18  C   UNL     1      45.074   2.444   9.335  0.00  0.00    +0.000 A 
ATOM     19  C   UNL     1      45.894   1.837   8.388  0.00  0.00    +0.000 A 
ATOM     20  C   UNL     1      46.545   2.640   7.468  0.00  0.00    +0.000 A 
ATOM     21  N   UNL     1      46.430   3.984   7.437  0.00  0.00    +0.000 NA
ATOM     22  C   UNL     1      45.628   4.543   8.372  0.00  0.00    +0.000 A 
ENDBRANCH  16  17
ENDBRANCH  13  16
ENDBRANCH   5  13
TORSDOF 4
ENDMDL
MODEL 7
REMARK VINA RESULT:    -6.692      2.287      6.965
REMARK INTER + INTRA:          -9.141
REMARK INTER:                  -8.742
REMARK INTRA:                  -0.400
REMARK UNBOUND:                -0.884
REMARK  Name = 
REMARK  4 active torsions:
REMARK  status: ('A' for Active; 'I' for Inactive)
REMARK    1  A    between atoms: C_4  and  C_5
REMARK    2  A    between atoms: C_9  and  C_10
REMARK    3  A    between atoms: C_10  and  C_11
REMARK    4  A    between atoms: C_11  and  C_12
REMARK                            x       y       z     vdW  Elec       q    Type
REMARK                         _______ _______ _______ _____ _____    ______ ____
ROOT
ATOM      1  C   UNL     1      45.176   8.149  11.704  0.00  0.00    +0.000 A 
ATOM      2  C   UNL     1      46.488   8.196  12.155  0.00  0.00    +0.000 A 
ATOM      3  C   UNL     1      47.143   7.005  12.441  0.00  0.00    +0.000 A 
ATOM      4  C   UNL     1      46.471   5.799  12.258  0.00  0.00    +0.000 A 
ATOM      5  C   UNL     1      45.149   5.805  11.819  0.00  0.00    +0.000 A 
ATOM      6  N   UNL     1      44.515   6.975  11.563  0.00  0.00    +0.000 NA
ENDROOT
BRANCH   1  10
ATOM      7  C   UNL     1      42.904  11.637  10.626  0.00  0.00    +0.000 A 
ATOM      8  C   UNL     1      42.405  10.369  10.341  0.00  0.00    +0.000 A 
ATOM      9  C   UNL     1      43.147   9.232  10.668  0.00  0.00    +0.000 A 
ATOM     10  C   UNL     1      44.405   9.338  11.290  0.00  0.00    +0.000 A 
ATOM     11  C   UNL     1      44.883  10.633  11.567  0.00  0.00    +0.000 A 
ATOM     12  C   UNL     1      44.144  11.771  11.240  0.00  0.00    +0.000 A 
ENDBRANCH   1  10
BRANCH   5  13
ATOM     13  C   UNL     1      44.375   4.516  11.542  0.00  0.00    +0.000 C 
ATOM     14  C   UNL     1      43.453   4.048  12.666  0.00  0.00    +0.000 C 
ATOM     15  C   UNL     1      44.697   3.273  12.369  0.00  0.00    +0.000 C 
BRANCH  13  16
ATOM     16  C   UNL     1      43.915   4.296  10.107  0.00  0.00    +0.000 C 
BRANCH  16  17
ATOM     17  C   UNL     1      44.965   3.738   9.176  0.00  0.00    +0.000 A 
ATOM     18  C   UNL     1      45.196   2.373   8.982  0.00  0.00    +0.000 A 
ATOM     19  C   UNL     1      46.140   1.949   8.050  0.00  0.00    +0.000 A 
ATOM     20  C   UNL     1      46.824   2.908   7.323  0.00  0.00    +0.000 A 
ATOM     21  N   UNL     1      46.627   4.234   7.466  0.00  0.00    +0.000 NA
ATOM     22  C   UNL     1      45.705   4.613   8.381  0.00  0.00    +0.000 A 
ENDBRANCH  16  17
ENDBRANCH  13  16
ENDBRANCH   5  13
TORSDOF 4
ENDMDL
MODEL 8
REMARK VINA RESULT:    -5.887      2.788      7.395
REMARK INTER + INTRA:          -8.148
REMARK INTER:                  -7.269
REMARK INTRA:                  -0.879
REMARK UNBOUND:                -0.884
REMARK  Name = 
REMARK  4 active torsions:
REMARK  status: ('A' for Active; 'I' for Inactive)
REMARK    1  A    between atoms: C_4  and  C_5
REMARK    2  A    between atoms: C_9  and  C_10
REMARK    3  A    between atoms: C_10  and  C_11
REMARK    4  A    between atoms: C_11  and  C_12
REMARK                            x       y       z     vdW  Elec       q    Type
REMARK                         _______ _______ _______ _____ _____    ______ ____
ROOT
ATOM      1  C   UNL     1      48.821   6.667  16.246  0.00  0.00    +0.000 A 
ATOM      2  C   UNL     1      48.839   7.798  17.050  0.00  0.00    +0.000 A 
ATOM      3  C   UNL     1      48.486   9.022  16.497  0.00  0.00    +0.000 A 
ATOM      4  C   UNL     1      48.114   9.080  15.157  0.00  0.00    +0.000 A 
ATOM      5  C   UNL     1      48.127   7.919  14.386  0.00  0.00    +0.000 A 
ATOM      6  N   UNL     1      48.493   6.735  14.933  0.00  0.00    +0.000 NA
ENDROOT
BRANCH   1  10
ATOM      7  C   UNL     1      49.703   2.674  17.575  0.00  0.00    +0.000 A 
ATOM      8  C   UNL     1      48.451   2.966  17.039  0.00  0.00    +0.000 A 
ATOM      9  C   UNL     1      48.150   4.265  16.625  0.00  0.00    +0.000 A 
ATOM     10  C   UNL     1      49.094   5.302  16.738  0.00  0.00    +0.000 A 
ATOM     11  C   UNL     1      50.352   4.977  17.283  0.00  0.00    +0.000 A 
ATOM     12  C   UNL     1      50.655   3.680  17.698  0.00  0.00    +0.000 A 
ENDBRANCH   1  10
BRANCH   5  13
ATOM     13  C   UNL     1      47.674   7.903  12.925  0.00  0.00    +0.000 C 
ATOM     14  C   UNL     1      48.628   7.221  11.948  0.00  0.00    +0.000 C 
ATOM     15  C   UNL     1      48.470   8.708  11.899  0.00  0.00    +0.000 C 
BRANCH  13  16
ATOM     16  C   UNL     1      46.179   7.753  12.681  0.00  0.00    +0.000 C 
BRANCH  16  17
ATOM     17  C   UNL     1      45.718   6.350  12.366  0.00  0.00    +0.000 A 
ATOM     18  C   UNL     1      45.436   5.888  11.077  0.00  0.00    +0.000 A 
ATOM     19  C   UNL     1      45.081   4.557  10.874  0.00  0.00    +0.000 A 
ATOM     20  C   UNL     1      45.031   3.714  11.970  0.00  0.00    +0.000 A 
ATOM     21  N   UNL     1      45.306   4.110  13.230  0.00  0.00    +0.000 NA
ATOM     22  C   UNL     1      45.644   5.410  13.394  0.00  0.00    +0.000 A 
ENDBRANCH  16  17
ENDBRANCH  13  16
ENDBRANCH   5  13
TORSDOF 4
ENDMDL
MODEL 9
REMARK VINA RESULT:    -5.698      3.085      6.433
REMARK INTER + INTRA:          -7.915
REMARK INTER:                  -6.926
REMARK INTRA:                  -0.988
REMARK UNBOUND:                -0.884
REMARK  Name = 
REMARK  4 active torsions:
REMARK  status: ('A' for Active; 'I' for Inactive)
REMARK    1  A    between atoms: C_4  and  C_5
REMARK    2  A    between atoms: C_9  and  C_10
REMARK    3  A    between atoms: C_10  and  C_11
REMARK    4  A    between atoms: C_11  and  C_12
REMARK                            x       y       z     vdW  Elec       q    Type
REMARK                         _______ _______ _______ _____ _____    ______ ____
ROOT
ATOM      1  C   UNL     1      47.760   5.986  13.915  0.00  0.00    +0.000 A 
ATOM      2  C   UNL     1      48.685   6.979  13.621  0.00  0.00    +0.000 A 
ATOM      3  C   UNL     1      49.605   7.348  14.593  0.00  0.00    +0.000 A 
ATOM      4  C   UNL     1      49.582   6.709  15.829  0.00  0.00    +0.000 A 
ATOM      5  C   UNL     1      48.623   5.731  16.083  0.00  0.00    +0.000 A 
ATOM      6  N   UNL     1      47.718   5.393  15.132  0.00  0.00    +0.000 NA
ENDROOT
BRANCH   1  10
ATOM      7  C   UNL     1      44.845   4.525  11.111  0.00  0.00    +0.000 A 
ATOM      8  C   UNL     1      45.120   3.800  12.268  0.00  0.00    +0.000 A 
ATOM      9  C   UNL     1      46.080   4.257  13.172  0.00  0.00    +0.000 A 
ATOM     10  C   UNL     1      46.788   5.451  12.941  0.00  0.00    +0.000 A 
ATOM     11  C   UNL     1      46.489   6.163  11.763  0.00  0.00    +0.000 A 
ATOM     12  C   UNL     1      45.530   5.709  10.858  0.00  0.00    +0.000 A 
ENDBRANCH   1  10
BRANCH   5  13
ATOM     13  C   UNL     1      48.581   4.949  17.396  0.00  0.00    +0.000 C 
ATOM     14  C   UNL     1      49.927   4.761  18.093  0.00  0.00    +0.000 C 
ATOM     15  C   UNL     1      49.259   3.582  17.460  0.00  0.00    +0.000 C 
BRANCH  13  16
ATOM     16  C   UNL     1      47.351   5.156  18.269  0.00  0.00    +0.000 C 
BRANCH  16  17
ATOM     17  C   UNL     1      47.466   6.266  19.287  0.00  0.00    +0.000 A 
ATOM     18  C   UNL     1      47.540   7.624  18.960  0.00  0.00    +0.000 A 
ATOM     19  C   UNL     1      47.575   8.584  19.969  0.00  0.00    +0.000 A 
ATOM     20  C   UNL     1      47.522   8.159  21.284  0.00  0.00    +0.000 A 
ATOM     21  N   UNL     1      47.437   6.863  21.648  0.00  0.00    +0.000 NA
ATOM     22  C   UNL     1      47.408   5.955  20.645  0.00  0.00    +0.000 A 
ENDBRANCH  16  17
ENDBRANCH  13  16
ENDBRANCH   5  13
TORSDOF 4
ENDMDL
