MODEL 1
REMARK VINA RESULT:    -8.122      0.000      0.000
REMARK INTER + INTRA:         -11.845
REMARK INTER:                 -10.971
REMARK INTRA:                  -0.874
REMARK UNBOUND:                -0.874
REMARK  Name = 
REMARK  7 active torsions:
REMARK  status: ('A' for Active; 'I' for Inactive)
REMARK    1  A    between atoms: C_1  and  C_2
REMARK    2  A    between atoms: C_2  and  N_3
REMARK    3  A    between atoms: C_2  and  C_16
REMARK    4  A    between atoms: C_4  and  C_6
REMARK    5  A    between atoms: C_19  and  C_20
REMARK    6  A    between atoms: C_20  and  N_21
REMARK    7  A    between atoms: C_22  and  C_24
REMARK                            x       y       z     vdW  Elec       q    Type
REMARK                         _______ _______ _______ _____ _____    ______ ____
ROOT
ATOM      1  C   UNL     1      43.309   4.672  12.830  0.00  0.00    +0.000 C 
ATOM      2  C   UNL     1      44.306   5.252  11.821  0.00  0.00    +0.000 C 
ENDROOT
BRANCH   2   3
ATOM      3  C   UNL     1      45.412   6.072  12.462  0.00  0.00    +0.000 A 
ATOM      4  C   UNL     1      45.275   7.457  12.597  0.00  0.00    +0.000 A 
ATOM      5  C   UNL     1      46.258   8.206  13.250  0.00  0.00    +0.000 A 
ATOM      6  C   UNL     1      47.388   7.558  13.742  0.00  0.00    +0.000 A 
ATOM      7  N   UNL     1      47.567   6.221  13.592  0.00  0.00    +0.000 NA
ATOM      8  C   UNL     1      46.594   5.522  12.950  0.00  0.00    +0.000 A 
BRANCH   6   9
ATOM      9  C   UNL     1      48.448   8.327  14.507  0.00  0.00    +0.000 C 
BRANCH   9  10
ATOM     10  N   UNL     1      48.410   8.041  15.932  0.00  0.00    +0.000 N 
ATOM     11  C   UNL     1      49.199   7.088  16.538  0.00  0.00    +0.000 C 
ATOM     12  O   UNL     1      49.996   6.391  15.918  0.00  0.00    +0.000 OA
ATOM     13  H   UNL     1      47.753   8.562  16.501  0.00  0.00    +0.000 HD
BRANCH  11  14
ATOM     14  C   UNL     1      49.040   7.046  18.086  0.00  0.00    +0.000 C 
ATOM     15  C   UNL     1      50.193   6.327  18.794  0.00  0.00    +0.000 C 
ATOM     16  C   UNL     1      50.053   4.814  18.676  0.00  0.00    +0.000 C 
ATOM     17  C   UNL     1      48.689   4.389  19.196  0.00  0.00    +0.000 C 
ATOM     18  C   UNL     1      47.582   5.179  18.509  0.00  0.00    +0.000 C 
ATOM     19  O   UNL     1      47.779   6.593  18.575  0.00  0.00    +0.000 OA
ENDBRANCH  11  14
ENDBRANCH   9  10
ENDBRANCH   6   9
ENDBRANCH   2   3
BRANCH   2  20
ATOM     20  N   UNL     1      44.868   4.200  10.995  0.00  0.00    +0.000 N 
ATOM     21  C   UNL     1      44.450   3.959   9.705  0.00  0.00    +0.000 C 
ATOM     22  O   UNL     1      43.593   4.636   9.153  0.00  0.00    +0.000 OA
ATOM     23  H   UNL     1      45.513   3.559  11.447  0.00  0.00    +0.000 HD
BRANCH  21  24
ATOM     24  C   UNL     1      45.107   2.851   9.021  0.00  0.00    +0.000 A 
ATOM     25  C   UNL     1      44.790   1.521   9.237  0.00  0.00    +0.000 A 
ATOM     26  O   UNL     1      45.526   0.696   8.447  0.00  0.00    +0.000 OA
ATOM     27  C   UNL     1      46.350   1.482   7.702  0.00  0.00    +0.000 A 
ATOM     28  N   UNL     1      47.231   0.999   6.791  0.00  0.00    +0.000 NA
ATOM     29  C   UNL     1      47.921   1.920   6.202  0.00  0.00    +0.000 A 
ATOM     30  N   UNL     1      47.810   3.270   6.447  0.00  0.00    +0.000 N 
ATOM     31  C   UNL     1      46.936   3.795   7.371  0.00  0.00    +0.000 A 
ATOM     32  O   UNL     1      46.870   4.996   7.603  0.00  0.00    +0.000 OA
ATOM     33  C   UNL     1      46.135   2.804   8.038  0.00  0.00    +0.000 A 
ATOM     34  H   UNL     1      48.392   3.936   5.959  0.00  0.00    +0.000 HD
ENDBRANCH  21  24
ENDBRANCH   2  20
TORSDOF 6
ENDMDL
MODEL 2
REMARK VINA RESULT:    -7.315      3.526      5.243
REMARK INTER + INTRA:         -10.755
REMARK INTER:                  -9.707
REMARK INTRA:                  -1.048
REMARK UNBOUND:                -0.874
REMARK  Name = 
REMARK  7 active torsions:
REMARK  status: ('A' for Active; 'I' for Inactive)
REMARK    1  A    between atoms: C_1  and  C_2
REMARK    2  A    between atoms: C_2  and  N_3
REMARK    3  A    between atoms: C_2  and  C_16
REMARK    4  A    between atoms: C_4  and  C_6
REMARK    5  A    between atoms: C_19  and  C_20
REMARK    6  A    between atoms: C_20  and  N_21
REMARK    7  A    between atoms: C_22  and  C_24
REMARK                            x       y       z     vdW  Elec       q    Type
REMARK                         _______ _______ _______ _____ _____    ______ ____
ROOT
ATOM      1  C   UNL     1      47.930   8.857  14.871  0.00  0.00    +0.000 C 
ATOM      2  C   UNL     1      48.206   7.449  14.332  0.00  0.00    +0.000 C 
ENDROOT
BRANCH   2   3
ATOM      3  C   UNL     1      48.796   6.506  15.366  0.00  0.00    +0.000 A 
ATOM      4  C   UNL     1      49.991   6.832  16.016  0.00  0.00    +0.000 A 
ATOM      5  C   UNL     1      50.500   6.003  17.019  0.00  0.00    +0.000 A 
ATOM      6  C   UNL     1      49.815   4.835  17.345  0.00  0.00    +0.000 A 
ATOM      7  N   UNL     1      48.676   4.473  16.704  0.00  0.00    +0.000 NA
ATOM      8  C   UNL     1      48.207   5.299  15.732  0.00  0.00    +0.000 A 
BRANCH   6   9
ATOM      9  C   UNL     1      50.305   3.940  18.467  0.00  0.00    +0.000 C 
BRANCH   9  10
ATOM     10  N   UNL     1      49.811   4.369  19.765  0.00  0.00    +0.000 N 
ATOM     11  C   UNL     1      50.459   5.289  20.560  0.00  0.00    +0.000 C 
ATOM     12  O   UNL     1      51.520   5.816  20.239  0.00  0.00    +0.000 OA
ATOM     13  H   UNL     1      48.952   3.952  20.104  0.00  0.00    +0.000 HD
BRANCH  11  14
ATOM     14  C   UNL     1      49.673   5.652  21.854  0.00  0.00    +0.000 C 
ATOM     15  C   UNL     1      48.214   5.186  21.826  0.00  0.00    +0.000 C 
ATOM     16  C   UNL     1      47.357   6.110  20.970  0.00  0.00    +0.000 C 
ATOM     17  C   UNL     1      47.505   7.540  21.462  0.00  0.00    +0.000 C 
ATOM     18  C   UNL     1      48.976   7.933  21.535  0.00  0.00    +0.000 C 
ATOM     19  O   UNL     1      49.767   7.009  22.285  0.00  0.00    +0.000 OA
ENDBRANCH  11  14
ENDBRANCH   9  10
ENDBRANCH   6   9
ENDBRANCH   2   3
BRANCH   2  20
ATOM     20  N   UNL     1      47.004   6.878  13.753  0.00  0.00    +0.000 N 
ATOM     21  C   UNL     1      46.770   6.845  12.396  0.00  0.00    +0.000 C 
ATOM     22  O   UNL     1      47.576   7.269  11.578  0.00  0.00    +0.000 OA
ATOM     23  H   UNL     1      46.271   6.602  14.400  0.00  0.00    +0.000 HD
BRANCH  21  24
ATOM     24  C   UNL     1      45.503   6.252  11.983  0.00  0.00    +0.000 A 
ATOM     25  C   UNL     1      44.499   6.959  11.344  0.00  0.00    +0.000 A 
ATOM     26  O   UNL     1      43.442   6.162  11.039  0.00  0.00    +0.000 OA
ATOM     27  C   UNL     1      43.737   4.912  11.489  0.00  0.00    +0.000 A 
ATOM     28  N   UNL     1      42.909   3.847  11.354  0.00  0.00    +0.000 NA
ATOM     29  C   UNL     1      43.384   2.756  11.860  0.00  0.00    +0.000 A 
ATOM     30  N   UNL     1      44.603   2.641  12.488  0.00  0.00    +0.000 N 
ATOM     31  C   UNL     1      45.464   3.701  12.653  0.00  0.00    +0.000 A 
ATOM     32  O   UNL     1      46.533   3.593  13.242  0.00  0.00    +0.000 OA
ATOM     33  C   UNL     1      44.982   4.932  12.087  0.00  0.00    +0.000 A 
ATOM     34  H   UNL     1      44.906   1.758  12.874  0.00  0.00    +0.000 HD
ENDBRANCH  21  24
ENDBRANCH   2  20
TORSDOF 6
ENDMDL
MODEL 3
REMARK VINA RESULT:    -7.096      3.325      4.789
REMARK INTER + INTRA:         -10.459
REMARK INTER:                  -9.662
REMARK INTRA:                  -0.797
REMARK UNBOUND:                -0.874
REMARK  Name = 
REMARK  7 active torsions:
REMARK  status: ('A' for Active; 'I' for Inactive)
REMARK    1  A    between atoms: C_1  and  C_2
REMARK    2  A    between atoms: C_2  and  N_3
REMARK    3  A    between atoms: C_2  and  C_16
REMARK    4  A    between atoms: C_4  and  C_6
REMARK    5  A    between atoms: C_19  and  C_20
REMARK    6  A    between atoms: C_20  and  N_21
REMARK    7  A    between atoms: C_22  and  C_24
REMARK                            x       y       z     vdW  Elec       q    Type
REMARK                         _______ _______ _______ _____ _____    ______ ____
ROOT
ATOM      1  C   UNL     1      49.193   9.559  11.928  0.00  0.00    +0.000 C 
ATOM      2  C   UNL     1      48.925   8.233  12.649  0.00  0.00    +0.000 C 
ENDROOT
BRANCH   2   3
ATOM      3  C   UNL     1      49.028   8.330  14.161  0.00  0.00    +0.000 A 
ATOM      4  C   UNL     1      48.092   9.076  14.884  0.00  0.00    +0.000 A 
ATOM      5  C   UNL     1      48.141   9.110  16.281  0.00  0.00    +0.000 A 
ATOM      6  C   UNL     1      49.149   8.412  16.941  0.00  0.00    +0.000 A 
ATOM      7  N   UNL     1      50.094   7.712  16.264  0.00  0.00    +0.000 NA
ATOM      8  C   UNL     1      50.021   7.701  14.907  0.00  0.00    +0.000 A 
BRANCH   6   9
ATOM      9  C   UNL     1      49.200   8.378  18.456  0.00  0.00    +0.000 C 
BRANCH   9  10
ATOM     10  N   UNL     1      49.531   7.056  18.962  0.00  0.00    +0.000 N 
ATOM     11  C   UNL     1      48.610   6.040  19.098  0.00  0.00    +0.000 C 
ATOM     12  O   UNL     1      47.425   6.174  18.810  0.00  0.00    +0.000 OA
ATOM     13  H   UNL     1      50.489   6.886  19.246  0.00  0.00    +0.000 HD
BRANCH  11  14
ATOM     14  C   UNL     1      49.238   4.695  19.567  0.00  0.00    +0.000 C 
ATOM     15  C   UNL     1      50.714   4.549  19.186  0.00  0.00    +0.000 C 
ATOM     16  C   UNL     1      50.869   4.182  17.715  0.00  0.00    +0.000 C 
ATOM     17  C   UNL     1      50.060   2.928  17.418  0.00  0.00    +0.000 C 
ATOM     18  C   UNL     1      48.617   3.099  17.876  0.00  0.00    +0.000 C 
ATOM     19  O   UNL     1      48.507   3.514  19.240  0.00  0.00    +0.000 OA
ENDBRANCH  11  14
ENDBRANCH   9  10
ENDBRANCH   6   9
ENDBRANCH   2   3
BRANCH   2  20
ATOM     20  N   UNL     1      47.635   7.692  12.262  0.00  0.00    +0.000 N 
ATOM     21  C   UNL     1      47.293   6.371  12.443  0.00  0.00    +0.000 C 
ATOM     22  O   UNL     1      48.044   5.563  12.973  0.00  0.00    +0.000 OA
ATOM     23  H   UNL     1      47.021   8.308  11.736  0.00  0.00    +0.000 HD
BRANCH  21  24
ATOM     24  C   UNL     1      45.963   5.990  11.982  0.00  0.00    +0.000 A 
ATOM     25  C   UNL     1      45.106   6.852  11.319  0.00  0.00    +0.000 A 
ATOM     26  O   UNL     1      43.947   6.235  10.970  0.00  0.00    +0.000 OA
ATOM     27  C   UNL     1      44.025   4.950  11.412  0.00  0.00    +0.000 A 
ATOM     28  N   UNL     1      43.044   4.031  11.236  0.00  0.00    +0.000 NA
ATOM     29  C   UNL     1      43.323   2.875  11.743  0.00  0.00    +0.000 A 
ATOM     30  N   UNL     1      44.486   2.563  12.408  0.00  0.00    +0.000 N 
ATOM     31  C   UNL     1      45.498   3.472  12.615  0.00  0.00    +0.000 A 
ATOM     32  O   UNL     1      46.515   3.191  13.238  0.00  0.00    +0.000 OA
ATOM     33  C   UNL     1      45.236   4.769  12.051  0.00  0.00    +0.000 A 
ATOM     34  H   UNL     1      44.633   1.641  12.792  0.00  0.00    +0.000 HD
ENDBRANCH  21  24
ENDBRANCH   2  20
TORSDOF 6
ENDMDL
MODEL 4
REMARK VINA RESULT:    -7.087      3.617      5.831
REMARK INTER + INTRA:         -10.447
REMARK INTER:                  -9.396
REMARK INTRA:                  -1.051
REMARK UNBOUND:                -0.874
REMARK  Name = 
REMARK  7 active torsions:
REMARK  status: ('A' for Active; 'I' for Inactive)
REMARK    1  A    between atoms: C_1  and  C_2
REMARK    2  A    between atoms: C_2  and  N_3
REMARK    3  A    between atoms: C_2  and  C_16
REMARK    4  A    between atoms: C_4  and  C_6
REMARK    5  A    between atoms: C_19  and  C_20
REMARK    6  A    between atoms: C_20  and  N_21
REMARK    7  A    between atoms: C_22  and  C_24
REMARK                            x       y       z     vdW  Elec       q    Type
REMARK                         _______ _______ _______ _____ _____    ______ ____
ROOT
ATOM      1  C   UNL     1      47.978   9.003  14.691  0.00  0.00    +0.000 C 
ATOM      2  C   UNL     1      48.222   7.565  14.222  0.00  0.00    +0.000 C 
ENDROOT
BRANCH   2   3
ATOM      3  C   UNL     1      48.815   6.667  15.293  0.00  0.00    +0.000 A 
ATOM      4  C   UNL     1      50.031   7.001  15.898  0.00  0.00    +0.000 A 
ATOM      5  C   UNL     1      50.546   6.217  16.934  0.00  0.00    +0.000 A 
ATOM      6  C   UNL     1      49.844   5.085  17.340  0.00  0.00    +0.000 A 
ATOM      7  N   UNL     1      48.682   4.714  16.745  0.00  0.00    +0.000 NA
ATOM      8  C   UNL     1      48.209   5.496  15.739  0.00  0.00    +0.000 A 
BRANCH   6   9
ATOM      9  C   UNL     1      50.341   4.242  18.499  0.00  0.00    +0.000 C 
BRANCH   9  10
ATOM     10  N   UNL     1      51.767   3.974  18.408  0.00  0.00    +0.000 N 
ATOM     11  C   UNL     1      52.292   2.827  17.854  0.00  0.00    +0.000 C 
ATOM     12  O   UNL     1      51.592   1.928  17.398  0.00  0.00    +0.000 OA
ATOM     13  H   UNL     1      52.402   4.664  18.791  0.00  0.00    +0.000 HD
BRANCH  11  14
ATOM     14  C   UNL     1      53.847   2.828  17.787  0.00  0.00    +0.000 C 
ATOM     15  C   UNL     1      54.434   1.492  17.322  0.00  0.00    +0.000 C 
ATOM     16  C   UNL     1      54.420   0.463  18.446  0.00  0.00    +0.000 C 
ATOM     17  C   UNL     1      55.140   1.027  19.660  0.00  0.00    +0.000 C 
ATOM     18  C   UNL     1      54.563   2.386  20.042  0.00  0.00    +0.000 C 
ATOM     19  O   UNL     1      54.524   3.306  18.949  0.00  0.00    +0.000 OA
ENDBRANCH  11  14
ENDBRANCH   9  10
ENDBRANCH   6   9
ENDBRANCH   2   3
BRANCH   2  20
ATOM     20  N   UNL     1      47.000   6.985  13.694  0.00  0.00    +0.000 N 
ATOM     21  C   UNL     1      46.812   6.727  12.355  0.00  0.00    +0.000 C 
ATOM     22  O   UNL     1      47.677   6.941  11.515  0.00  0.00    +0.000 OA
ATOM     23  H   UNL     1      46.226   6.881  14.344  0.00  0.00    +0.000 HD
BRANCH  21  24
ATOM     24  C   UNL     1      45.519   6.160  11.992  0.00  0.00    +0.000 A 
ATOM     25  C   UNL     1      44.495   6.894  11.418  0.00  0.00    +0.000 A 
ATOM     26  O   UNL     1      43.413   6.117  11.148  0.00  0.00    +0.000 OA
ATOM     27  C   UNL     1      43.713   4.854  11.556  0.00  0.00    +0.000 A 
ATOM     28  N   UNL     1      42.863   3.803  11.438  0.00  0.00    +0.000 NA
ATOM     29  C   UNL     1      43.347   2.695  11.897  0.00  0.00    +0.000 A 
ATOM     30  N   UNL     1      44.594   2.550  12.462  0.00  0.00    +0.000 N 
ATOM     31  C   UNL     1      45.477   3.596  12.607  0.00  0.00    +0.000 A 
ATOM     32  O   UNL     1      46.571   3.460  13.141  0.00  0.00    +0.000 OA
ATOM     33  C   UNL     1      44.985   4.845  12.093  0.00  0.00    +0.000 A 
ATOM     34  H   UNL     1      44.903   1.656  12.814  0.00  0.00    +0.000 HD
ENDBRANCH  21  24
ENDBRANCH   2  20
TORSDOF 6
ENDMDL
MODEL 5
REMARK VINA RESULT:    -7.079      4.224      9.012
REMARK INTER + INTRA:         -10.437
REMARK INTER:                  -9.403
REMARK INTRA:                  -1.034
REMARK UNBOUND:                -0.874
REMARK  Name = 
REMARK  7 active torsions:
REMARK  status: ('A' for Active; 'I' for Inactive)
REMARK    1  A    between atoms: C_1  and  C_2
REMARK    2  A    between atoms: C_2  and  N_3
REMARK    3  A    between atoms: C_2  and  C_16
REMARK    4  A    between atoms: C_4  and  C_6
REMARK    5  A    between atoms: C_19  and  C_20
REMARK    6  A    between atoms: C_20  and  N_21
REMARK    7  A    between atoms: C_22  and  C_24
REMARK                            x       y       z     vdW  Elec       q    Type
REMARK                         _______ _______ _______ _____ _____    ______ ____
ROOT
ATOM      1  C   UNL     1      44.547   4.414  12.938  0.00  0.00    +0.000 C 
ATOM      2  C   UNL     1      45.813   5.277  12.986  0.00  0.00    +0.000 C 
ENDROOT
BRANCH   2   3
ATOM      3  C   UNL     1      45.588   6.712  12.541  0.00  0.00    +0.000 A 
ATOM      4  C   UNL     1      44.696   6.995  11.501  0.00  0.00    +0.000 A 
ATOM      5  C   UNL     1      44.432   8.318  11.136  0.00  0.00    +0.000 A 
ATOM      6  C   UNL     1      45.087   9.349  11.804  0.00  0.00    +0.000 A 
ATOM      7  N   UNL     1      45.987   9.103  12.790  0.00  0.00    +0.000 NA
ATOM      8  C   UNL     1      46.224   7.806  13.120  0.00  0.00    +0.000 A 
BRANCH   6   9
ATOM      9  C   UNL     1      44.783  10.798  11.476  0.00  0.00    +0.000 C 
BRANCH   9  10
ATOM     10  N   UNL     1      43.426  10.975  10.988  0.00  0.00    +0.000 N 
ATOM     11  C   UNL     1      42.610  12.019  11.367  0.00  0.00    +0.000 C 
ATOM     12  O   UNL     1      42.964  12.885  12.161  0.00  0.00    +0.000 OA
ATOM     13  H   UNL     1      43.059  10.279  10.349  0.00  0.00    +0.000 HD
BRANCH  11  14
ATOM     14  C   UNL     1      41.241  12.036  10.626  0.00  0.00    +0.000 C 
ATOM     15  C   UNL     1      40.185  12.897  11.324  0.00  0.00    +0.000 C 
ATOM     16  C   UNL     1      39.595  12.176  12.530  0.00  0.00    +0.000 C 
ATOM     17  C   UNL     1      39.054  10.822  12.097  0.00  0.00    +0.000 C 
ATOM     18  C   UNL     1      40.122  10.032  11.349  0.00  0.00    +0.000 C 
ATOM     19  O   UNL     1      40.706  10.762  10.268  0.00  0.00    +0.000 OA
ENDBRANCH  11  14
ENDBRANCH   9  10
ENDBRANCH   6   9
ENDBRANCH   2   3
BRANCH   2  20
ATOM     20  N   UNL     1      46.405   5.244  14.310  0.00  0.00    +0.000 N 
ATOM     21  C   UNL     1      47.116   4.164  14.784  0.00  0.00    +0.000 C 
ATOM     22  O   UNL     1      47.325   3.165  14.109  0.00  0.00    +0.000 OA
ATOM     23  H   UNL     1      46.176   6.013  14.933  0.00  0.00    +0.000 HD
BRANCH  21  24
ATOM     24  C   UNL     1      47.629   4.288  16.144  0.00  0.00    +0.000 A 
ATOM     25  C   UNL     1      47.361   3.375  17.150  0.00  0.00    +0.000 A 
ATOM     26  O   UNL     1      47.988   3.709  18.308  0.00  0.00    +0.000 OA
ATOM     27  C   UNL     1      48.674   4.861  18.077  0.00  0.00    +0.000 A 
ATOM     28  N   UNL     1      49.427   5.490  19.014  0.00  0.00    +0.000 NA
ATOM     29  C   UNL     1      49.986   6.573  18.584  0.00  0.00    +0.000 A 
ATOM     30  N   UNL     1      49.855   7.080  17.311  0.00  0.00    +0.000 N 
ATOM     31  C   UNL     1      49.091   6.475  16.339  0.00  0.00    +0.000 A 
ATOM     32  O   UNL     1      48.956   6.953  15.219  0.00  0.00    +0.000 OA
ATOM     33  C   UNL     1      48.465   5.254  16.770  0.00  0.00    +0.000 A 
ATOM     34  H   UNL     1      50.309   7.942  17.045  0.00  0.00    +0.000 HD
ENDBRANCH  21  24
ENDBRANCH   2  20
TORSDOF 6
ENDMDL
MODEL 6
REMARK VINA RESULT:    -6.694      4.829      7.980
REMARK INTER + INTRA:          -9.917
REMARK INTER:                  -8.804
REMARK INTRA:                  -1.113
REMARK UNBOUND:                -0.874
REMARK  Name = 
REMARK  7 active torsions:
REMARK  status: ('A' for Active; 'I' for Inactive)
REMARK    1  A    between atoms: C_1  and  C_2
REMARK    2  A    between atoms: C_2  and  N_3
REMARK    3  A    between atoms: C_2  and  C_16
REMARK    4  A    between atoms: C_4  and  C_6
REMARK    5  A    between atoms: C_19  and  C_20
REMARK    6  A    between atoms: C_20  and  N_21
REMARK    7  A    between atoms: C_22  and  C_24
REMARK                            x       y       z     vdW  Elec       q    Type
REMARK                         _______ _______ _______ _____ _____    ______ ____
ROOT
ATOM      1  C   UNL     1      50.267  10.088  11.028  0.00  0.00    +0.000 C 
ATOM      2  C   UNL     1      50.623   8.709  11.595  0.00  0.00    +0.000 C 
ENDROOT
BRANCH   2   3
ATOM      3  C   UNL     1      49.420   7.924  12.088  0.00  0.00    +0.000 A 
ATOM      4  C   UNL     1      48.179   8.070  11.460  0.00  0.00    +0.000 A 
ATOM      5  C   UNL     1      47.087   7.296  11.864  0.00  0.00    +0.000 A 
ATOM      6  C   UNL     1      47.245   6.397  12.916  0.00  0.00    +0.000 A 
ATOM      7  N   UNL     1      48.426   6.263  13.569  0.00  0.00    +0.000 NA
ATOM      8  C   UNL     1      49.469   7.030  13.154  0.00  0.00    +0.000 A 
BRANCH   6   9
ATOM      9  C   UNL     1      46.099   5.500  13.343  0.00  0.00    +0.000 C 
BRANCH   9  10
ATOM     10  N   UNL     1      45.286   5.077  12.215  0.00  0.00    +0.000 N 
ATOM     11  C   UNL     1      45.045   3.757  11.903  0.00  0.00    +0.000 C 
ATOM     12  O   UNL     1      45.510   2.825  12.550  0.00  0.00    +0.000 OA
ATOM     13  H   UNL     1      44.892   5.798  11.621  0.00  0.00    +0.000 HD
BRANCH  11  14
ATOM     14  C   UNL     1      44.062   3.573  10.709  0.00  0.00    +0.000 C 
ATOM     15  C   UNL     1      44.194   2.212  10.020  0.00  0.00    +0.000 C 
ATOM     16  C   UNL     1      45.412   2.175   9.104  0.00  0.00    +0.000 C 
ATOM     17  C   UNL     1      45.339   3.328   8.116  0.00  0.00    +0.000 C 
ATOM     18  C   UNL     1      45.141   4.650   8.847  0.00  0.00    +0.000 C 
ATOM     19  O   UNL     1      44.034   4.630   9.751  0.00  0.00    +0.000 OA
ENDBRANCH  11  14
ENDBRANCH   9  10
ENDBRANCH   6   9
ENDBRANCH   2   3
BRANCH   2  20
ATOM     20  N   UNL     1      51.372   7.934  10.622  0.00  0.00    +0.000 N 
ATOM     21  C   UNL     1      52.682   7.559  10.814  0.00  0.00    +0.000 C 
ATOM     22  O   UNL     1      53.302   7.828  11.835  0.00  0.00    +0.000 OA
ATOM     23  H   UNL     1      50.924   7.773   9.725  0.00  0.00    +0.000 HD
BRANCH  21  24
ATOM     24  C   UNL     1      53.291   6.798   9.729  0.00  0.00    +0.000 A 
ATOM     25  C   UNL     1      53.845   5.540   9.892  0.00  0.00    +0.000 A 
ATOM     26  O   UNL     1      54.310   5.042   8.716  0.00  0.00    +0.000 OA
ATOM     27  C   UNL     1      54.074   5.980   7.759  0.00  0.00    +0.000 A 
ATOM     28  N   UNL     1      54.403   5.824   6.453  0.00  0.00    +0.000 NA
ATOM     29  C   UNL     1      54.096   6.842   5.719  0.00  0.00    +0.000 A 
ATOM     30  N   UNL     1      53.497   7.995   6.174  0.00  0.00    +0.000 N 
ATOM     31  C   UNL     1      53.159   8.192   7.493  0.00  0.00    +0.000 A 
ATOM     32  O   UNL     1      52.656   9.236   7.892  0.00  0.00    +0.000 OA
ATOM     33  C   UNL     1      53.467   7.075   8.344  0.00  0.00    +0.000 A 
ATOM     34  H   UNL     1      53.297   8.759   5.545  0.00  0.00    +0.000 HD
ENDBRANCH  21  24
ENDBRANCH   2  20
TORSDOF 6
ENDMDL
MODEL 7
REMARK VINA RESULT:    -6.522      4.083      8.675
REMARK INTER + INTRA:          -9.684
REMARK INTER:                  -8.551
REMARK INTRA:                  -1.133
REMARK UNBOUND:                -0.874
REMARK  Name = 
REMARK  7 active torsions:
REMARK  status: ('A' for Active; 'I' for Inactive)
REMARK    1  A    between atoms: C_1  and  C_2
REMARK    2  A    between atoms: C_2  and  N_3
REMARK    3  A    between atoms: C_2  and  C_16
REMARK    4  A    between atoms: C_4  and  C_6
REMARK    5  A    between atoms: C_19  and  C_20
REMARK    6  A    between atoms: C_20  and  N_21
REMARK    7  A    between atoms: C_22  and  C_24
REMARK                            x       y       z     vdW  Elec       q    Type
REMARK                         _______ _______ _______ _____ _____    ______ ____
ROOT
ATOM      1  C   UNL     1      46.865  11.708  12.057  0.00  0.00    +0.000 C 
ATOM      2  C   UNL     1      47.459  10.344  12.423  0.00  0.00    +0.000 C 
ENDROOT
BRANCH   2   3
ATOM      3  C   UNL     1      46.522   9.180  12.152  0.00  0.00    +0.000 A 
ATOM      4  C   UNL     1      46.900   7.877  12.494  0.00  0.00    +0.000 A 
ATOM      5  C   UNL     1      46.013   6.812  12.313  0.00  0.00    +0.000 A 
ATOM      6  C   UNL     1      44.758   7.062  11.764  0.00  0.00    +0.000 A 
ATOM      7  N   UNL     1      44.379   8.309  11.387  0.00  0.00    +0.000 NA
ATOM      8  C   UNL     1      45.264   9.322  11.574  0.00  0.00    +0.000 A 
BRANCH   6   9
ATOM      9  C   UNL     1      43.748   5.942  11.606  0.00  0.00    +0.000 C 
BRANCH   9  10
ATOM     10  N   UNL     1      43.829   5.312  10.299  0.00  0.00    +0.000 N 
ATOM     11  C   UNL     1      44.552   4.165  10.050  0.00  0.00    +0.000 C 
ATOM     12  O   UNL     1      45.197   3.585  10.917  0.00  0.00    +0.000 OA
ATOM     13  H   UNL     1      43.341   5.756   9.530  0.00  0.00    +0.000 HD
BRANCH  11  14
ATOM     14  C   UNL     1      44.395   3.639   8.594  0.00  0.00    +0.000 C 
ATOM     15  C   UNL     1      44.505   2.115   8.485  0.00  0.00    +0.000 C 
ATOM     16  C   UNL     1      45.957   1.660   8.560  0.00  0.00    +0.000 C 
ATOM     17  C   UNL     1      46.771   2.383   7.499  0.00  0.00    +0.000 C 
ATOM     18  C   UNL     1      46.576   3.891   7.607  0.00  0.00    +0.000 C 
ATOM     19  O   UNL     1      45.201   4.280   7.605  0.00  0.00    +0.000 OA
ENDBRANCH  11  14
ENDBRANCH   9  10
ENDBRANCH   6   9
ENDBRANCH   2   3
BRANCH   2  20
ATOM     20  N   UNL     1      48.728  10.142  11.749  0.00  0.00    +0.000 N 
ATOM     21  C   UNL     1      49.923  10.613  12.246  0.00  0.00    +0.000 C 
ATOM     22  O   UNL     1      50.003  11.212  13.310  0.00  0.00    +0.000 OA
ATOM     23  H   UNL     1      48.692   9.732  10.820  0.00  0.00    +0.000 HD
BRANCH  21  24
ATOM     24  C   UNL     1      51.102  10.338  11.433  0.00  0.00    +0.000 A 
ATOM     25  C   UNL     1      51.973  11.319  10.991  0.00  0.00    +0.000 A 
ATOM     26  O   UNL     1      53.006  10.790  10.284  0.00  0.00    +0.000 OA
ATOM     27  C   UNL     1      52.818   9.442  10.245  0.00  0.00    +0.000 A 
ATOM     28  N   UNL     1      53.662   8.582   9.623  0.00  0.00    +0.000 NA
ATOM     29  C   UNL     1      53.289   7.346   9.702  0.00  0.00    +0.000 A 
ATOM     30  N   UNL     1      52.152   6.902  10.338  0.00  0.00    +0.000 N 
ATOM     31  C   UNL     1      51.268   7.747  10.970  0.00  0.00    +0.000 A 
ATOM     32  O   UNL     1      50.243   7.342  11.505  0.00  0.00    +0.000 OA
ATOM     33  C   UNL     1      51.655   9.131  10.922  0.00  0.00    +0.000 A 
ATOM     34  H   UNL     1      51.913   5.921  10.349  0.00  0.00    +0.000 HD
ENDBRANCH  21  24
ENDBRANCH   2  20
TORSDOF 6
ENDMDL
MODEL 8
REMARK VINA RESULT:    -6.143      3.377      4.968
REMARK INTER + INTRA:          -9.172
REMARK INTER:                  -8.667
REMARK INTRA:                  -0.504
REMARK UNBOUND:                -0.874
REMARK  Name = 
REMARK  7 active torsions:
REMARK  status: ('A' for Active; 'I' for Inactive)
REMARK    1  A    between atoms: C_1  and  C_2
REMARK    2  A    between atoms: C_2  and  N_3
REMARK    3  A    between atoms: C_2  and  C_16
REMARK    4  A    between atoms: C_4  and  C_6
REMARK    5  A    between atoms: C_19  and  C_20
REMARK    6  A    between atoms: C_20  and  N_21
REMARK    7  A    between atoms: C_22  and  C_24
REMARK                            x       y       z     vdW  Elec       q    Type
REMARK                         _______ _______ _______ _____ _____    ______ ____
ROOT
ATOM      1  C   UNL     1      50.019   8.708  11.565  0.00  0.00    +0.000 C 
ATOM      2  C   UNL     1      49.434   7.719  12.579  0.00  0.00    +0.000 C 
ENDROOT
BRANCH   2   3
ATOM      3  C   UNL     1      49.447   8.233  14.008  0.00  0.00    +0.000 A 
ATOM      4  C   UNL     1      50.589   8.079  14.801  0.00  0.00    +0.000 A 
ATOM      5  C   UNL     1      50.631   8.614  16.092  0.00  0.00    +0.000 A 
ATOM      6  C   UNL     1      49.512   9.280  16.586  0.00  0.00    +0.000 A 
ATOM      7  N   UNL     1      48.377   9.410  15.854  0.00  0.00    +0.000 NA
ATOM      8  C   UNL     1      48.367   8.877  14.604  0.00  0.00    +0.000 A 
BRANCH   6   9
ATOM      9  C   UNL     1      49.541   9.923  17.959  0.00  0.00    +0.000 C 
BRANCH   9  10
ATOM     10  N   UNL     1      49.944   8.986  18.994  0.00  0.00    +0.000 N 
ATOM     11  C   UNL     1      49.059   8.185  19.683  0.00  0.00    +0.000 C 
ATOM     12  O   UNL     1      47.849   8.206  19.483  0.00  0.00    +0.000 OA
ATOM     13  H   UNL     1      50.928   8.937  19.230  0.00  0.00    +0.000 HD
BRANCH  11  14
ATOM     14  C   UNL     1      49.753   7.199  20.667  0.00  0.00    +0.000 C 
ATOM     15  C   UNL     1      50.547   6.096  19.960  0.00  0.00    +0.000 C 
ATOM     16  C   UNL     1      49.622   5.009  19.425  0.00  0.00    +0.000 C 
ATOM     17  C   UNL     1      48.758   4.476  20.557  0.00  0.00    +0.000 C 
ATOM     18  C   UNL     1      48.042   5.618  21.269  0.00  0.00    +0.000 C 
ATOM     19  O   UNL     1      48.928   6.655  21.696  0.00  0.00    +0.000 OA
ENDBRANCH  11  14
ENDBRANCH   9  10
ENDBRANCH   6   9
ENDBRANCH   2   3
BRANCH   2  20
ATOM     20  N   UNL     1      48.091   7.326  12.193  0.00  0.00    +0.000 N 
ATOM     21  C   UNL     1      47.502   6.156  12.619  0.00  0.00    +0.000 C 
ATOM     22  O   UNL     1      48.061   5.377  13.380  0.00  0.00    +0.000 OA
ATOM     23  H   UNL     1      47.632   7.898  11.491  0.00  0.00    +0.000 HD
BRANCH  21  24
ATOM     24  C   UNL     1      46.154   5.906  12.124  0.00  0.00    +0.000 A 
ATOM     25  C   UNL     1      45.385   6.860  11.479  0.00  0.00    +0.000 A 
ATOM     26  O   UNL     1      44.186   6.356  11.089  0.00  0.00    +0.000 OA
ATOM     27  C   UNL     1      44.147   5.055  11.486  0.00  0.00    +0.000 A 
ATOM     28  N   UNL     1      43.095   4.230  11.261  0.00  0.00    +0.000 NA
ATOM     29  C   UNL     1      43.265   3.037  11.730  0.00  0.00    +0.000 A 
ATOM     30  N   UNL     1      44.385   2.604  12.402  0.00  0.00    +0.000 N 
ATOM     31  C   UNL     1      45.467   3.416  12.658  0.00  0.00    +0.000 A 
ATOM     32  O   UNL     1      46.444   3.028  13.286  0.00  0.00    +0.000 OA
ATOM     33  C   UNL     1      45.326   4.749  12.137  0.00  0.00    +0.000 A 
ATOM     34  H   UNL     1      44.446   1.660  12.755  0.00  0.00    +0.000 HD
ENDBRANCH  21  24
ENDBRANCH   2  20
TORSDOF 6
ENDMDL
MODEL 9
REMARK VINA RESULT:    -6.032      3.701      4.966
REMARK INTER + INTRA:          -9.023
REMARK INTER:                  -8.217
REMARK INTRA:                  -0.806
REMARK UNBOUND:                -0.874
REMARK  Name = 
REMARK  7 active torsions:
REMARK  status: ('A' for Active; 'I' for Inactive)
REMARK    1  A    between atoms: C_1  and  C_2
REMARK    2  A    between atoms: C_2  and  N_3
REMARK    3  A    between atoms: C_2  and  C_16
REMARK    4  A    between atoms: C_4  and  C_6
REMARK    5  A    between atoms: C_19  and  C_20
REMARK    6  A    between atoms: C_20  and  N_21
REMARK    7  A    between atoms: C_22  and  C_24
REMARK                            x       y       z     vdW  Elec       q    Type
REMARK                         _______ _______ _______ _____ _____    ______ ____
ROOT
ATOM      1  C   UNL     1      49.419   8.185  11.660  0.00  0.00    +0.000 C 
ATOM      2  C   UNL     1      49.136   7.194  12.794  0.00  0.00    +0.000 C 
ENDROOT
BRANCH   2   3
ATOM      3  C   UNL     1      49.168   7.823  14.175  0.00  0.00    +0.000 A 
ATOM      4  C   UNL     1      50.278   7.642  15.007  0.00  0.00    +0.000 A 
ATOM      5  C   UNL     1      50.343   8.278  16.249  0.00  0.00    +0.000 A 
ATOM      6  C   UNL     1      49.278   9.075  16.659  0.00  0.00    +0.000 A 
ATOM      7  N   UNL     1      48.171   9.238  15.892  0.00  0.00    +0.000 NA
ATOM      8  C   UNL     1      48.137   8.604  14.690  0.00  0.00    +0.000 A 
BRANCH   6   9
ATOM      9  C   UNL     1      49.337   9.827  17.975  0.00  0.00    +0.000 C 
BRANCH   9  10
ATOM     10  N   UNL     1      48.821   9.037  19.080  0.00  0.00    +0.000 N 
ATOM     11  C   UNL     1      49.617   8.286  19.917  0.00  0.00    +0.000 C 
ATOM     12  O   UNL     1      50.835   8.215  19.789  0.00  0.00    +0.000 OA
ATOM     13  H   UNL     1      47.818   9.029  19.226  0.00  0.00    +0.000 HD
BRANCH  11  14
ATOM     14  C   UNL     1      48.831   7.615  21.082  0.00  0.00    +0.000 C 
ATOM     15  C   UNL     1      49.693   6.679  21.934  0.00  0.00    +0.000 C 
ATOM     16  C   UNL     1      49.917   5.345  21.232  0.00  0.00    +0.000 C 
ATOM     17  C   UNL     1      48.575   4.733  20.865  0.00  0.00    +0.000 C 
ATOM     18  C   UNL     1      47.729   5.726  20.076  0.00  0.00    +0.000 C 
ATOM     19  O   UNL     1      47.597   6.991  20.728  0.00  0.00    +0.000 OA
ENDBRANCH  11  14
ENDBRANCH   9  10
ENDBRANCH   6   9
ENDBRANCH   2   3
BRANCH   2  20
ATOM     20  N   UNL     1      47.872   6.514  12.575  0.00  0.00    +0.000 N 
ATOM     21  C   UNL     1      47.436   5.474  13.365  0.00  0.00    +0.000 C 
ATOM     22  O   UNL     1      48.071   5.067  14.329  0.00  0.00    +0.000 OA
ATOM     23  H   UNL     1      47.362   6.760  11.732  0.00  0.00    +0.000 HD
BRANCH  21  24
ATOM     24  C   UNL     1      46.151   4.892  12.996  0.00  0.00    +0.000 A 
ATOM     25  C   UNL     1      45.828   3.560  13.195  0.00  0.00    +0.000 A 
ATOM     26  O   UNL     1      44.558   3.288  12.796  0.00  0.00    +0.000 OA
ATOM     27  C   UNL     1      44.030   4.447  12.314  0.00  0.00    +0.000 A 
ATOM     28  N   UNL     1      42.769   4.555  11.828  0.00  0.00    +0.000 NA
ATOM     29  C   UNL     1      42.476   5.745  11.415  0.00  0.00    +0.000 A 
ATOM     30  N   UNL     1      43.330   6.824  11.442  0.00  0.00    +0.000 N 
ATOM     31  C   UNL     1      44.619   6.748  11.917  0.00  0.00    +0.000 A 
ATOM     32  O   UNL     1      45.379   7.709  11.906  0.00  0.00    +0.000 OA
ATOM     33  C   UNL     1      44.981   5.444  12.404  0.00  0.00    +0.000 A 
ATOM     34  H   UNL     1      43.039   7.724  11.089  0.00  0.00    +0.000 HD
ENDBRANCH  21  24
ENDBRANCH   2  20
TORSDOF 6
ENDMDL
