MODEL 1
REMARK VINA RESULT:    -7.540      0.000      0.000
REMARK INTER + INTRA:          -9.818
REMARK INTER:                  -9.083
REMARK INTRA:                  -0.735
REMARK UNBOUND:                -0.735
REMARK  Name = 
REMARK  4 active torsions:
REMARK  status: ('A' for Active; 'I' for Inactive)
REMARK    1  A    between atoms: O_1  and  C_2
REMARK    2  A    between atoms: C_5  and  C_6
REMARK    3  A    between atoms: C_6  and  C_7
REMARK    4  A    between atoms: C_11  and  C_12
REMARK                            x       y       z     vdW  Elec       q    Type
REMARK                         _______ _______ _______ _____ _____    ______ ____
ROOT
ATOM      1  C   UNL     1      45.456   4.947  12.097  0.00  0.00    +0.000 A 
ATOM      2  C   UNL     1      45.825   4.242  13.252  0.00  0.00    +0.000 A 
ATOM      3  C   UNL     1      46.880   4.671  14.053  0.00  0.00    +0.000 A 
ATOM      4  C   UNL     1      47.586   5.828  13.717  0.00  0.00    +0.000 A 
ATOM      5  C   UNL     1      47.222   6.601  12.603  0.00  0.00    +0.000 A 
ATOM      6  C   UNL     1      46.127   6.160  11.836  0.00  0.00    +0.000 A 
ENDROOT
BRANCH   5   7
ATOM      7  C   UNL     1      48.008   7.782  12.194  0.00  0.00    +0.000 A 
ATOM      8  C   UNL     1      49.356   7.677  11.817  0.00  0.00    +0.000 A 
ATOM      9  C   UNL     1      50.067   8.801  11.401  0.00  0.00    +0.000 A 
ATOM     10  C   UNL     1      49.408  10.015  11.359  0.00  0.00    +0.000 A 
ATOM     11  N   UNL     1      48.115  10.175  11.704  0.00  0.00    +0.000 NA
ATOM     12  C   UNL     1      47.454   9.061  12.115  0.00  0.00    +0.000 A 
ENDBRANCH   5   7
BRANCH   1  13
ATOM     13  C   UNL     1      44.497   4.335  11.070  0.00  0.00    +0.000 C 
ATOM     14  C   UNL     1      43.210   3.705  11.612  0.00  0.00    +0.000 C 
ATOM     15  C   UNL     1      43.139   5.042  10.963  0.00  0.00    +0.000 C 
BRANCH  13  19
ATOM     16  C   UNL     1      46.314   2.641   7.499  0.00  0.00    +0.000 A 
ATOM     17  C   UNL     1      46.264   4.020   7.653  0.00  0.00    +0.000 A 
ATOM     18  C   UNL     1      45.645   4.566   8.787  0.00  0.00    +0.000 A 
ATOM     19  C   UNL     1      45.081   3.748   9.784  0.00  0.00    +0.000 A 
ATOM     20  C   UNL     1      45.133   2.357   9.577  0.00  0.00    +0.000 A 
ATOM     21  C   UNL     1      45.745   1.805   8.449  0.00  0.00    +0.000 A 
BRANCH  16  22
ATOM     22  O   UNL     1      46.924   2.063   6.427  0.00  0.00    +0.000 OA
ATOM     23  H   UNL     1      46.598   1.152   6.338  0.00  0.00    +0.000 HD
ENDBRANCH  16  22
ENDBRANCH  13  19
ENDBRANCH   1  13
TORSDOF 4
ENDMDL
MODEL 2
REMARK VINA RESULT:    -7.317      2.110      3.470
REMARK INTER + INTRA:          -9.549
REMARK INTER:                  -8.921
REMARK INTRA:                  -0.629
REMARK UNBOUND:                -0.735
REMARK  Name = 
REMARK  4 active torsions:
REMARK  status: ('A' for Active; 'I' for Inactive)
REMARK    1  A    between atoms: O_1  and  C_2
REMARK    2  A    between atoms: C_5  and  C_6
REMARK    3  A    between atoms: C_6  and  C_7
REMARK    4  A    between atoms: C_11  and  C_12
REMARK                            x       y       z     vdW  Elec       q    Type
REMARK                         _______ _______ _______ _____ _____    ______ ____
ROOT
ATOM      1  C   UNL     1      45.594   5.470  11.552  0.00  0.00    +0.000 A 
ATOM      2  C   UNL     1      45.634   6.846  11.278  0.00  0.00    +0.000 A 
ATOM      3  C   UNL     1      46.284   7.733  12.131  0.00  0.00    +0.000 A 
ATOM      4  C   UNL     1      46.920   7.257  13.279  0.00  0.00    +0.000 A 
ATOM      5  C   UNL     1      46.959   5.885  13.571  0.00  0.00    +0.000 A 
ATOM      6  C   UNL     1      46.324   5.011  12.668  0.00  0.00    +0.000 A 
ENDROOT
BRANCH   5   7
ATOM      7  C   UNL     1      47.562   5.379  14.819  0.00  0.00    +0.000 A 
ATOM      8  C   UNL     1      47.172   4.154  15.384  0.00  0.00    +0.000 A 
ATOM      9  C   UNL     1      47.782   3.681  16.544  0.00  0.00    +0.000 A 
ATOM     10  C   UNL     1      48.786   4.441  17.115  0.00  0.00    +0.000 A 
ATOM     11  N   UNL     1      49.205   5.620  16.615  0.00  0.00    +0.000 NA
ATOM     12  C   UNL     1      48.582   6.058  15.489  0.00  0.00    +0.000 A 
ENDBRANCH   5   7
BRANCH   1  13
ATOM     13  C   UNL     1      44.653   4.538  10.782  0.00  0.00    +0.000 C 
ATOM     14  C   UNL     1      43.538   3.859  11.585  0.00  0.00    +0.000 C 
ATOM     15  C   UNL     1      43.196   5.014  10.712  0.00  0.00    +0.000 C 
BRANCH  13  19
ATOM     16  C   UNL     1      46.366   2.385   7.412  0.00  0.00    +0.000 A 
ATOM     17  C   UNL     1      46.373   3.774   7.413  0.00  0.00    +0.000 A 
ATOM     18  C   UNL     1      45.788   4.466   8.483  0.00  0.00    +0.000 A 
ATOM     19  C   UNL     1      45.200   3.788   9.566  0.00  0.00    +0.000 A 
ATOM     20  C   UNL     1      45.193   2.382   9.514  0.00  0.00    +0.000 A 
ATOM     21  C   UNL     1      45.771   1.683   8.451  0.00  0.00    +0.000 A 
BRANCH  16  22
ATOM     22  O   UNL     1      46.941   1.667   6.407  0.00  0.00    +0.000 OA
ATOM     23  H   UNL     1      47.472   2.267   5.860  0.00  0.00    +0.000 HD
ENDBRANCH  16  22
ENDBRANCH  13  19
ENDBRANCH   1  13
TORSDOF 4
ENDMDL
MODEL 3
REMARK VINA RESULT:    -7.290      1.474      1.911
REMARK INTER + INTRA:          -9.517
REMARK INTER:                  -8.834
REMARK INTRA:                  -0.683
REMARK UNBOUND:                -0.735
REMARK  Name = 
REMARK  4 active torsions:
REMARK  status: ('A' for Active; 'I' for Inactive)
REMARK    1  A    between atoms: O_1  and  C_2
REMARK    2  A    between atoms: C_5  and  C_6
REMARK    3  A    between atoms: C_6  and  C_7
REMARK    4  A    between atoms: C_11  and  C_12
REMARK                            x       y       z     vdW  Elec       q    Type
REMARK                         _______ _______ _______ _____ _____    ______ ____
ROOT
ATOM      1  C   UNL     1      45.215   5.367  12.188  0.00  0.00    +0.000 A 
ATOM      2  C   UNL     1      46.286   4.880  12.954  0.00  0.00    +0.000 A 
ATOM      3  C   UNL     1      47.232   5.742  13.501  0.00  0.00    +0.000 A 
ATOM      4  C   UNL     1      47.119   7.119  13.301  0.00  0.00    +0.000 A 
ATOM      5  C   UNL     1      46.037   7.663  12.592  0.00  0.00    +0.000 A 
ATOM      6  C   UNL     1      45.078   6.766  12.083  0.00  0.00    +0.000 A 
ENDROOT
BRANCH   5   7
ATOM      7  C   UNL     1      45.948   9.109  12.310  0.00  0.00    +0.000 A 
ATOM      8  C   UNL     1      47.096   9.900  12.145  0.00  0.00    +0.000 A 
ATOM      9  C   UNL     1      46.986  11.256  11.843  0.00  0.00    +0.000 A 
ATOM     10  C   UNL     1      45.722  11.796  11.700  0.00  0.00    +0.000 A 
ATOM     11  N   UNL     1      44.586  11.085  11.841  0.00  0.00    +0.000 NA
ATOM     12  C   UNL     1      44.729   9.768  12.145  0.00  0.00    +0.000 A 
ENDBRANCH   5   7
BRANCH   1  13
ATOM     13  C   UNL     1      44.344   4.420  11.356  0.00  0.00    +0.000 C 
ATOM     14  C   UNL     1      43.360   3.528  12.121  0.00  0.00    +0.000 C 
ATOM     15  C   UNL     1      42.841   4.725  11.405  0.00  0.00    +0.000 C 
BRANCH  13  19
ATOM     16  C   UNL     1      46.091   2.857   7.691  0.00  0.00    +0.000 A 
ATOM     17  C   UNL     1      46.075   4.227   7.913  0.00  0.00    +0.000 A 
ATOM     18  C   UNL     1      45.480   4.732   9.077  0.00  0.00    +0.000 A 
ATOM     19  C   UNL     1      44.903   3.882  10.038  0.00  0.00    +0.000 A 
ATOM     20  C   UNL     1      44.918   2.501   9.764  0.00  0.00    +0.000 A 
ATOM     21  C   UNL     1      45.508   1.989   8.605  0.00  0.00    +0.000 A 
BRANCH  16  22
ATOM     22  O   UNL     1      46.677   2.315   6.588  0.00  0.00    +0.000 OA
ATOM     23  H   UNL     1      47.635   2.267   6.737  0.00  0.00    +0.000 HD
ENDBRANCH  16  22
ENDBRANCH  13  19
ENDBRANCH   1  13
TORSDOF 4
ENDMDL
MODEL 4
REMARK VINA RESULT:    -6.765      1.667      2.288
REMARK INTER + INTRA:          -8.884
REMARK INTER:                  -8.445
REMARK INTRA:                  -0.439
REMARK UNBOUND:                -0.735
REMARK  Name = 
REMARK  4 active torsions:
REMARK  status: ('A' for Active; 'I' for Inactive)
REMARK    1  A    between atoms: O_1  and  C_2
REMARK    2  A    between atoms: C_5  and  C_6
REMARK    3  A    between atoms: C_6  and  C_7
REMARK    4  A    between atoms: C_11  and  C_12
REMARK                            x       y       z     vdW  Elec       q    Type
REMARK                         _______ _______ _______ _____ _____    ______ ____
ROOT
ATOM      1  C   UNL     1      45.145   5.537  11.206  0.00  0.00    +0.000 A 
ATOM      2  C   UNL     1      44.256   6.621  11.144  0.00  0.00    +0.000 A 
ATOM      3  C   UNL     1      44.564   7.841  11.738  0.00  0.00    +0.000 A 
ATOM      4  C   UNL     1      45.780   8.007  12.404  0.00  0.00    +0.000 A 
ATOM      5  C   UNL     1      46.729   6.973  12.447  0.00  0.00    +0.000 A 
ATOM      6  C   UNL     1      46.402   5.764  11.804  0.00  0.00    +0.000 A 
ENDROOT
BRANCH   5   7
ATOM      7  C   UNL     1      47.984   7.111  13.212  0.00  0.00    +0.000 A 
ATOM      8  C   UNL     1      49.036   7.924  12.763  0.00  0.00    +0.000 A 
ATOM      9  C   UNL     1      50.197   8.067  13.521  0.00  0.00    +0.000 A 
ATOM     10  C   UNL     1      50.279   7.396  14.727  0.00  0.00    +0.000 A 
ATOM     11  N   UNL     1      49.300   6.606  15.211  0.00  0.00    +0.000 NA
ATOM     12  C   UNL     1      48.186   6.482  14.442  0.00  0.00    +0.000 A 
ENDBRANCH   5   7
BRANCH   1  13
ATOM     13  C   UNL     1      44.701   4.126  10.808  0.00  0.00    +0.000 C 
ATOM     14  C   UNL     1      44.342   3.164  11.946  0.00  0.00    +0.000 C 
ATOM     15  C   UNL     1      43.245   3.791  11.160  0.00  0.00    +0.000 C 
BRANCH  13  19
ATOM     16  C   UNL     1      46.467   2.383   7.235  0.00  0.00    +0.000 A 
ATOM     17  C   UNL     1      46.340   3.762   7.333  0.00  0.00    +0.000 A 
ATOM     18  C   UNL     1      45.737   4.320   8.469  0.00  0.00    +0.000 A 
ATOM     19  C   UNL     1      45.265   3.517   9.523  0.00  0.00    +0.000 A 
ATOM     20  C   UNL     1      45.393   2.123   9.373  0.00  0.00    +0.000 A 
ATOM     21  C   UNL     1      45.990   1.558   8.244  0.00  0.00    +0.000 A 
BRANCH  16  22
ATOM     22  O   UNL     1      47.066   1.793   6.163  0.00  0.00    +0.000 OA
ATOM     23  H   UNL     1      46.822   2.285   5.362  0.00  0.00    +0.000 HD
ENDBRANCH  16  22
ENDBRANCH  13  19
ENDBRANCH   1  13
TORSDOF 4
ENDMDL
MODEL 5
REMARK VINA RESULT:    -6.665      2.842      4.269
REMARK INTER + INTRA:          -8.764
REMARK INTER:                  -8.178
REMARK INTRA:                  -0.586
REMARK UNBOUND:                -0.735
REMARK  Name = 
REMARK  4 active torsions:
REMARK  status: ('A' for Active; 'I' for Inactive)
REMARK    1  A    between atoms: O_1  and  C_2
REMARK    2  A    between atoms: C_5  and  C_6
REMARK    3  A    between atoms: C_6  and  C_7
REMARK    4  A    between atoms: C_11  and  C_12
REMARK                            x       y       z     vdW  Elec       q    Type
REMARK                         _______ _______ _______ _____ _____    ______ ____
ROOT
ATOM      1  C   UNL     1      46.135   5.374  12.792  0.00  0.00    +0.000 A 
ATOM      2  C   UNL     1      46.711   6.605  12.444  0.00  0.00    +0.000 A 
ATOM      3  C   UNL     1      47.661   7.213  13.260  0.00  0.00    +0.000 A 
ATOM      4  C   UNL     1      48.065   6.592  14.444  0.00  0.00    +0.000 A 
ATOM      5  C   UNL     1      47.562   5.334  14.810  0.00  0.00    +0.000 A 
ATOM      6  C   UNL     1      46.632   4.729  13.944  0.00  0.00    +0.000 A 
ENDROOT
BRANCH   5   7
ATOM      7  C   UNL     1      47.924   4.704  16.095  0.00  0.00    +0.000 A 
ATOM      8  C   UNL     1      48.850   5.292  16.970  0.00  0.00    +0.000 A 
ATOM      9  C   UNL     1      49.148   4.695  18.194  0.00  0.00    +0.000 A 
ATOM     10  C   UNL     1      48.500   3.520  18.526  0.00  0.00    +0.000 A 
ATOM     11  N   UNL     1      47.599   2.913  17.729  0.00  0.00    +0.000 NA
ATOM     12  C   UNL     1      47.340   3.516  16.539  0.00  0.00    +0.000 A 
ENDBRANCH   5   7
BRANCH   1  13
ATOM     13  C   UNL     1      44.901   4.843  12.057  0.00  0.00    +0.000 C 
ATOM     14  C   UNL     1      43.812   4.186  12.912  0.00  0.00    +0.000 C 
ATOM     15  C   UNL     1      43.592   5.566  12.401  0.00  0.00    +0.000 C 
BRANCH  13  19
ATOM     16  C   UNL     1      45.525   3.354   8.017  0.00  0.00    +0.000 A 
ATOM     17  C   UNL     1      45.831   4.675   8.315  0.00  0.00    +0.000 A 
ATOM     18  C   UNL     1      45.595   5.164   9.608  0.00  0.00    +0.000 A 
ATOM     19  C   UNL     1      45.064   4.343  10.620  0.00  0.00    +0.000 A 
ATOM     20  C   UNL     1      44.746   3.018  10.270  0.00  0.00    +0.000 A 
ATOM     21  C   UNL     1      44.976   2.523   8.984  0.00  0.00    +0.000 A 
BRANCH  16  22
ATOM     22  O   UNL     1      45.757   2.825   6.783  0.00  0.00    +0.000 OA
ATOM     23  H   UNL     1      45.120   2.110   6.627  0.00  0.00    +0.000 HD
ENDBRANCH  16  22
ENDBRANCH  13  19
ENDBRANCH   1  13
TORSDOF 4
ENDMDL
MODEL 6
REMARK VINA RESULT:    -6.308      3.206      6.485
REMARK INTER + INTRA:          -8.334
REMARK INTER:                  -7.899
REMARK INTRA:                  -0.436
REMARK UNBOUND:                -0.735
REMARK  Name = 
REMARK  4 active torsions:
REMARK  status: ('A' for Active; 'I' for Inactive)
REMARK    1  A    between atoms: O_1  and  C_2
REMARK    2  A    between atoms: C_5  and  C_6
REMARK    3  A    between atoms: C_6  and  C_7
REMARK    4  A    between atoms: C_11  and  C_12
REMARK                            x       y       z     vdW  Elec       q    Type
REMARK                         _______ _______ _______ _____ _____    ______ ____
ROOT
ATOM      1  C   UNL     1      44.967   6.624  11.611  0.00  0.00    +0.000 A 
ATOM      2  C   UNL     1      43.651   6.371  12.029  0.00  0.00    +0.000 A 
ATOM      3  C   UNL     1      42.926   5.298  11.518  0.00  0.00    +0.000 A 
ATOM      4  C   UNL     1      43.509   4.445  10.579  0.00  0.00    +0.000 A 
ATOM      5  C   UNL     1      44.841   4.620  10.169  0.00  0.00    +0.000 A 
ATOM      6  C   UNL     1      45.558   5.692  10.734  0.00  0.00    +0.000 A 
ENDROOT
BRANCH   5   7
ATOM      7  C   UNL     1      45.443   3.772   9.122  0.00  0.00    +0.000 A 
ATOM      8  C   UNL     1      46.091   4.325   8.007  0.00  0.00    +0.000 A 
ATOM      9  C   UNL     1      46.683   3.502   7.050  0.00  0.00    +0.000 A 
ATOM     10  C   UNL     1      46.625   2.134   7.234  0.00  0.00    +0.000 A 
ATOM     11  N   UNL     1      46.021   1.547   8.287  0.00  0.00    +0.000 NA
ATOM     12  C   UNL     1      45.445   2.378   9.195  0.00  0.00    +0.000 A 
ENDBRANCH   5   7
BRANCH   1  13
ATOM     13  C   UNL     1      45.662   7.947  11.948  0.00  0.00    +0.000 C 
ATOM     14  C   UNL     1      45.217   9.185  11.163  0.00  0.00    +0.000 C 
ATOM     15  C   UNL     1      44.746   9.013  12.564  0.00  0.00    +0.000 C 
BRANCH  13  19
ATOM     16  C   UNL     1      49.818   7.709  13.212  0.00  0.00    +0.000 A 
ATOM     17  C   UNL     1      48.853   6.977  13.890  0.00  0.00    +0.000 A 
ATOM     18  C   UNL     1      47.509   7.083  13.505  0.00  0.00    +0.000 A 
ATOM     19  C   UNL     1      47.111   7.907  12.437  0.00  0.00    +0.000 A 
ATOM     20  C   UNL     1      48.118   8.650  11.792  0.00  0.00    +0.000 A 
ATOM     21  C   UNL     1      49.459   8.552  12.170  0.00  0.00    +0.000 A 
BRANCH  16  22
ATOM     22  O   UNL     1      51.139   7.623  13.533  0.00  0.00    +0.000 OA
ATOM     23  H   UNL     1      51.337   6.709  13.795  0.00  0.00    +0.000 HD
ENDBRANCH  16  22
ENDBRANCH  13  19
ENDBRANCH   1  13
TORSDOF 4
ENDMDL
MODEL 7
REMARK VINA RESULT:    -6.225      4.536      7.669
REMARK INTER + INTRA:          -8.234
REMARK INTER:                  -7.517
REMARK INTRA:                  -0.717
REMARK UNBOUND:                -0.735
REMARK  Name = 
REMARK  4 active torsions:
REMARK  status: ('A' for Active; 'I' for Inactive)
REMARK    1  A    between atoms: O_1  and  C_2
REMARK    2  A    between atoms: C_5  and  C_6
REMARK    3  A    between atoms: C_6  and  C_7
REMARK    4  A    between atoms: C_11  and  C_12
REMARK                            x       y       z     vdW  Elec       q    Type
REMARK                         _______ _______ _______ _____ _____    ______ ____
ROOT
ATOM      1  C   UNL     1      48.855   6.373  15.760  0.00  0.00    +0.000 A 
ATOM      2  C   UNL     1      49.659   7.303  15.085  0.00  0.00    +0.000 A 
ATOM      3  C   UNL     1      49.474   7.567  13.730  0.00  0.00    +0.000 A 
ATOM      4  C   UNL     1      48.468   6.907  13.022  0.00  0.00    +0.000 A 
ATOM      5  C   UNL     1      47.600   6.009  13.662  0.00  0.00    +0.000 A 
ATOM      6  C   UNL     1      47.789   5.794  15.040  0.00  0.00    +0.000 A 
ENDROOT
BRANCH   5   7
ATOM      7  C   UNL     1      46.583   5.250  12.908  0.00  0.00    +0.000 A 
ATOM      8  C   UNL     1      45.972   5.776  11.759  0.00  0.00    +0.000 A 
ATOM      9  C   UNL     1      45.041   5.025  11.043  0.00  0.00    +0.000 A 
ATOM     10  C   UNL     1      44.745   3.750  11.488  0.00  0.00    +0.000 A 
ATOM     11  N   UNL     1      45.304   3.192  12.580  0.00  0.00    +0.000 NA
ATOM     12  C   UNL     1      46.200   3.955  13.260  0.00  0.00    +0.000 A 
ENDBRANCH   5   7
BRANCH   1  13
ATOM     13  C   UNL     1      49.229   5.874  17.159  0.00  0.00    +0.000 C 
ATOM     14  C   UNL     1      49.679   6.928  18.176  0.00  0.00    +0.000 C 
ATOM     15  C   UNL     1      48.306   6.364  18.282  0.00  0.00    +0.000 C 
BRANCH  13  19
ATOM     16  C   UNL     1      50.956   1.887  17.397  0.00  0.00    +0.000 A 
ATOM     17  C   UNL     1      49.626   2.037  17.027  0.00  0.00    +0.000 A 
ATOM     18  C   UNL     1      49.061   3.319  16.986  0.00  0.00    +0.000 A 
ATOM     19  C   UNL     1      49.812   4.466  17.302  0.00  0.00    +0.000 A 
ATOM     20  C   UNL     1      51.149   4.269  17.695  0.00  0.00    +0.000 A 
ATOM     21  C   UNL     1      51.720   2.994  17.740  0.00  0.00    +0.000 A 
BRANCH  16  22
ATOM     22  O   UNL     1      51.558   0.666  17.430  0.00  0.00    +0.000 OA
ATOM     23  H   UNL     1      52.222   0.666  18.138  0.00  0.00    +0.000 HD
ENDBRANCH  16  22
ENDBRANCH  13  19
ENDBRANCH   1  13
TORSDOF 4
ENDMDL
MODEL 8
REMARK VINA RESULT:    -5.950      3.754      7.280
REMARK INTER + INTRA:          -7.903
REMARK INTER:                  -7.610
REMARK INTRA:                  -0.293
REMARK UNBOUND:                -0.735
REMARK  Name = 
REMARK  4 active torsions:
REMARK  status: ('A' for Active; 'I' for Inactive)
REMARK    1  A    between atoms: O_1  and  C_2
REMARK    2  A    between atoms: C_5  and  C_6
REMARK    3  A    between atoms: C_6  and  C_7
REMARK    4  A    between atoms: C_11  and  C_12
REMARK                            x       y       z     vdW  Elec       q    Type
REMARK                         _______ _______ _______ _____ _____    ______ ____
ROOT
ATOM      1  C   UNL     1      47.219   7.533  12.397  0.00  0.00    +0.000 A 
ATOM      2  C   UNL     1      46.280   8.560  12.580  0.00  0.00    +0.000 A 
ATOM      3  C   UNL     1      44.985   8.452  12.082  0.00  0.00    +0.000 A 
ATOM      4  C   UNL     1      44.596   7.301  11.394  0.00  0.00    +0.000 A 
ATOM      5  C   UNL     1      45.478   6.220  11.233  0.00  0.00    +0.000 A 
ATOM      6  C   UNL     1      46.768   6.347  11.781  0.00  0.00    +0.000 A 
ENDROOT
BRANCH   5   7
ATOM      7  C   UNL     1      45.103   5.031  10.443  0.00  0.00    +0.000 A 
ATOM      8  C   UNL     1      45.497   4.880   9.104  0.00  0.00    +0.000 A 
ATOM      9  C   UNL     1      45.161   3.731   8.390  0.00  0.00    +0.000 A 
ATOM     10  C   UNL     1      44.441   2.743   9.037  0.00  0.00    +0.000 A 
ATOM     11  N   UNL     1      44.041   2.831  10.321  0.00  0.00    +0.000 NA
ATOM     12  C   UNL     1      44.376   3.969  10.985  0.00  0.00    +0.000 A 
ENDBRANCH   5   7
BRANCH   1  13
ATOM     13  C   UNL     1      48.705   7.760  12.688  0.00  0.00    +0.000 C 
ATOM     14  C   UNL     1      49.668   7.663  11.499  0.00  0.00    +0.000 C 
ATOM     15  C   UNL     1      49.304   9.007  12.024  0.00  0.00    +0.000 C 
BRANCH  13  19
ATOM     16  C   UNL     1      50.319   6.516  16.532  0.00  0.00    +0.000 A 
ATOM     17  C   UNL     1      48.997   6.230  16.219  0.00  0.00    +0.000 A 
ATOM     18  C   UNL     1      48.468   6.663  14.995  0.00  0.00    +0.000 A 
ATOM     19  C   UNL     1      49.248   7.375  14.066  0.00  0.00    +0.000 A 
ATOM     20  C   UNL     1      50.576   7.665  14.432  0.00  0.00    +0.000 A 
ATOM     21  C   UNL     1      51.111   7.239  15.650  0.00  0.00    +0.000 A 
BRANCH  16  22
ATOM     22  O   UNL     1      50.886   6.098  17.698  0.00  0.00    +0.000 OA
ATOM     23  H   UNL     1      50.233   5.575  18.191  0.00  0.00    +0.000 HD
ENDBRANCH  16  22
ENDBRANCH  13  19
ENDBRANCH   1  13
TORSDOF 4
ENDMDL
MODEL 9
REMARK VINA RESULT:    -5.935      3.747      5.789
REMARK INTER + INTRA:          -7.884
REMARK INTER:                  -7.307
REMARK INTRA:                  -0.578
REMARK UNBOUND:                -0.735
REMARK  Name = 
REMARK  4 active torsions:
REMARK  status: ('A' for Active; 'I' for Inactive)
REMARK    1  A    between atoms: O_1  and  C_2
REMARK    2  A    between atoms: C_5  and  C_6
REMARK    3  A    between atoms: C_6  and  C_7
REMARK    4  A    between atoms: C_11  and  C_12
REMARK                            x       y       z     vdW  Elec       q    Type
REMARK                         _______ _______ _______ _____ _____    ______ ____
ROOT
ATOM      1  C   UNL     1      46.353   8.824  12.158  0.00  0.00    +0.000 A 
ATOM      2  C   UNL     1      47.376   9.784  12.115  0.00  0.00    +0.000 A 
ATOM      3  C   UNL     1      47.129  11.081  11.671  0.00  0.00    +0.000 A 
ATOM      4  C   UNL     1      45.844  11.448  11.269  0.00  0.00    +0.000 A 
ATOM      5  C   UNL     1      44.773  10.543  11.346  0.00  0.00    +0.000 A 
ATOM      6  C   UNL     1      45.049   9.252  11.834  0.00  0.00    +0.000 A 
ENDROOT
BRANCH   5   7
ATOM      7  C   UNL     1      43.428  10.896  10.852  0.00  0.00    +0.000 A 
ATOM      8  C   UNL     1      43.173  12.123  10.220  0.00  0.00    +0.000 A 
ATOM      9  C   UNL     1      41.902  12.419   9.730  0.00  0.00    +0.000 A 
ATOM     10  C   UNL     1      40.907  11.470   9.873  0.00  0.00    +0.000 A 
ATOM     11  N   UNL     1      41.094  10.274  10.466  0.00  0.00    +0.000 NA
ATOM     12  C   UNL     1      42.343  10.023  10.941  0.00  0.00    +0.000 A 
ENDBRANCH   5   7
BRANCH   1  13
ATOM     13  C   UNL     1      46.671   7.340  12.370  0.00  0.00    +0.000 C 
ATOM     14  C   UNL     1      48.132   6.912  12.197  0.00  0.00    +0.000 C 
ATOM     15  C   UNL     1      47.579   7.046  13.572  0.00  0.00    +0.000 C 
BRANCH  13  19
ATOM     16  C   UNL     1      43.705   4.275  11.513  0.00  0.00    +0.000 A 
ATOM     17  C   UNL     1      44.610   4.647  10.528  0.00  0.00    +0.000 A 
ATOM     18  C   UNL     1      45.542   5.661  10.794  0.00  0.00    +0.000 A 
ATOM     19  C   UNL     1      45.592   6.307  12.042  0.00  0.00    +0.000 A 
ATOM     20  C   UNL     1      44.641   5.917  13.004  0.00  0.00    +0.000 A 
ATOM     21  C   UNL     1      43.708   4.909  12.748  0.00  0.00    +0.000 A 
BRANCH  16  22
ATOM     22  O   UNL     1      42.796   3.281  11.312  0.00  0.00    +0.000 OA
ATOM     23  H   UNL     1      42.021   3.450  11.873  0.00  0.00    +0.000 HD
ENDBRANCH  16  22
ENDBRANCH  13  19
ENDBRANCH   1  13
TORSDOF 4
ENDMDL
