MODEL 1
REMARK VINA RESULT:    -8.556      0.000      0.000
REMARK INTER + INTRA:         -12.568
REMARK INTER:                 -11.558
REMARK INTRA:                  -1.011
REMARK UNBOUND:                -1.011
REMARK  Name = 
REMARK  6 active torsions:
REMARK  status: ('A' for Active; 'I' for Inactive)
REMARK    1  A    between atoms: C_2  and  C_4
REMARK    2  A    between atoms: C_7  and  O_8
REMARK    3  A    between atoms: O_8  and  C_9
REMARK    4  A    between atoms: C_9  and  C_10
REMARK    5  A    between atoms: C_11  and  C_12
REMARK    6  A    between atoms: C_14  and  C_15
REMARK                            x       y       z     vdW  Elec       q    Type
REMARK                         _______ _______ _______ _____ _____    ______ ____
ROOT
ATOM      1  C   UNL     1      44.827   3.351  12.128  0.00  0.00    +0.000 C 
ATOM      2  C   UNL     1      44.941   4.663  12.394  0.00  0.00    +0.000 C 
ENDROOT
BRANCH   2   3
ATOM      3  C   UNL     1      46.108   5.266  13.056  0.00  0.00    +0.000 A 
ATOM      4  C   UNL     1      46.514   4.873  14.341  0.00  0.00    +0.000 A 
ATOM      5  C   UNL     1      47.663   5.396  14.964  0.00  0.00    +0.000 A 
ATOM      6  C   UNL     1      48.378   6.387  14.267  0.00  0.00    +0.000 A 
ATOM      7  C   UNL     1      47.957   6.835  13.011  0.00  0.00    +0.000 A 
ATOM      8  C   UNL     1      46.832   6.274  12.417  0.00  0.00    +0.000 A 
ATOM      9  F   UNL     1      46.464   6.712  11.203  0.00  0.00    +0.000 F 
BRANCH   5  10
ATOM     10  C   UNL     1      48.096   4.905  16.295  0.00  0.00    +0.000 A 
ATOM     11  C   UNL     1      48.858   5.715  17.162  0.00  0.00    +0.000 A 
ATOM     12  C   UNL     1      49.279   5.256  18.415  0.00  0.00    +0.000 A 
ATOM     13  C   UNL     1      48.932   3.978  18.837  0.00  0.00    +0.000 A 
ATOM     14  C   UNL     1      48.174   3.159  18.006  0.00  0.00    +0.000 A 
ATOM     15  C   UNL     1      47.768   3.616  16.748  0.00  0.00    +0.000 A 
ENDBRANCH   5  10
ENDBRANCH   2   3
BRANCH   1  16
ATOM     16  C   UNL     1      43.675   2.737  11.400  0.00  0.00    +0.000 C 
BRANCH  16  17
ATOM     17  O   UNL     1      43.521   3.430  10.159  0.00  0.00    +0.000 OA
BRANCH  17  21
ATOM     18  C   UNL     1      46.559   2.619   7.505  0.00  0.00    +0.000 A 
ATOM     19  C   UNL     1      46.132   3.937   7.681  0.00  0.00    +0.000 A 
ATOM     20  C   UNL     1      45.101   4.202   8.588  0.00  0.00    +0.000 A 
ATOM     21  C   UNL     1      44.545   3.140   9.284  0.00  0.00    +0.000 A 
ATOM     22  N   UNL     1      44.939   1.856   9.127  0.00  0.00    +0.000 NA
ATOM     23  C   UNL     1      45.929   1.624   8.238  0.00  0.00    +0.000 A 
BRANCH  18  25
ATOM     24  N   UNL     1      47.765   2.963   5.426  0.00  0.00    +0.000 N 
ATOM     25  C   UNL     1      47.620   2.220   6.561  0.00  0.00    +0.000 C 
ATOM     26  O   UNL     1      48.371   1.285   6.806  0.00  0.00    +0.000 OA
ATOM     27  H   UNL     1      48.572   2.743   4.854  0.00  0.00    +0.000 HD
ATOM     28  H   UNL     1      47.350   3.877   5.314  0.00  0.00    +0.000 HD
ENDBRANCH  18  25
ENDBRANCH  17  21
ENDBRANCH  16  17
ENDBRANCH   1  16
TORSDOF 6
ENDMDL
MODEL 2
REMARK VINA RESULT:    -8.124      1.943      4.083
REMARK INTER + INTRA:         -11.984
REMARK INTER:                 -10.947
REMARK INTRA:                  -1.037
REMARK UNBOUND:                -1.011
REMARK  Name = 
REMARK  6 active torsions:
REMARK  status: ('A' for Active; 'I' for Inactive)
REMARK    1  A    between atoms: C_2  and  C_4
REMARK    2  A    between atoms: C_7  and  O_8
REMARK    3  A    between atoms: O_8  and  C_9
REMARK    4  A    between atoms: C_9  and  C_10
REMARK    5  A    between atoms: C_11  and  C_12
REMARK    6  A    between atoms: C_14  and  C_15
REMARK                            x       y       z     vdW  Elec       q    Type
REMARK                         _______ _______ _______ _____ _____    ______ ____
ROOT
ATOM      1  C   UNL     1      44.980   4.152  12.232  0.00  0.00    +0.000 C 
ATOM      2  C   UNL     1      45.947   3.886  13.126  0.00  0.00    +0.000 C 
ENDROOT
BRANCH   2   3
ATOM      3  C   UNL     1      46.858   4.903  13.674  0.00  0.00    +0.000 A 
ATOM      4  C   UNL     1      47.255   6.021  12.923  0.00  0.00    +0.000 A 
ATOM      5  C   UNL     1      48.077   7.034  13.452  0.00  0.00    +0.000 A 
ATOM      6  C   UNL     1      48.543   6.861  14.768  0.00  0.00    +0.000 A 
ATOM      7  C   UNL     1      48.207   5.727  15.513  0.00  0.00    +0.000 A 
ATOM      8  C   UNL     1      47.371   4.762  14.964  0.00  0.00    +0.000 A 
ATOM      9  F   UNL     1      47.052   3.693  15.710  0.00  0.00    +0.000 F 
BRANCH   5  10
ATOM     10  C   UNL     1      48.419   8.232  12.648  0.00  0.00    +0.000 A 
ATOM     11  C   UNL     1      49.704   8.397  12.090  0.00  0.00    +0.000 A 
ATOM     12  C   UNL     1      50.038   9.529  11.339  0.00  0.00    +0.000 A 
ATOM     13  C   UNL     1      49.087  10.517  11.114  0.00  0.00    +0.000 A 
ATOM     14  C   UNL     1      47.810  10.378  11.646  0.00  0.00    +0.000 A 
ATOM     15  C   UNL     1      47.483   9.252  12.409  0.00  0.00    +0.000 A 
ENDBRANCH   5  10
ENDBRANCH   2   3
BRANCH   1  16
ATOM     16  C   UNL     1      44.008   3.138  11.718  0.00  0.00    +0.000 C 
BRANCH  16  17
ATOM     17  O   UNL     1      43.609   3.539  10.406  0.00  0.00    +0.000 OA
BRANCH  17  21
ATOM     18  C   UNL     1      46.458   2.695   7.560  0.00  0.00    +0.000 A 
ATOM     19  C   UNL     1      46.012   4.010   7.719  0.00  0.00    +0.000 A 
ATOM     20  C   UNL     1      45.046   4.286   8.691  0.00  0.00    +0.000 A 
ATOM     21  C   UNL     1      44.572   3.239   9.466  0.00  0.00    +0.000 A 
ATOM     22  N   UNL     1      44.985   1.960   9.327  0.00  0.00    +0.000 NA
ATOM     23  C   UNL     1      45.910   1.715   8.374  0.00  0.00    +0.000 A 
BRANCH  18  25
ATOM     24  N   UNL     1      47.494   2.985   5.382  0.00  0.00    +0.000 N 
ATOM     25  C   UNL     1      47.455   2.284   6.552  0.00  0.00    +0.000 C 
ATOM     26  O   UNL     1      48.247   1.378   6.774  0.00  0.00    +0.000 OA
ATOM     27  H   UNL     1      48.260   2.761   4.759  0.00  0.00    +0.000 HD
ATOM     28  H   UNL     1      47.047   3.884   5.268  0.00  0.00    +0.000 HD
ENDBRANCH  18  25
ENDBRANCH  17  21
ENDBRANCH  16  17
ENDBRANCH   1  16
TORSDOF 6
ENDMDL
MODEL 3
REMARK VINA RESULT:    -8.010      3.401      4.918
REMARK INTER + INTRA:         -11.831
REMARK INTER:                 -10.897
REMARK INTRA:                  -0.933
REMARK UNBOUND:                -1.011
REMARK  Name = 
REMARK  6 active torsions:
REMARK  status: ('A' for Active; 'I' for Inactive)
REMARK    1  A    between atoms: C_2  and  C_4
REMARK    2  A    between atoms: C_7  and  O_8
REMARK    3  A    between atoms: O_8  and  C_9
REMARK    4  A    between atoms: C_9  and  C_10
REMARK    5  A    between atoms: C_11  and  C_12
REMARK    6  A    between atoms: C_14  and  C_15
REMARK                            x       y       z     vdW  Elec       q    Type
REMARK                         _______ _______ _______ _____ _____    ______ ____
ROOT
ATOM      1  C   UNL     1      45.364   6.161  11.273  0.00  0.00    +0.000 C 
ATOM      2  C   UNL     1      46.392   6.317  12.123  0.00  0.00    +0.000 C 
ENDROOT
BRANCH   2   3
ATOM      3  C   UNL     1      47.254   7.509  12.155  0.00  0.00    +0.000 A 
ATOM      4  C   UNL     1      48.598   7.461  11.752  0.00  0.00    +0.000 A 
ATOM      5  C   UNL     1      49.419   8.605  11.720  0.00  0.00    +0.000 A 
ATOM      6  C   UNL     1      48.855   9.814  12.165  0.00  0.00    +0.000 A 
ATOM      7  C   UNL     1      47.536   9.872  12.625  0.00  0.00    +0.000 A 
ATOM      8  C   UNL     1      46.749   8.726  12.616  0.00  0.00    +0.000 A 
ATOM      9  F   UNL     1      45.481   8.818  13.047  0.00  0.00    +0.000 F 
BRANCH   5  10
ATOM     10  C   UNL     1      50.814   8.524  11.224  0.00  0.00    +0.000 A 
ATOM     11  C   UNL     1      51.283   7.385  10.538  0.00  0.00    +0.000 A 
ATOM     12  C   UNL     1      52.600   7.295  10.077  0.00  0.00    +0.000 A 
ATOM     13  C   UNL     1      53.478   8.353  10.278  0.00  0.00    +0.000 A 
ATOM     14  C   UNL     1      53.042   9.493  10.945  0.00  0.00    +0.000 A 
ATOM     15  C   UNL     1      51.728   9.574  11.418  0.00  0.00    +0.000 A 
ENDBRANCH   5  10
ENDBRANCH   2   3
BRANCH   1  16
ATOM     16  C   UNL     1      44.444   4.982  11.274  0.00  0.00    +0.000 C 
BRANCH  16  17
ATOM     17  O   UNL     1      43.933   4.823   9.949  0.00  0.00    +0.000 OA
BRANCH  17  21
ATOM     18  C   UNL     1      46.436   2.476   7.679  0.00  0.00    +0.000 A 
ATOM     19  C   UNL     1      45.607   1.877   8.631  0.00  0.00    +0.000 A 
ATOM     20  C   UNL     1      44.758   2.684   9.395  0.00  0.00    +0.000 A 
ATOM     21  C   UNL     1      44.769   4.052   9.171  0.00  0.00    +0.000 A 
ATOM     22  N   UNL     1      45.566   4.653   8.259  0.00  0.00    +0.000 NA
ATOM     23  C   UNL     1      46.385   3.855   7.541  0.00  0.00    +0.000 A 
BRANCH  18  25
ATOM     24  N   UNL     1      48.455   2.411   6.330  0.00  0.00    +0.000 N 
ATOM     25  C   UNL     1      47.387   1.727   6.833  0.00  0.00    +0.000 C 
ATOM     26  O   UNL     1      47.248   0.529   6.627  0.00  0.00    +0.000 OA
ATOM     27  H   UNL     1      49.153   1.852   5.854  0.00  0.00    +0.000 HD
ATOM     28  H   UNL     1      48.743   3.313   6.683  0.00  0.00    +0.000 HD
ENDBRANCH  18  25
ENDBRANCH  17  21
ENDBRANCH  16  17
ENDBRANCH   1  16
TORSDOF 6
ENDMDL
MODEL 4
REMARK VINA RESULT:    -7.831      3.093      5.285
REMARK INTER + INTRA:         -11.589
REMARK INTER:                 -10.541
REMARK INTRA:                  -1.049
REMARK UNBOUND:                -1.011
REMARK  Name = 
REMARK  6 active torsions:
REMARK  status: ('A' for Active; 'I' for Inactive)
REMARK    1  A    between atoms: C_2  and  C_4
REMARK    2  A    between atoms: C_7  and  O_8
REMARK    3  A    between atoms: O_8  and  C_9
REMARK    4  A    between atoms: C_9  and  C_10
REMARK    5  A    between atoms: C_11  and  C_12
REMARK    6  A    between atoms: C_14  and  C_15
REMARK                            x       y       z     vdW  Elec       q    Type
REMARK                         _______ _______ _______ _____ _____    ______ ____
ROOT
ATOM      1  C   UNL     1      44.505   5.067  11.765  0.00  0.00    +0.000 C 
ATOM      2  C   UNL     1      45.802   5.343  11.984  0.00  0.00    +0.000 C 
ENDROOT
BRANCH   2   3
ATOM      3  C   UNL     1      46.300   6.666  12.388  0.00  0.00    +0.000 A 
ATOM      4  C   UNL     1      45.706   7.852  11.927  0.00  0.00    +0.000 A 
ATOM      5  C   UNL     1      46.132   9.126  12.351  0.00  0.00    +0.000 A 
ATOM      6  C   UNL     1      47.229   9.177  13.229  0.00  0.00    +0.000 A 
ATOM      7  C   UNL     1      47.872   8.011  13.655  0.00  0.00    +0.000 A 
ATOM      8  C   UNL     1      47.405   6.771  13.235  0.00  0.00    +0.000 A 
ATOM      9  F   UNL     1      48.032   5.669  13.675  0.00  0.00    +0.000 F 
BRANCH   5  10
ATOM     10  C   UNL     1      45.434  10.351  11.892  0.00  0.00    +0.000 A 
ATOM     11  C   UNL     1      46.127  11.567  11.718  0.00  0.00    +0.000 A 
ATOM     12  C   UNL     1      45.475  12.730  11.295  0.00  0.00    +0.000 A 
ATOM     13  C   UNL     1      44.113  12.700  11.020  0.00  0.00    +0.000 A 
ATOM     14  C   UNL     1      43.405  11.513  11.175  0.00  0.00    +0.000 A 
ATOM     15  C   UNL     1      44.057  10.355  11.613  0.00  0.00    +0.000 A 
ENDBRANCH   5  10
ENDBRANCH   2   3
BRANCH   1  16
ATOM     16  C   UNL     1      43.982   3.710  11.416  0.00  0.00    +0.000 C 
BRANCH  16  17
ATOM     17  O   UNL     1      43.529   3.750  10.062  0.00  0.00    +0.000 OA
BRANCH  17  21
ATOM     18  C   UNL     1      46.523   2.612   7.478  0.00  0.00    +0.000 A 
ATOM     19  C   UNL     1      45.948   1.663   8.327  0.00  0.00    +0.000 A 
ATOM     20  C   UNL     1      44.929   2.059   9.199  0.00  0.00    +0.000 A 
ATOM     21  C   UNL     1      44.524   3.385   9.181  0.00  0.00    +0.000 A 
ATOM     22  N   UNL     1      45.069   4.321   8.372  0.00  0.00    +0.000 NA
ATOM     23  C   UNL     1      46.059   3.917   7.546  0.00  0.00    +0.000 A 
BRANCH  18  25
ATOM     24  N   UNL     1      47.688   3.057   5.394  0.00  0.00    +0.000 N 
ATOM     25  C   UNL     1      47.618   2.313   6.535  0.00  0.00    +0.000 C 
ATOM     26  O   UNL     1      48.458   1.459   6.787  0.00  0.00    +0.000 OA
ATOM     27  H   UNL     1      48.512   2.914   4.823  0.00  0.00    +0.000 HD
ATOM     28  H   UNL     1      47.184   3.925   5.275  0.00  0.00    +0.000 HD
ENDBRANCH  18  25
ENDBRANCH  17  21
ENDBRANCH  16  17
ENDBRANCH   1  16
TORSDOF 6
ENDMDL
MODEL 5
REMARK VINA RESULT:    -7.687      2.322      3.263
REMARK INTER + INTRA:         -11.394
REMARK INTER:                 -10.425
REMARK INTRA:                  -0.969
REMARK UNBOUND:                -1.011
REMARK  Name = 
REMARK  6 active torsions:
REMARK  status: ('A' for Active; 'I' for Inactive)
REMARK    1  A    between atoms: C_2  and  C_4
REMARK    2  A    between atoms: C_7  and  O_8
REMARK    3  A    between atoms: O_8  and  C_9
REMARK    4  A    between atoms: C_9  and  C_10
REMARK    5  A    between atoms: C_11  and  C_12
REMARK    6  A    between atoms: C_14  and  C_15
REMARK                            x       y       z     vdW  Elec       q    Type
REMARK                         _______ _______ _______ _____ _____    ______ ____
ROOT
ATOM      1  C   UNL     1      44.833   4.677  11.888  0.00  0.00    +0.000 C 
ATOM      2  C   UNL     1      44.439   5.934  11.621  0.00  0.00    +0.000 C 
ENDROOT
BRANCH   2   3
ATOM      3  C   UNL     1      45.230   7.128  11.956  0.00  0.00    +0.000 A 
ATOM      4  C   UNL     1      46.465   7.035  12.618  0.00  0.00    +0.000 A 
ATOM      5  C   UNL     1      47.263   8.162  12.892  0.00  0.00    +0.000 A 
ATOM      6  C   UNL     1      46.748   9.418  12.523  0.00  0.00    +0.000 A 
ATOM      7  C   UNL     1      45.495   9.539  11.917  0.00  0.00    +0.000 A 
ATOM      8  C   UNL     1      44.749   8.399  11.638  0.00  0.00    +0.000 A 
ATOM      9  F   UNL     1      43.557   8.545  11.038  0.00  0.00    +0.000 F 
BRANCH   5  10
ATOM     10  C   UNL     1      48.591   8.014  13.533  0.00  0.00    +0.000 A 
ATOM     11  C   UNL     1      48.737   7.361  14.774  0.00  0.00    +0.000 A 
ATOM     12  C   UNL     1      49.985   7.226  15.391  0.00  0.00    +0.000 A 
ATOM     13  C   UNL     1      51.123   7.730  14.771  0.00  0.00    +0.000 A 
ATOM     14  C   UNL     1      51.011   8.372  13.543  0.00  0.00    +0.000 A 
ATOM     15  C   UNL     1      49.759   8.519  12.936  0.00  0.00    +0.000 A 
ENDBRANCH   5  10
ENDBRANCH   2   3
BRANCH   1  16
ATOM     16  C   UNL     1      44.066   3.455  11.495  0.00  0.00    +0.000 C 
BRANCH  16  17
ATOM     17  O   UNL     1      43.598   3.642  10.157  0.00  0.00    +0.000 OA
BRANCH  17  21
ATOM     18  C   UNL     1      46.494   2.586   7.432  0.00  0.00    +0.000 A 
ATOM     19  C   UNL     1      45.985   1.620   8.305  0.00  0.00    +0.000 A 
ATOM     20  C   UNL     1      44.999   1.989   9.224  0.00  0.00    +0.000 A 
ATOM     21  C   UNL     1      44.560   3.304   9.230  0.00  0.00    +0.000 A 
ATOM     22  N   UNL     1      45.041   4.255   8.399  0.00  0.00    +0.000 NA
ATOM     23  C   UNL     1      46.001   3.879   7.526  0.00  0.00    +0.000 A 
BRANCH  18  25
ATOM     24  N   UNL     1      47.490   2.993   5.254  0.00  0.00    +0.000 N 
ATOM     25  C   UNL     1      47.551   2.316   6.438  0.00  0.00    +0.000 C 
ATOM     26  O   UNL     1      48.472   1.548   6.681  0.00  0.00    +0.000 OA
ATOM     27  H   UNL     1      48.287   2.880   4.640  0.00  0.00    +0.000 HD
ATOM     28  H   UNL     1      46.911   3.810   5.121  0.00  0.00    +0.000 HD
ENDBRANCH  18  25
ENDBRANCH  17  21
ENDBRANCH  16  17
ENDBRANCH   1  16
TORSDOF 6
ENDMDL
MODEL 6
REMARK VINA RESULT:    -7.573      4.476      7.901
REMARK INTER + INTRA:         -11.241
REMARK INTER:                 -10.243
REMARK INTRA:                  -0.998
REMARK UNBOUND:                -1.011
REMARK  Name = 
REMARK  6 active torsions:
REMARK  status: ('A' for Active; 'I' for Inactive)
REMARK    1  A    between atoms: C_2  and  C_4
REMARK    2  A    between atoms: C_7  and  O_8
REMARK    3  A    between atoms: O_8  and  C_9
REMARK    4  A    between atoms: C_9  and  C_10
REMARK    5  A    between atoms: C_11  and  C_12
REMARK    6  A    between atoms: C_14  and  C_15
REMARK                            x       y       z     vdW  Elec       q    Type
REMARK                         _______ _______ _______ _____ _____    ______ ____
ROOT
ATOM      1  C   UNL     1      45.374   7.168  12.355  0.00  0.00    +0.000 C 
ATOM      2  C   UNL     1      44.494   6.743  11.433  0.00  0.00    +0.000 C 
ENDROOT
BRANCH   2   3
ATOM      3  C   UNL     1      44.350   5.336  11.027  0.00  0.00    +0.000 A 
ATOM      4  C   UNL     1      45.033   4.814   9.916  0.00  0.00    +0.000 A 
ATOM      5  C   UNL     1      44.954   3.457   9.549  0.00  0.00    +0.000 A 
ATOM      6  C   UNL     1      44.109   2.633  10.315  0.00  0.00    +0.000 A 
ATOM      7  C   UNL     1      43.376   3.145  11.389  0.00  0.00    +0.000 A 
ATOM      8  C   UNL     1      43.501   4.485  11.736  0.00  0.00    +0.000 A 
ATOM      9  F   UNL     1      42.798   4.943  12.784  0.00  0.00    +0.000 F 
BRANCH   5  10
ATOM     10  C   UNL     1      45.742   2.931   8.409  0.00  0.00    +0.000 A 
ATOM     11  C   UNL     1      46.148   1.582   8.359  0.00  0.00    +0.000 A 
ATOM     12  C   UNL     1      46.902   1.081   7.293  0.00  0.00    +0.000 A 
ATOM     13  C   UNL     1      47.255   1.917   6.240  0.00  0.00    +0.000 A 
ATOM     14  C   UNL     1      46.862   3.251   6.258  0.00  0.00    +0.000 A 
ATOM     15  C   UNL     1      46.121   3.753   7.333  0.00  0.00    +0.000 A 
ENDBRANCH   5  10
ENDBRANCH   2   3
BRANCH   1  16
ATOM     16  C   UNL     1      45.484   8.585  12.821  0.00  0.00    +0.000 C 
BRANCH  16  17
ATOM     17  O   UNL     1      46.614   8.675  13.690  0.00  0.00    +0.000 OA
BRANCH  17  21
ATOM     18  C   UNL     1      50.188   8.494  11.660  0.00  0.00    +0.000 A 
ATOM     19  C   UNL     1      49.910   7.549  12.651  0.00  0.00    +0.000 A 
ATOM     20  C   UNL     1      48.691   7.617  13.332  0.00  0.00    +0.000 A 
ATOM     21  C   UNL     1      47.800   8.623  12.991  0.00  0.00    +0.000 A 
ATOM     22  N   UNL     1      48.049   9.550  12.040  0.00  0.00    +0.000 NA
ATOM     23  C   UNL     1      49.237   9.471  11.402  0.00  0.00    +0.000 A 
BRANCH  18  25
ATOM     24  N   UNL     1      51.912   9.755  10.505  0.00  0.00    +0.000 N 
ATOM     25  C   UNL     1      51.449   8.532  10.893  0.00  0.00    +0.000 C 
ATOM     26  O   UNL     1      52.078   7.511  10.653  0.00  0.00    +0.000 OA
ATOM     27  H   UNL     1      52.834   9.765  10.085  0.00  0.00    +0.000 HD
ATOM     28  H   UNL     1      51.571  10.621  10.899  0.00  0.00    +0.000 HD
ENDBRANCH  18  25
ENDBRANCH  17  21
ENDBRANCH  16  17
ENDBRANCH   1  16
TORSDOF 6
ENDMDL
MODEL 7
REMARK VINA RESULT:    -7.254      5.009      8.409
REMARK INTER + INTRA:         -10.810
REMARK INTER:                  -9.883
REMARK INTRA:                  -0.926
REMARK UNBOUND:                -1.011
REMARK  Name = 
REMARK  6 active torsions:
REMARK  status: ('A' for Active; 'I' for Inactive)
REMARK    1  A    between atoms: C_2  and  C_4
REMARK    2  A    between atoms: C_7  and  O_8
REMARK    3  A    between atoms: O_8  and  C_9
REMARK    4  A    between atoms: C_9  and  C_10
REMARK    5  A    between atoms: C_11  and  C_12
REMARK    6  A    between atoms: C_14  and  C_15
REMARK                            x       y       z     vdW  Elec       q    Type
REMARK                         _______ _______ _______ _____ _____    ______ ____
ROOT
ATOM      1  C   UNL     1      45.493   6.991  12.576  0.00  0.00    +0.000 C 
ATOM      2  C   UNL     1      44.823   6.690  11.451  0.00  0.00    +0.000 C 
ENDROOT
BRANCH   2   3
ATOM      3  C   UNL     1      44.573   5.316  10.990  0.00  0.00    +0.000 A 
ATOM      4  C   UNL     1      45.235   4.779   9.874  0.00  0.00    +0.000 A 
ATOM      5  C   UNL     1      45.052   3.447   9.455  0.00  0.00    +0.000 A 
ATOM      6  C   UNL     1      44.125   2.669  10.173  0.00  0.00    +0.000 A 
ATOM      7  C   UNL     1      43.412   3.202  11.251  0.00  0.00    +0.000 A 
ATOM      8  C   UNL     1      43.640   4.514  11.650  0.00  0.00    +0.000 A 
ATOM      9  F   UNL     1      42.954   4.992  12.700  0.00  0.00    +0.000 F 
BRANCH   5  10
ATOM     10  C   UNL     1      45.820   2.898   8.312  0.00  0.00    +0.000 A 
ATOM     11  C   UNL     1      46.213   1.545   8.276  0.00  0.00    +0.000 A 
ATOM     12  C   UNL     1      46.947   1.022   7.206  0.00  0.00    +0.000 A 
ATOM     13  C   UNL     1      47.293   1.840   6.137  0.00  0.00    +0.000 A 
ATOM     14  C   UNL     1      46.913   3.178   6.142  0.00  0.00    +0.000 A 
ATOM     15  C   UNL     1      46.192   3.701   7.220  0.00  0.00    +0.000 A 
ENDBRANCH   5  10
ENDBRANCH   2   3
BRANCH   1  16
ATOM     16  C   UNL     1      45.697   8.382  13.086  0.00  0.00    +0.000 C 
BRANCH  16  17
ATOM     17  O   UNL     1      47.104   8.599  13.216  0.00  0.00    +0.000 OA
BRANCH  17  21
ATOM     18  C   UNL     1      48.543  11.331  10.497  0.00  0.00    +0.000 A 
ATOM     19  C   UNL     1      49.415  10.396  11.061  0.00  0.00    +0.000 A 
ATOM     20  C   UNL     1      48.915   9.470  11.981  0.00  0.00    +0.000 A 
ATOM     21  C   UNL     1      47.565   9.514  12.294  0.00  0.00    +0.000 A 
ATOM     22  N   UNL     1      46.704  10.412  11.765  0.00  0.00    +0.000 NA
ATOM     23  C   UNL     1      47.212  11.303  10.886  0.00  0.00    +0.000 A 
BRANCH  18  25
ATOM     24  N   UNL     1      48.003  12.902   8.725  0.00  0.00    +0.000 N 
ATOM     25  C   UNL     1      48.963  12.368   9.534  0.00  0.00    +0.000 C 
ATOM     26  O   UNL     1      50.120  12.765   9.492  0.00  0.00    +0.000 OA
ATOM     27  H   UNL     1      48.293  13.691   8.159  0.00  0.00    +0.000 HD
ATOM     28  H   UNL     1      47.015  12.795   8.904  0.00  0.00    +0.000 HD
ENDBRANCH  18  25
ENDBRANCH  17  21
ENDBRANCH  16  17
ENDBRANCH   1  16
TORSDOF 6
ENDMDL
MODEL 8
REMARK VINA RESULT:    -6.878      4.620      8.619
REMARK INTER + INTRA:         -10.302
REMARK INTER:                  -9.512
REMARK INTRA:                  -0.790
REMARK UNBOUND:                -1.011
REMARK  Name = 
REMARK  6 active torsions:
REMARK  status: ('A' for Active; 'I' for Inactive)
REMARK    1  A    between atoms: C_2  and  C_4
REMARK    2  A    between atoms: C_7  and  O_8
REMARK    3  A    between atoms: O_8  and  C_9
REMARK    4  A    between atoms: C_9  and  C_10
REMARK    5  A    between atoms: C_11  and  C_12
REMARK    6  A    between atoms: C_14  and  C_15
REMARK                            x       y       z     vdW  Elec       q    Type
REMARK                         _______ _______ _______ _____ _____    ______ ____
ROOT
ATOM      1  C   UNL     1      48.855   6.872  15.407  0.00  0.00    +0.000 C 
ATOM      2  C   UNL     1      48.815   6.980  14.068  0.00  0.00    +0.000 C 
ENDROOT
BRANCH   2   3
ATOM      3  C   UNL     1      47.577   7.168  13.298  0.00  0.00    +0.000 A 
ATOM      4  C   UNL     1      47.110   6.196  12.399  0.00  0.00    +0.000 A 
ATOM      5  C   UNL     1      45.896   6.334  11.699  0.00  0.00    +0.000 A 
ATOM      6  C   UNL     1      45.174   7.526  11.892  0.00  0.00    +0.000 A 
ATOM      7  C   UNL     1      45.650   8.531  12.738  0.00  0.00    +0.000 A 
ATOM      8  C   UNL     1      46.840   8.347  13.432  0.00  0.00    +0.000 A 
ATOM      9  F   UNL     1      47.261   9.323  14.251  0.00  0.00    +0.000 F 
BRANCH   5  10
ATOM     10  C   UNL     1      45.407   5.254  10.809  0.00  0.00    +0.000 A 
ATOM     11  C   UNL     1      45.701   5.251   9.430  0.00  0.00    +0.000 A 
ATOM     12  C   UNL     1      45.234   4.242   8.581  0.00  0.00    +0.000 A 
ATOM     13  C   UNL     1      44.473   3.200   9.096  0.00  0.00    +0.000 A 
ATOM     14  C   UNL     1      44.173   3.172  10.454  0.00  0.00    +0.000 A 
ATOM     15  C   UNL     1      44.628   4.190  11.298  0.00  0.00    +0.000 A 
ENDBRANCH   5  10
ENDBRANCH   2   3
BRANCH   1  16
ATOM     16  C   UNL     1      50.114   6.744  16.203  0.00  0.00    +0.000 C 
BRANCH  16  17
ATOM     17  O   UNL     1      49.794   6.076  17.425  0.00  0.00    +0.000 OA
BRANCH  17  21
ATOM     18  C   UNL     1      51.651   2.411  17.644  0.00  0.00    +0.000 A 
ATOM     19  C   UNL     1      52.319   3.550  18.102  0.00  0.00    +0.000 A 
ATOM     20  C   UNL     1      51.677   4.790  18.026  0.00  0.00    +0.000 A 
ATOM     21  C   UNL     1      50.395   4.839  17.502  0.00  0.00    +0.000 A 
ATOM     22  N   UNL     1      49.732   3.751  17.049  0.00  0.00    +0.000 NA
ATOM     23  C   UNL     1      50.376   2.566  17.122  0.00  0.00    +0.000 A 
BRANCH  18  25
ATOM     24  N   UNL     1      51.498   0.054  18.209  0.00  0.00    +0.000 N 
ATOM     25  C   UNL     1      52.238   1.057  17.654  0.00  0.00    +0.000 C 
ATOM     26  O   UNL     1      53.328   0.833  17.145  0.00  0.00    +0.000 OA
ATOM     27  H   UNL     1      51.870  -0.881  18.098  0.00  0.00    +0.000 HD
ATOM     28  H   UNL     1      50.510   0.144  18.398  0.00  0.00    +0.000 HD
ENDBRANCH  18  25
ENDBRANCH  17  21
ENDBRANCH  16  17
ENDBRANCH   1  16
TORSDOF 6
ENDMDL
MODEL 9
REMARK VINA RESULT:    -6.509      4.302      6.708
REMARK INTER + INTRA:          -9.802
REMARK INTER:                  -8.956
REMARK INTRA:                  -0.846
REMARK UNBOUND:                -1.011
REMARK  Name = 
REMARK  6 active torsions:
REMARK  status: ('A' for Active; 'I' for Inactive)
REMARK    1  A    between atoms: C_2  and  C_4
REMARK    2  A    between atoms: C_7  and  O_8
REMARK    3  A    between atoms: O_8  and  C_9
REMARK    4  A    between atoms: C_9  and  C_10
REMARK    5  A    between atoms: C_11  and  C_12
REMARK    6  A    between atoms: C_14  and  C_15
REMARK                            x       y       z     vdW  Elec       q    Type
REMARK                         _______ _______ _______ _____ _____    ______ ____
ROOT
ATOM      1  C   UNL     1      47.624   4.982  16.942  0.00  0.00    +0.000 C 
ATOM      2  C   UNL     1      47.436   4.784  18.258  0.00  0.00    +0.000 C 
ENDROOT
BRANCH   2   3
ATOM      3  C   UNL     1      47.667   5.815  19.281  0.00  0.00    +0.000 A 
ATOM      4  C   UNL     1      47.402   7.172  19.037  0.00  0.00    +0.000 A 
ATOM      5  C   UNL     1      47.559   8.164  20.024  0.00  0.00    +0.000 A 
ATOM      6  C   UNL     1      48.053   7.751  21.275  0.00  0.00    +0.000 A 
ATOM      7  C   UNL     1      48.379   6.415  21.521  0.00  0.00    +0.000 A 
ATOM      8  C   UNL     1      48.184   5.461  20.529  0.00  0.00    +0.000 A 
ATOM      9  F   UNL     1      48.489   4.182  20.801  0.00  0.00    +0.000 F 
BRANCH   5  10
ATOM     10  C   UNL     1      47.205   9.576  19.745  0.00  0.00    +0.000 A 
ATOM     11  C   UNL     1      46.298  10.279  20.565  0.00  0.00    +0.000 A 
ATOM     12  C   UNL     1      45.949  11.608  20.302  0.00  0.00    +0.000 A 
ATOM     13  C   UNL     1      46.514  12.272  19.220  0.00  0.00    +0.000 A 
ATOM     14  C   UNL     1      47.418  11.606  18.399  0.00  0.00    +0.000 A 
ATOM     15  C   UNL     1      47.753  10.272  18.655  0.00  0.00    +0.000 A 
ENDBRANCH   5  10
ENDBRANCH   2   3
BRANCH   1  16
ATOM     16  C   UNL     1      47.332   3.961  15.889  0.00  0.00    +0.000 C 
BRANCH  16  17
ATOM     17  O   UNL     1      47.833   4.458  14.646  0.00  0.00    +0.000 OA
BRANCH  17  21
ATOM     18  C   UNL     1      44.818   4.960  11.891  0.00  0.00    +0.000 A 
ATOM     19  C   UNL     1      45.532   6.074  12.342  0.00  0.00    +0.000 A 
ATOM     20  C   UNL     1      46.556   5.891  13.276  0.00  0.00    +0.000 A 
ATOM     21  C   UNL     1      46.828   4.604  13.715  0.00  0.00    +0.000 A 
ATOM     22  N   UNL     1      46.149   3.514  13.296  0.00  0.00    +0.000 NA
ATOM     23  C   UNL     1      45.156   3.716  12.402  0.00  0.00    +0.000 A 
BRANCH  18  25
ATOM     24  N   UNL     1      43.972   4.715   9.628  0.00  0.00    +0.000 N 
ATOM     25  C   UNL     1      43.704   5.036  10.927  0.00  0.00    +0.000 C 
ATOM     26  O   UNL     1      42.572   5.333  11.284  0.00  0.00    +0.000 OA
ATOM     27  H   UNL     1      43.170   4.660   9.012  0.00  0.00    +0.000 HD
ATOM     28  H   UNL     1      44.809   4.223   9.348  0.00  0.00    +0.000 HD
ENDBRANCH  18  25
ENDBRANCH  17  21
ENDBRANCH  16  17
ENDBRANCH   1  16
TORSDOF 6
ENDMDL
