MODEL 1
REMARK VINA RESULT:    -7.457      0.000      0.000
REMARK INTER + INTRA:         -10.698
REMARK INTER:                 -10.073
REMARK INTRA:                  -0.625
REMARK UNBOUND:                -0.625
REMARK  Name = 
REMARK  7 active torsions:
REMARK  status: ('A' for Active; 'I' for Inactive)
REMARK    1  A    between atoms: C_1  and  O_2
REMARK    2  A    between atoms: O_2  and  C_3
REMARK    3  A    between atoms: C_6  and  C_7
REMARK    4  A    between atoms: C_7  and  C_8
REMARK    5  A    between atoms: C_8  and  O_9
REMARK    6  A    between atoms: O_9  and  C_10
REMARK    7  A    between atoms: C_13  and  C_14
REMARK                            x       y       z     vdW  Elec       q    Type
REMARK                         _______ _______ _______ _____ _____    ______ ____
ROOT
ATOM      1  O   UNL     1      43.646   4.650   9.888  0.00  0.00    +0.000 OA
ENDROOT
BRANCH   1   2
ATOM      2  C   UNL     1      44.590   3.941   9.168  0.00  0.00    +0.000 A 
ATOM      3  C   UNL     1      44.678   2.561   9.344  0.00  0.00    +0.000 A 
ATOM      4  N   UNL     1      45.566   1.781   8.663  0.00  0.00    +0.000 NA
ATOM      5  C   UNL     1      46.367   2.465   7.793  0.00  0.00    +0.000 A 
ATOM      6  C   UNL     1      46.282   3.835   7.624  0.00  0.00    +0.000 A 
ATOM      7  N   UNL     1      45.396   4.600   8.306  0.00  0.00    +0.000 NA
BRANCH   5   8
ATOM      8  C   UNL     1      47.362   1.706   6.990  0.00  0.00    +0.000 C 
ATOM      9  N   UNL     1      48.417   2.420   6.491  0.00  0.00    +0.000 N 
ATOM     10  O   UNL     1      47.252   0.504   6.786  0.00  0.00    +0.000 OA
ATOM     11  H   UNL     1      48.497   3.416   6.670  0.00  0.00    +0.000 HD
ATOM     12  H   UNL     1      49.119   1.941   5.947  0.00  0.00    +0.000 HD
ENDBRANCH   5   8
ENDBRANCH   1   2
BRANCH   1  13
ATOM     13  C   UNL     1      43.251   3.948  11.080  0.00  0.00    +0.000 C 
BRANCH  13  14
ATOM     14  C   UNL     1      43.314   4.884  12.284  0.00  0.00    +0.000 C 
BRANCH  14  18
ATOM     15  C   UNL     1      47.404   5.793  13.387  0.00  0.00    +0.000 A 
ATOM     16  C   UNL     1      46.882   4.518  13.599  0.00  0.00    +0.000 A 
ATOM     17  C   UNL     1      45.557   4.231  13.253  0.00  0.00    +0.000 A 
ATOM     18  C   UNL     1      44.736   5.211  12.682  0.00  0.00    +0.000 A 
ATOM     19  C   UNL     1      45.255   6.498  12.501  0.00  0.00    +0.000 A 
ATOM     20  C   UNL     1      46.581   6.784  12.847  0.00  0.00    +0.000 A 
BRANCH  15  22
ATOM     21  C   UNL     1      49.259   7.152  12.788  0.00  0.00    +0.000 C 
ATOM     22  O   UNL     1      48.684   6.190  13.665  0.00  0.00    +0.000 OA
ENDBRANCH  15  22
ENDBRANCH  14  18
ENDBRANCH  13  14
ENDBRANCH   1  13
TORSDOF 6
ENDMDL
MODEL 2
REMARK VINA RESULT:    -6.719      2.815      6.088
REMARK INTER + INTRA:          -9.700
REMARK INTER:                  -9.056
REMARK INTRA:                  -0.644
REMARK UNBOUND:                -0.625
REMARK  Name = 
REMARK  7 active torsions:
REMARK  status: ('A' for Active; 'I' for Inactive)
REMARK    1  A    between atoms: C_1  and  O_2
REMARK    2  A    between atoms: O_2  and  C_3
REMARK    3  A    between atoms: C_6  and  C_7
REMARK    4  A    between atoms: C_7  and  C_8
REMARK    5  A    between atoms: C_8  and  O_9
REMARK    6  A    between atoms: O_9  and  C_10
REMARK    7  A    between atoms: C_13  and  C_14
REMARK                            x       y       z     vdW  Elec       q    Type
REMARK                         _______ _______ _______ _____ _____    ______ ____
ROOT
ATOM      1  O   UNL     1      44.266   3.826  13.350  0.00  0.00    +0.000 OA
ENDROOT
BRANCH   1   2
ATOM      2  C   UNL     1      45.328   4.712  13.329  0.00  0.00    +0.000 A 
ATOM      3  C   UNL     1      46.611   4.235  13.592  0.00  0.00    +0.000 A 
ATOM      4  N   UNL     1      47.718   5.033  13.575  0.00  0.00    +0.000 NA
ATOM      5  C   UNL     1      47.464   6.343  13.281  0.00  0.00    +0.000 A 
ATOM      6  C   UNL     1      46.189   6.815  13.026  0.00  0.00    +0.000 A 
ATOM      7  N   UNL     1      45.098   6.013  13.046  0.00  0.00    +0.000 NA
BRANCH   5   8
ATOM      8  C   UNL     1      48.604   7.295  13.223  0.00  0.00    +0.000 C 
ATOM      9  N   UNL     1      49.686   6.909  12.480  0.00  0.00    +0.000 N 
ATOM     10  O   UNL     1      48.582   8.373  13.804  0.00  0.00    +0.000 OA
ATOM     11  H   UNL     1      49.690   6.013  12.002  0.00  0.00    +0.000 HD
ATOM     12  H   UNL     1      50.479   7.530  12.409  0.00  0.00    +0.000 HD
ENDBRANCH   5   8
ENDBRANCH   1   2
BRANCH   1  13
ATOM     13  C   UNL     1      43.385   4.028  12.231  0.00  0.00    +0.000 C 
BRANCH  13  14
ATOM     14  C   UNL     1      43.466   2.837  11.280  0.00  0.00    +0.000 C 
BRANCH  14  18
ATOM     15  C   UNL     1      46.069   3.634   7.910  0.00  0.00    +0.000 A 
ATOM     16  C   UNL     1      45.573   4.682   8.683  0.00  0.00    +0.000 A 
ATOM     17  C   UNL     1      44.722   4.423   9.763  0.00  0.00    +0.000 A 
ATOM     18  C   UNL     1      44.362   3.111  10.093  0.00  0.00    +0.000 A 
ATOM     19  C   UNL     1      44.836   2.064   9.295  0.00  0.00    +0.000 A 
ATOM     20  C   UNL     1      45.688   2.325   8.214  0.00  0.00    +0.000 A 
BRANCH  15  22
ATOM     21  C   UNL     1      46.788   2.792   5.807  0.00  0.00    +0.000 C 
ATOM     22  O   UNL     1      46.919   3.758   6.844  0.00  0.00    +0.000 OA
ENDBRANCH  15  22
ENDBRANCH  14  18
ENDBRANCH  13  14
ENDBRANCH   1  13
TORSDOF 6
ENDMDL
MODEL 3
REMARK VINA RESULT:    -6.418      3.265      6.927
REMARK INTER + INTRA:          -9.294
REMARK INTER:                  -8.877
REMARK INTRA:                  -0.416
REMARK UNBOUND:                -0.625
REMARK  Name = 
REMARK  7 active torsions:
REMARK  status: ('A' for Active; 'I' for Inactive)
REMARK    1  A    between atoms: C_1  and  O_2
REMARK    2  A    between atoms: O_2  and  C_3
REMARK    3  A    between atoms: C_6  and  C_7
REMARK    4  A    between atoms: C_7  and  C_8
REMARK    5  A    between atoms: C_8  and  O_9
REMARK    6  A    between atoms: O_9  and  C_10
REMARK    7  A    between atoms: C_13  and  C_14
REMARK                            x       y       z     vdW  Elec       q    Type
REMARK                         _______ _______ _______ _____ _____    ______ ____
ROOT
ATOM      1  O   UNL     1      45.681   5.363  11.701  0.00  0.00    +0.000 OA
ENDROOT
BRANCH   1   2
ATOM      2  C   UNL     1      46.357   5.254  12.903  0.00  0.00    +0.000 A 
ATOM      3  C   UNL     1      47.434   6.102  13.152  0.00  0.00    +0.000 A 
ATOM      4  N   UNL     1      48.146   6.077  14.316  0.00  0.00    +0.000 NA
ATOM      5  C   UNL     1      47.716   5.147  15.220  0.00  0.00    +0.000 A 
ATOM      6  C   UNL     1      46.650   4.303  14.968  0.00  0.00    +0.000 A 
ATOM      7  N   UNL     1      45.951   4.337  13.809  0.00  0.00    +0.000 NA
BRANCH   5   8
ATOM      8  C   UNL     1      48.415   5.047  16.528  0.00  0.00    +0.000 C 
ATOM      9  N   UNL     1      47.641   4.732  17.611  0.00  0.00    +0.000 N 
ATOM     10  O   UNL     1      49.621   5.229  16.637  0.00  0.00    +0.000 OA
ATOM     11  H   UNL     1      46.643   4.581  17.506  0.00  0.00    +0.000 HD
ATOM     12  H   UNL     1      48.078   4.647  18.517  0.00  0.00    +0.000 HD
ENDBRANCH   5   8
ENDBRANCH   1   2
BRANCH   1  13
ATOM     13  C   UNL     1      44.360   4.800  11.782  0.00  0.00    +0.000 C 
BRANCH  13  14
ATOM     14  C   UNL     1      43.761   4.666  10.384  0.00  0.00    +0.000 C 
BRANCH  14  18
ATOM     15  C   UNL     1      46.287   2.301   7.777  0.00  0.00    +0.000 A 
ATOM     16  C   UNL     1      46.210   3.684   7.622  0.00  0.00    +0.000 A 
ATOM     17  C   UNL     1      45.384   4.444   8.458  0.00  0.00    +0.000 A 
ATOM     18  C   UNL     1      44.629   3.834   9.467  0.00  0.00    +0.000 A 
ATOM     19  C   UNL     1      44.685   2.442   9.598  0.00  0.00    +0.000 A 
ATOM     20  C   UNL     1      45.512   1.683   8.761  0.00  0.00    +0.000 A 
BRANCH  15  22
ATOM     21  C   UNL     1      47.927   2.057   6.075  0.00  0.00    +0.000 C 
ATOM     22  O   UNL     1      47.069   1.455   7.038  0.00  0.00    +0.000 OA
ENDBRANCH  15  22
ENDBRANCH  14  18
ENDBRANCH  13  14
ENDBRANCH   1  13
TORSDOF 6
ENDMDL
MODEL 4
REMARK VINA RESULT:    -6.166      1.358      2.043
REMARK INTER + INTRA:          -8.954
REMARK INTER:                  -8.417
REMARK INTRA:                  -0.537
REMARK UNBOUND:                -0.625
REMARK  Name = 
REMARK  7 active torsions:
REMARK  status: ('A' for Active; 'I' for Inactive)
REMARK    1  A    between atoms: C_1  and  O_2
REMARK    2  A    between atoms: O_2  and  C_3
REMARK    3  A    between atoms: C_6  and  C_7
REMARK    4  A    between atoms: C_7  and  C_8
REMARK    5  A    between atoms: C_8  and  O_9
REMARK    6  A    between atoms: O_9  and  C_10
REMARK    7  A    between atoms: C_13  and  C_14
REMARK                            x       y       z     vdW  Elec       q    Type
REMARK                         _______ _______ _______ _____ _____    ______ ____
ROOT
ATOM      1  O   UNL     1      43.998   4.068  10.812  0.00  0.00    +0.000 OA
ENDROOT
BRANCH   1   2
ATOM      2  C   UNL     1      44.757   3.667   9.728  0.00  0.00    +0.000 A 
ATOM      3  C   UNL     1      45.367   4.637   8.934  0.00  0.00    +0.000 A 
ATOM      4  N   UNL     1      46.148   4.333   7.857  0.00  0.00    +0.000 NA
ATOM      5  C   UNL     1      46.281   2.995   7.617  0.00  0.00    +0.000 A 
ATOM      6  C   UNL     1      45.670   2.034   8.403  0.00  0.00    +0.000 A 
ATOM      7  N   UNL     1      44.897   2.348   9.470  0.00  0.00    +0.000 NA
BRANCH   5   8
ATOM      8  C   UNL     1      47.123   2.555   6.474  0.00  0.00    +0.000 C 
ATOM      9  N   UNL     1      48.244   1.834   6.783  0.00  0.00    +0.000 N 
ATOM     10  O   UNL     1      46.832   2.815   5.314  0.00  0.00    +0.000 OA
ATOM     11  H   UNL     1      48.472   1.623   7.749  0.00  0.00    +0.000 HD
ATOM     12  H   UNL     1      48.839   1.510   6.035  0.00  0.00    +0.000 HD
ENDBRANCH   5   8
ENDBRANCH   1   2
BRANCH   1  13
ATOM     13  C   UNL     1      44.500   5.286  11.390  0.00  0.00    +0.000 C 
BRANCH  13  14
ATOM     14  C   UNL     1      45.324   4.974  12.636  0.00  0.00    +0.000 C 
BRANCH  14  18
ATOM     15  C   UNL     1      48.934   7.357  12.882  0.00  0.00    +0.000 A 
ATOM     16  C   UNL     1      48.518   6.590  13.969  0.00  0.00    +0.000 A 
ATOM     17  C   UNL     1      47.345   5.830  13.891  0.00  0.00    +0.000 A 
ATOM     18  C   UNL     1      46.574   5.820  12.722  0.00  0.00    +0.000 A 
ATOM     19  C   UNL     1      46.978   6.617  11.645  0.00  0.00    +0.000 A 
ATOM     20  C   UNL     1      48.152   7.375  11.724  0.00  0.00    +0.000 A 
BRANCH  15  22
ATOM     21  C   UNL     1      50.866   8.161  14.007  0.00  0.00    +0.000 C 
ATOM     22  O   UNL     1      50.067   8.123  12.830  0.00  0.00    +0.000 OA
ENDBRANCH  15  22
ENDBRANCH  14  18
ENDBRANCH  13  14
ENDBRANCH   1  13
TORSDOF 6
ENDMDL
MODEL 5
REMARK VINA RESULT:    -6.087      4.647      6.640
REMARK INTER + INTRA:          -8.847
REMARK INTER:                  -8.478
REMARK INTRA:                  -0.370
REMARK UNBOUND:                -0.625
REMARK  Name = 
REMARK  7 active torsions:
REMARK  status: ('A' for Active; 'I' for Inactive)
REMARK    1  A    between atoms: C_1  and  O_2
REMARK    2  A    between atoms: O_2  and  C_3
REMARK    3  A    between atoms: C_6  and  C_7
REMARK    4  A    between atoms: C_7  and  C_8
REMARK    5  A    between atoms: C_8  and  O_9
REMARK    6  A    between atoms: O_9  and  C_10
REMARK    7  A    between atoms: C_13  and  C_14
REMARK                            x       y       z     vdW  Elec       q    Type
REMARK                         _______ _______ _______ _____ _____    ______ ____
ROOT
ATOM      1  O   UNL     1      47.466   3.390  14.536  0.00  0.00    +0.000 OA
ENDROOT
BRANCH   1   2
ATOM      2  C   UNL     1      46.515   3.906  13.676  0.00  0.00    +0.000 A 
ATOM      3  C   UNL     1      46.321   5.286  13.633  0.00  0.00    +0.000 A 
ATOM      4  N   UNL     1      45.419   5.884  12.802  0.00  0.00    +0.000 NA
ATOM      5  C   UNL     1      44.715   5.016  12.015  0.00  0.00    +0.000 A 
ATOM      6  C   UNL     1      44.905   3.646  12.065  0.00  0.00    +0.000 A 
ATOM      7  N   UNL     1      45.804   3.064  12.893  0.00  0.00    +0.000 NA
BRANCH   5   8
ATOM      8  C   UNL     1      43.714   5.565  11.064  0.00  0.00    +0.000 C 
ATOM      9  N   UNL     1      43.333   6.864  11.262  0.00  0.00    +0.000 N 
ATOM     10  O   UNL     1      43.254   4.899  10.145  0.00  0.00    +0.000 OA
ATOM     11  H   UNL     1      43.724   7.407  12.026  0.00  0.00    +0.000 HD
ATOM     12  H   UNL     1      42.660   7.278  10.633  0.00  0.00    +0.000 HD
ENDBRANCH   5   8
ENDBRANCH   1   2
BRANCH   1  13
ATOM     13  C   UNL     1      47.402   4.010  15.833  0.00  0.00    +0.000 C 
BRANCH  13  14
ATOM     14  C   UNL     1      47.750   2.993  16.917  0.00  0.00    +0.000 C 
BRANCH  14  18
ATOM     15  C   UNL     1      51.953   3.037  17.967  0.00  0.00    +0.000 A 
ATOM     16  C   UNL     1      51.158   4.161  18.185  0.00  0.00    +0.000 A 
ATOM     17  C   UNL     1      49.803   4.149  17.834  0.00  0.00    +0.000 A 
ATOM     18  C   UNL     1      49.220   3.009  17.267  0.00  0.00    +0.000 A 
ATOM     19  C   UNL     1      50.030   1.894  17.020  0.00  0.00    +0.000 A 
ATOM     20  C   UNL     1      51.385   1.908  17.372  0.00  0.00    +0.000 A 
BRANCH  15  22
ATOM     21  C   UNL     1      53.809   1.601  18.342  0.00  0.00    +0.000 C 
ATOM     22  O   UNL     1      53.280   2.922  18.283  0.00  0.00    +0.000 OA
ENDBRANCH  15  22
ENDBRANCH  14  18
ENDBRANCH  13  14
ENDBRANCH   1  13
TORSDOF 6
ENDMDL
MODEL 6
REMARK VINA RESULT:    -5.813      4.350      7.656
REMARK INTER + INTRA:          -8.476
REMARK INTER:                  -8.119
REMARK INTRA:                  -0.357
REMARK UNBOUND:                -0.625
REMARK  Name = 
REMARK  7 active torsions:
REMARK  status: ('A' for Active; 'I' for Inactive)
REMARK    1  A    between atoms: C_1  and  O_2
REMARK    2  A    between atoms: O_2  and  C_3
REMARK    3  A    between atoms: C_6  and  C_7
REMARK    4  A    between atoms: C_7  and  C_8
REMARK    5  A    between atoms: C_8  and  O_9
REMARK    6  A    between atoms: O_9  and  C_10
REMARK    7  A    between atoms: C_13  and  C_14
REMARK                            x       y       z     vdW  Elec       q    Type
REMARK                         _______ _______ _______ _____ _____    ______ ____
ROOT
ATOM      1  O   UNL     1      46.632   5.287  13.707  0.00  0.00    +0.000 OA
ENDROOT
BRANCH   1   2
ATOM      2  C   UNL     1      47.273   4.910  14.872  0.00  0.00    +0.000 A 
ATOM      3  C   UNL     1      48.256   5.743  15.403  0.00  0.00    +0.000 A 
ATOM      4  N   UNL     1      48.926   5.460  16.558  0.00  0.00    +0.000 NA
ATOM      5  C   UNL     1      48.556   4.286  17.151  0.00  0.00    +0.000 A 
ATOM      6  C   UNL     1      47.585   3.457  16.619  0.00  0.00    +0.000 A 
ATOM      7  N   UNL     1      46.926   3.749  15.472  0.00  0.00    +0.000 NA
BRANCH   5   8
ATOM      8  C   UNL     1      49.217   3.890  18.422  0.00  0.00    +0.000 C 
ATOM      9  N   UNL     1      48.469   3.143  19.292  0.00  0.00    +0.000 N 
ATOM     10  O   UNL     1      50.371   4.206  18.682  0.00  0.00    +0.000 OA
ATOM     11  H   UNL     1      47.515   2.886  19.063  0.00  0.00    +0.000 HD
ATOM     12  H   UNL     1      48.884   2.847  20.164  0.00  0.00    +0.000 HD
ENDBRANCH   5   8
ENDBRANCH   1   2
BRANCH   1  13
ATOM     13  C   UNL     1      45.650   4.316  13.303  0.00  0.00    +0.000 C 
BRANCH  13  14
ATOM     14  C   UNL     1      44.680   4.938  12.302  0.00  0.00    +0.000 C 
BRANCH  14  18
ATOM     15  C   UNL     1      45.571   3.720   8.241  0.00  0.00    +0.000 A 
ATOM     16  C   UNL     1      45.912   4.996   8.687  0.00  0.00    +0.000 A 
ATOM     17  C   UNL     1      45.612   5.391   9.996  0.00  0.00    +0.000 A 
ATOM     18  C   UNL     1      44.974   4.514  10.881  0.00  0.00    +0.000 A 
ATOM     19  C   UNL     1      44.604   3.245  10.419  0.00  0.00    +0.000 A 
ATOM     20  C   UNL     1      44.906   2.852   9.109  0.00  0.00    +0.000 A 
BRANCH  15  22
ATOM     21  C   UNL     1      46.995   2.412   6.860  0.00  0.00    +0.000 C 
ATOM     22  O   UNL     1      45.826   3.213   6.995  0.00  0.00    +0.000 OA
ENDBRANCH  15  22
ENDBRANCH  14  18
ENDBRANCH  13  14
ENDBRANCH   1  13
TORSDOF 6
ENDMDL
MODEL 7
REMARK VINA RESULT:    -5.497      4.356      6.392
REMARK INTER + INTRA:          -8.050
REMARK INTER:                  -7.559
REMARK INTRA:                  -0.491
REMARK UNBOUND:                -0.625
REMARK  Name = 
REMARK  7 active torsions:
REMARK  status: ('A' for Active; 'I' for Inactive)
REMARK    1  A    between atoms: C_1  and  O_2
REMARK    2  A    between atoms: O_2  and  C_3
REMARK    3  A    between atoms: C_6  and  C_7
REMARK    4  A    between atoms: C_7  and  C_8
REMARK    5  A    between atoms: C_8  and  O_9
REMARK    6  A    between atoms: O_9  and  C_10
REMARK    7  A    between atoms: C_13  and  C_14
REMARK                            x       y       z     vdW  Elec       q    Type
REMARK                         _______ _______ _______ _____ _____    ______ ____
ROOT
ATOM      1  O   UNL     1      48.173   5.311  14.545  0.00  0.00    +0.000 OA
ENDROOT
BRANCH   1   2
ATOM      2  C   UNL     1      47.022   4.925  13.881  0.00  0.00    +0.000 A 
ATOM      3  C   UNL     1      46.856   3.583  13.541  0.00  0.00    +0.000 A 
ATOM      4  N   UNL     1      45.746   3.110  12.904  0.00  0.00    +0.000 NA
ATOM      5  C   UNL     1      44.808   4.064  12.622  0.00  0.00    +0.000 A 
ATOM      6  C   UNL     1      44.978   5.395  12.955  0.00  0.00    +0.000 A 
ATOM      7  N   UNL     1      46.085   5.853  13.588  0.00  0.00    +0.000 NA
BRANCH   5   8
ATOM      8  C   UNL     1      43.554   3.651  11.940  0.00  0.00    +0.000 C 
ATOM      9  N   UNL     1      43.408   2.315  11.684  0.00  0.00    +0.000 N 
ATOM     10  O   UNL     1      42.689   4.458  11.624  0.00  0.00    +0.000 OA
ATOM     11  H   UNL     1      44.132   1.656  11.953  0.00  0.00    +0.000 HD
ATOM     12  H   UNL     1      42.567   1.992  11.229  0.00  0.00    +0.000 HD
ENDBRANCH   5   8
ENDBRANCH   1   2
BRANCH   1  13
ATOM     13  C   UNL     1      47.888   5.770  15.878  0.00  0.00    +0.000 C 
BRANCH  13  14
ATOM     14  C   UNL     1      47.705   4.578  16.814  0.00  0.00    +0.000 C 
BRANCH  14  18
ATOM     15  C   UNL     1      51.457   2.563  17.611  0.00  0.00    +0.000 A 
ATOM     16  C   UNL     1      50.376   1.861  17.080  0.00  0.00    +0.000 A 
ATOM     17  C   UNL     1      49.162   2.511  16.835  0.00  0.00    +0.000 A 
ATOM     18  C   UNL     1      49.011   3.876  17.109  0.00  0.00    +0.000 A 
ATOM     19  C   UNL     1      50.089   4.570  17.671  0.00  0.00    +0.000 A 
ATOM     20  C   UNL     1      51.304   3.918  17.916  0.00  0.00    +0.000 A 
BRANCH  15  22
ATOM     21  C   UNL     1      53.791   2.952  17.825  0.00  0.00    +0.000 C 
ATOM     22  O   UNL     1      52.696   2.045  17.876  0.00  0.00    +0.000 OA
ENDBRANCH  15  22
ENDBRANCH  14  18
ENDBRANCH  13  14
ENDBRANCH   1  13
TORSDOF 6
ENDMDL
MODEL 8
REMARK VINA RESULT:    -5.178      4.611      6.440
REMARK INTER + INTRA:          -7.618
REMARK INTER:                  -7.215
REMARK INTRA:                  -0.403
REMARK UNBOUND:                -0.625
REMARK  Name = 
REMARK  7 active torsions:
REMARK  status: ('A' for Active; 'I' for Inactive)
REMARK    1  A    between atoms: C_1  and  O_2
REMARK    2  A    between atoms: O_2  and  C_3
REMARK    3  A    between atoms: C_6  and  C_7
REMARK    4  A    between atoms: C_7  and  C_8
REMARK    5  A    between atoms: C_8  and  O_9
REMARK    6  A    between atoms: O_9  and  C_10
REMARK    7  A    between atoms: C_13  and  C_14
REMARK                            x       y       z     vdW  Elec       q    Type
REMARK                         _______ _______ _______ _____ _____    ______ ____
ROOT
ATOM      1  O   UNL     1      47.780   4.645  15.106  0.00  0.00    +0.000 OA
ENDROOT
BRANCH   1   2
ATOM      2  C   UNL     1      46.957   4.703  13.996  0.00  0.00    +0.000 A 
ATOM      3  C   UNL     1      46.902   5.882  13.256  0.00  0.00    +0.000 A 
ATOM      4  N   UNL     1      46.133   6.022  12.137  0.00  0.00    +0.000 NA
ATOM      5  C   UNL     1      45.417   4.908  11.802  0.00  0.00    +0.000 A 
ATOM      6  C   UNL     1      45.468   3.741  12.541  0.00  0.00    +0.000 A 
ATOM      7  N   UNL     1      46.235   3.613  13.650  0.00  0.00    +0.000 NA
BRANCH   5   8
ATOM      8  C   UNL     1      44.556   4.951  10.591  0.00  0.00    +0.000 C 
ATOM      9  N   UNL     1      43.333   5.547  10.732  0.00  0.00    +0.000 N 
ATOM     10  O   UNL     1      44.917   4.483   9.519  0.00  0.00    +0.000 OA
ATOM     11  H   UNL     1      43.046   5.933  11.626  0.00  0.00    +0.000 HD
ATOM     12  H   UNL     1      42.720   5.604   9.931  0.00  0.00    +0.000 HD
ENDBRANCH   5   8
ENDBRANCH   1   2
BRANCH   1  13
ATOM     13  C   UNL     1      47.169   3.911  16.181  0.00  0.00    +0.000 C 
BRANCH  13  14
ATOM     14  C   UNL     1      48.128   2.840  16.695  0.00  0.00    +0.000 C 
BRANCH  14  18
ATOM     15  C   UNL     1      51.256   4.524  19.174  0.00  0.00    +0.000 A 
ATOM     16  C   UNL     1      51.571   3.640  18.143  0.00  0.00    +0.000 A 
ATOM     17  C   UNL     1      50.557   3.088  17.351  0.00  0.00    +0.000 A 
ATOM     18  C   UNL     1      49.214   3.418  17.573  0.00  0.00    +0.000 A 
ATOM     19  C   UNL     1      48.901   4.281  18.630  0.00  0.00    +0.000 A 
ATOM     20  C   UNL     1      49.917   4.833  19.420  0.00  0.00    +0.000 A 
BRANCH  15  22
ATOM     21  C   UNL     1      51.951   6.529  20.244  0.00  0.00    +0.000 C 
ATOM     22  O   UNL     1      52.156   5.142  20.000  0.00  0.00    +0.000 OA
ENDBRANCH  15  22
ENDBRANCH  14  18
ENDBRANCH  13  14
ENDBRANCH   1  13
TORSDOF 6
ENDMDL
MODEL 9
REMARK VINA RESULT:    -5.037      4.216      6.410
REMARK INTER + INTRA:          -7.429
REMARK INTER:                  -7.012
REMARK INTRA:                  -0.417
REMARK UNBOUND:                -0.625
REMARK  Name = 
REMARK  7 active torsions:
REMARK  status: ('A' for Active; 'I' for Inactive)
REMARK    1  A    between atoms: C_1  and  O_2
REMARK    2  A    between atoms: O_2  and  C_3
REMARK    3  A    between atoms: C_6  and  C_7
REMARK    4  A    between atoms: C_7  and  C_8
REMARK    5  A    between atoms: C_8  and  O_9
REMARK    6  A    between atoms: O_9  and  C_10
REMARK    7  A    between atoms: C_13  and  C_14
REMARK                            x       y       z     vdW  Elec       q    Type
REMARK                         _______ _______ _______ _____ _____    ______ ____
ROOT
ATOM      1  O   UNL     1      48.298   5.769  13.659  0.00  0.00    +0.000 OA
ENDROOT
BRANCH   1   2
ATOM      2  C   UNL     1      47.026   5.516  13.178  0.00  0.00    +0.000 A 
ATOM      3  C   UNL     1      46.383   4.338  13.552  0.00  0.00    +0.000 A 
ATOM      4  N   UNL     1      45.122   4.016  13.141  0.00  0.00    +0.000 NA
ATOM      5  C   UNL     1      44.540   4.946  12.328  0.00  0.00    +0.000 A 
ATOM      6  C   UNL     1      45.182   6.113  11.953  0.00  0.00    +0.000 A 
ATOM      7  N   UNL     1      46.434   6.421  12.367  0.00  0.00    +0.000 NA
BRANCH   5   8
ATOM      8  C   UNL     1      43.160   4.699  11.834  0.00  0.00    +0.000 C 
ATOM      9  N   UNL     1      42.259   5.714  12.005  0.00  0.00    +0.000 N 
ATOM     10  O   UNL     1      42.840   3.646  11.297  0.00  0.00    +0.000 OA
ATOM     11  H   UNL     1      42.538   6.582  12.451  0.00  0.00    +0.000 HD
ATOM     12  H   UNL     1      41.312   5.589  11.677  0.00  0.00    +0.000 HD
ENDBRANCH   5   8
ENDBRANCH   1   2
BRANCH   1  13
ATOM     13  C   UNL     1      48.353   7.007  14.389  0.00  0.00    +0.000 C 
BRANCH  13  14
ATOM     14  C   UNL     1      49.412   6.922  15.485  0.00  0.00    +0.000 C 
BRANCH  14  18
ATOM     15  C   UNL     1      47.629   6.346  19.391  0.00  0.00    +0.000 A 
ATOM     16  C   UNL     1      47.947   7.626  18.941  0.00  0.00    +0.000 A 
ATOM     17  C   UNL     1      48.534   7.808  17.684  0.00  0.00    +0.000 A 
ATOM     18  C   UNL     1      48.804   6.714  16.853  0.00  0.00    +0.000 A 
ATOM     19  C   UNL     1      48.513   5.428  17.322  0.00  0.00    +0.000 A 
ATOM     20  C   UNL     1      47.925   5.247  18.580  0.00  0.00    +0.000 A 
BRANCH  15  22
ATOM     21  C   UNL     1      47.893   5.559  21.617  0.00  0.00    +0.000 C 
ATOM     22  O   UNL     1      47.038   6.042  20.588  0.00  0.00    +0.000 OA
ENDBRANCH  15  22
ENDBRANCH  14  18
ENDBRANCH  13  14
ENDBRANCH   1  13
TORSDOF 6
ENDMDL
