MODEL 1
REMARK VINA RESULT:    -9.352      0.000      0.000
REMARK INTER + INTRA:         -14.359
REMARK INTER:                 -13.179
REMARK INTRA:                  -1.181
REMARK UNBOUND:                -1.181
REMARK  Name = 
REMARK  8 active torsions:
REMARK  status: ('A' for Active; 'I' for Inactive)
REMARK    1  A    between atoms: C_1  and  C_2
REMARK    2  A    between atoms: C_2  and  O_3
REMARK    3  A    between atoms: O_3  and  C_4
REMARK    4  A    between atoms: C_6  and  C_7
REMARK    5  A    between atoms: C_7  and  C_8
REMARK    6  A    between atoms: C_8  and  N_9
REMARK    7  A    between atoms: C_13  and  C_14
REMARK    8  A    between atoms: C_20  and  C_21
REMARK                            x       y       z     vdW  Elec       q    Type
REMARK                         _______ _______ _______ _____ _____    ______ ____
ROOT
ATOM      1  C   UNL     1      46.798   4.627  13.989  0.00  0.00    +0.000 A 
ATOM      2  C   UNL     1      45.482   4.563  13.531  0.00  0.00    +0.000 A 
ATOM      3  C   UNL     1      45.028   5.462  12.560  0.00  0.00    +0.000 A 
ATOM      4  C   UNL     1      45.913   6.427  12.052  0.00  0.00    +0.000 A 
ATOM      5  C   UNL     1      47.233   6.550  12.527  0.00  0.00    +0.000 A 
ATOM      6  C   UNL     1      47.659   5.610  13.483  0.00  0.00    +0.000 A 
ENDROOT
BRANCH   5   7
ATOM      7  C   UNL     1      48.096   7.683  12.111  0.00  0.00    +0.000 A 
ATOM      8  C   UNL     1      47.592   8.999  12.094  0.00  0.00    +0.000 A 
ATOM      9  C   UNL     1      48.398  10.094  11.767  0.00  0.00    +0.000 A 
ATOM     10  C   UNL     1      49.737   9.899  11.455  0.00  0.00    +0.000 A 
ATOM     11  C   UNL     1      50.264   8.610  11.457  0.00  0.00    +0.000 A 
ATOM     12  C   UNL     1      49.450   7.515  11.774  0.00  0.00    +0.000 A 
ENDBRANCH   5   7
BRANCH   1  13
ATOM     13  O   UNL     1      47.346   3.818  14.950  0.00  0.00    +0.000 OA
BRANCH  13  15
ATOM     14  C   UNL     1      47.583   3.126  17.227  0.00  0.00    +0.000 C 
ATOM     15  C   UNL     1      47.265   4.282  16.298  0.00  0.00    +0.000 C 
ENDBRANCH  13  15
ENDBRANCH   1  13
BRANCH   3  16
ATOM     16  C   UNL     1      43.568   5.487  12.163  0.00  0.00    +0.000 C 
BRANCH  16  17
ATOM     17  C   UNL     1      43.290   4.378  11.141  0.00  0.00    +0.000 C 
BRANCH  17  18
ATOM     18  N   UNL     1      43.695   4.771   9.797  0.00  0.00    +0.000 N 
ATOM     19  C   UNL     1      44.633   3.983   9.140  0.00  0.00    +0.000 A 
ATOM     20  C   UNL     1      44.693   2.601   9.279  0.00  0.00    +0.000 A 
ATOM     21  C   UNL     1      45.631   1.868   8.551  0.00  0.00    +0.000 A 
ATOM     22  C   UNL     1      46.481   2.521   7.666  0.00  0.00    +0.000 A 
ATOM     23  C   UNL     1      46.353   3.899   7.577  0.00  0.00    +0.000 A 
ATOM     24  N   UNL     1      45.458   4.636   8.297  0.00  0.00    +0.000 NA
ATOM     25  H   UNL     1      43.971   5.742   9.670  0.00  0.00    +0.000 HD
BRANCH  22  26
ATOM     26  C   UNL     1      47.443   1.710   6.880  0.00  0.00    +0.000 C 
ATOM     27  N   UNL     1      48.579   2.297   6.399  0.00  0.00    +0.000 N 
ATOM     28  O   UNL     1      47.231   0.524   6.650  0.00  0.00    +0.000 OA
ATOM     29  H   UNL     1      48.828   3.269   6.489  0.00  0.00    +0.000 HD
ATOM     30  H   UNL     1      49.189   1.706   5.846  0.00  0.00    +0.000 HD
ENDBRANCH  22  26
ENDBRANCH  17  18
ENDBRANCH  16  17
ENDBRANCH   3  16
TORSDOF 7
ENDMDL
MODEL 2
REMARK VINA RESULT:    -8.645      0.890      1.467
REMARK INTER + INTRA:         -13.363
REMARK INTER:                 -12.255
REMARK INTRA:                  -1.108
REMARK UNBOUND:                -1.181
REMARK  Name = 
REMARK  8 active torsions:
REMARK  status: ('A' for Active; 'I' for Inactive)
REMARK    1  A    between atoms: C_1  and  C_2
REMARK    2  A    between atoms: C_2  and  O_3
REMARK    3  A    between atoms: O_3  and  C_4
REMARK    4  A    between atoms: C_6  and  C_7
REMARK    5  A    between atoms: C_7  and  C_8
REMARK    6  A    between atoms: C_8  and  N_9
REMARK    7  A    between atoms: C_13  and  C_14
REMARK    8  A    between atoms: C_20  and  C_21
REMARK                            x       y       z     vdW  Elec       q    Type
REMARK                         _______ _______ _______ _____ _____    ______ ____
ROOT
ATOM      1  C   UNL     1      46.603   4.583  13.968  0.00  0.00    +0.000 A 
ATOM      2  C   UNL     1      45.297   4.481  13.489  0.00  0.00    +0.000 A 
ATOM      3  C   UNL     1      44.812   5.406  12.558  0.00  0.00    +0.000 A 
ATOM      4  C   UNL     1      45.656   6.435  12.111  0.00  0.00    +0.000 A 
ATOM      5  C   UNL     1      46.963   6.595  12.609  0.00  0.00    +0.000 A 
ATOM      6  C   UNL     1      47.423   5.629  13.522  0.00  0.00    +0.000 A 
ENDROOT
BRANCH   5   7
ATOM      7  C   UNL     1      47.776   7.786  12.261  0.00  0.00    +0.000 A 
ATOM      8  C   UNL     1      49.138   7.652  11.925  0.00  0.00    +0.000 A 
ATOM      9  C   UNL     1      49.914   8.747  11.533  0.00  0.00    +0.000 A 
ATOM     10  C   UNL     1      49.340  10.010  11.458  0.00  0.00    +0.000 A 
ATOM     11  C   UNL     1      47.998  10.177  11.788  0.00  0.00    +0.000 A 
ATOM     12  C   UNL     1      47.228   9.079  12.191  0.00  0.00    +0.000 A 
ENDBRANCH   5   7
BRANCH   1  13
ATOM     13  O   UNL     1      47.178   3.753  14.895  0.00  0.00    +0.000 OA
BRANCH  13  15
ATOM     14  C   UNL     1      47.538   3.096  17.166  0.00  0.00    +0.000 C 
ATOM     15  C   UNL     1      47.285   4.259  16.225  0.00  0.00    +0.000 C 
ENDBRANCH  13  15
ENDBRANCH   1  13
BRANCH   3  16
ATOM     16  C   UNL     1      43.357   5.383  12.144  0.00  0.00    +0.000 C 
BRANCH  16  17
ATOM     17  C   UNL     1      43.214   4.671  10.793  0.00  0.00    +0.000 C 
BRANCH  17  18
ATOM     18  N   UNL     1      44.013   3.453  10.739  0.00  0.00    +0.000 N 
ATOM     19  C   UNL     1      44.820   3.249   9.626  0.00  0.00    +0.000 A 
ATOM     20  C   UNL     1      45.468   4.283   8.959  0.00  0.00    +0.000 A 
ATOM     21  C   UNL     1      46.302   3.999   7.877  0.00  0.00    +0.000 A 
ATOM     22  C   UNL     1      46.505   2.680   7.490  0.00  0.00    +0.000 A 
ATOM     23  C   UNL     1      45.831   1.705   8.211  0.00  0.00    +0.000 A 
ATOM     24  N   UNL     1      44.994   1.964   9.256  0.00  0.00    +0.000 NA
ATOM     25  H   UNL     1      43.526   2.580  10.926  0.00  0.00    +0.000 HD
BRANCH  22  26
ATOM     26  C   UNL     1      47.425   2.408   6.358  0.00  0.00    +0.000 C 
ATOM     27  N   UNL     1      47.232   3.050   5.168  0.00  0.00    +0.000 N 
ATOM     28  O   UNL     1      48.350   1.611   6.473  0.00  0.00    +0.000 OA
ATOM     29  H   UNL     1      46.481   3.685   4.952  0.00  0.00    +0.000 HD
ATOM     30  H   UNL     1      47.871   2.809   4.419  0.00  0.00    +0.000 HD
ENDBRANCH  22  26
ENDBRANCH  17  18
ENDBRANCH  16  17
ENDBRANCH   3  16
TORSDOF 7
ENDMDL
MODEL 3
REMARK VINA RESULT:    -7.905      2.501      3.774
REMARK INTER + INTRA:         -12.321
REMARK INTER:                 -11.764
REMARK INTRA:                  -0.557
REMARK UNBOUND:                -1.181
REMARK  Name = 
REMARK  8 active torsions:
REMARK  status: ('A' for Active; 'I' for Inactive)
REMARK    1  A    between atoms: C_1  and  C_2
REMARK    2  A    between atoms: C_2  and  O_3
REMARK    3  A    between atoms: O_3  and  C_4
REMARK    4  A    between atoms: C_6  and  C_7
REMARK    5  A    between atoms: C_7  and  C_8
REMARK    6  A    between atoms: C_8  and  N_9
REMARK    7  A    between atoms: C_13  and  C_14
REMARK    8  A    between atoms: C_20  and  C_21
REMARK                            x       y       z     vdW  Elec       q    Type
REMARK                         _______ _______ _______ _____ _____    ______ ____
ROOT
ATOM      1  C   UNL     1      47.046   7.471  12.595  0.00  0.00    +0.000 A 
ATOM      2  C   UNL     1      46.487   6.194  12.568  0.00  0.00    +0.000 A 
ATOM      3  C   UNL     1      45.204   5.996  12.046  0.00  0.00    +0.000 A 
ATOM      4  C   UNL     1      44.489   7.097  11.549  0.00  0.00    +0.000 A 
ATOM      5  C   UNL     1      45.004   8.406  11.605  0.00  0.00    +0.000 A 
ATOM      6  C   UNL     1      46.308   8.560  12.111  0.00  0.00    +0.000 A 
ENDROOT
BRANCH   5   7
ATOM      7  C   UNL     1      44.167   9.576  11.241  0.00  0.00    +0.000 A 
ATOM      8  C   UNL     1      42.894   9.395  10.664  0.00  0.00    +0.000 A 
ATOM      9  C   UNL     1      42.058  10.476  10.368  0.00  0.00    +0.000 A 
ATOM     10  C   UNL     1      42.473  11.771  10.652  0.00  0.00    +0.000 A 
ATOM     11  C   UNL     1      43.727  11.983  11.217  0.00  0.00    +0.000 A 
ATOM     12  C   UNL     1      44.567  10.898  11.502  0.00  0.00    +0.000 A 
ENDBRANCH   5   7
BRANCH   1  13
ATOM     13  O   UNL     1      48.279   7.789  13.102  0.00  0.00    +0.000 OA
BRANCH  13  15
ATOM     14  C   UNL     1      50.052   8.078  11.523  0.00  0.00    +0.000 C 
ATOM     15  C   UNL     1      49.401   7.131  12.513  0.00  0.00    +0.000 C 
ENDBRANCH  13  15
ENDBRANCH   1  13
BRANCH   3  16
ATOM     16  C   UNL     1      44.540   4.639  12.142  0.00  0.00    +0.000 C 
BRANCH  16  17
ATOM     17  C   UNL     1      43.396   4.550  11.125  0.00  0.00    +0.000 C 
BRANCH  17  18
ATOM     18  N   UNL     1      43.832   4.938   9.789  0.00  0.00    +0.000 N 
ATOM     19  C   UNL     1      44.730   4.109   9.127  0.00  0.00    +0.000 A 
ATOM     20  C   UNL     1      44.712   2.723   9.247  0.00  0.00    +0.000 A 
ATOM     21  C   UNL     1      45.613   1.951   8.515  0.00  0.00    +0.000 A 
ATOM     22  C   UNL     1      46.504   2.568   7.644  0.00  0.00    +0.000 A 
ATOM     23  C   UNL     1      46.453   3.951   7.574  0.00  0.00    +0.000 A 
ATOM     24  N   UNL     1      45.595   4.726   8.299  0.00  0.00    +0.000 NA
ATOM     25  H   UNL     1      44.161   5.894   9.678  0.00  0.00    +0.000 HD
BRANCH  22  26
ATOM     26  C   UNL     1      47.427   1.715   6.853  0.00  0.00    +0.000 C 
ATOM     27  N   UNL     1      48.457   2.297   6.171  0.00  0.00    +0.000 N 
ATOM     28  O   UNL     1      47.273   0.500   6.798  0.00  0.00    +0.000 OA
ATOM     29  H   UNL     1      48.647   3.284   6.110  0.00  0.00    +0.000 HD
ATOM     30  H   UNL     1      49.041   1.674   5.625  0.00  0.00    +0.000 HD
ENDBRANCH  22  26
ENDBRANCH  17  18
ENDBRANCH  16  17
ENDBRANCH   3  16
TORSDOF 7
ENDMDL
MODEL 4
REMARK VINA RESULT:    -7.736      2.250      3.517
REMARK INTER + INTRA:         -12.082
REMARK INTER:                 -11.449
REMARK INTRA:                  -0.633
REMARK UNBOUND:                -1.181
REMARK  Name = 
REMARK  8 active torsions:
REMARK  status: ('A' for Active; 'I' for Inactive)
REMARK    1  A    between atoms: C_1  and  C_2
REMARK    2  A    between atoms: C_2  and  O_3
REMARK    3  A    between atoms: O_3  and  C_4
REMARK    4  A    between atoms: C_6  and  C_7
REMARK    5  A    between atoms: C_7  and  C_8
REMARK    6  A    between atoms: C_8  and  N_9
REMARK    7  A    between atoms: C_13  and  C_14
REMARK    8  A    between atoms: C_20  and  C_21
REMARK                            x       y       z     vdW  Elec       q    Type
REMARK                         _______ _______ _______ _____ _____    ______ ____
ROOT
ATOM      1  C   UNL     1      44.733   8.245  11.622  0.00  0.00    +0.000 A 
ATOM      2  C   UNL     1      44.224   6.949  11.694  0.00  0.00    +0.000 A 
ATOM      3  C   UNL     1      45.042   5.891  12.108  0.00  0.00    +0.000 A 
ATOM      4  C   UNL     1      46.378   6.152  12.449  0.00  0.00    +0.000 A 
ATOM      5  C   UNL     1      46.937   7.439  12.341  0.00  0.00    +0.000 A 
ATOM      6  C   UNL     1      46.076   8.480  11.949  0.00  0.00    +0.000 A 
ENDROOT
BRANCH   5   7
ATOM      7  C   UNL     1      48.391   7.663  12.535  0.00  0.00    +0.000 A 
ATOM      8  C   UNL     1      49.231   7.913  11.431  0.00  0.00    +0.000 A 
ATOM      9  C   UNL     1      50.593   8.189  11.587  0.00  0.00    +0.000 A 
ATOM     10  C   UNL     1      51.149   8.231  12.858  0.00  0.00    +0.000 A 
ATOM     11  C   UNL     1      50.348   7.983  13.969  0.00  0.00    +0.000 A 
ATOM     12  C   UNL     1      48.986   7.696  13.808  0.00  0.00    +0.000 A 
ENDBRANCH   5   7
BRANCH   1  13
ATOM     13  O   UNL     1      44.037   9.352  11.210  0.00  0.00    +0.000 OA
BRANCH  13  15
ATOM     14  C   UNL     1      43.604  11.703  11.182  0.00  0.00    +0.000 C 
ATOM     15  C   UNL     1      44.609  10.621  11.526  0.00  0.00    +0.000 C 
ENDBRANCH  13  15
ENDBRANCH   1  13
BRANCH   3  16
ATOM     16  C   UNL     1      44.535   4.467  12.053  0.00  0.00    +0.000 C 
BRANCH  16  17
ATOM     17  C   UNL     1      43.407   4.358  11.020  0.00  0.00    +0.000 C 
BRANCH  17  18
ATOM     18  N   UNL     1      43.844   4.790   9.698  0.00  0.00    +0.000 N 
ATOM     19  C   UNL     1      44.807   4.030   9.046  0.00  0.00    +0.000 A 
ATOM     20  C   UNL     1      44.879   2.645   9.150  0.00  0.00    +0.000 A 
ATOM     21  C   UNL     1      45.843   1.942   8.429  0.00  0.00    +0.000 A 
ATOM     22  C   UNL     1      46.710   2.627   7.584  0.00  0.00    +0.000 A 
ATOM     23  C   UNL     1      46.569   4.005   7.529  0.00  0.00    +0.000 A 
ATOM     24  N   UNL     1      45.648   4.713   8.243  0.00  0.00    +0.000 NA
ATOM     25  H   UNL     1      44.112   5.767   9.605  0.00  0.00    +0.000 HD
BRANCH  22  26
ATOM     26  C   UNL     1      47.702   1.847   6.804  0.00  0.00    +0.000 C 
ATOM     27  N   UNL     1      48.529   2.496   5.933  0.00  0.00    +0.000 N 
ATOM     28  O   UNL     1      47.785   0.630   6.924  0.00  0.00    +0.000 OA
ATOM     29  H   UNL     1      48.515   3.481   5.723  0.00  0.00    +0.000 HD
ATOM     30  H   UNL     1      49.170   1.914   5.404  0.00  0.00    +0.000 HD
ENDBRANCH  22  26
ENDBRANCH  17  18
ENDBRANCH  16  17
ENDBRANCH   3  16
TORSDOF 7
ENDMDL
MODEL 5
REMARK VINA RESULT:    -6.743      4.084      7.932
REMARK INTER + INTRA:         -10.682
REMARK INTER:                  -9.334
REMARK INTRA:                  -1.348
REMARK UNBOUND:                -1.181
REMARK  Name = 
REMARK  8 active torsions:
REMARK  status: ('A' for Active; 'I' for Inactive)
REMARK    1  A    between atoms: C_1  and  C_2
REMARK    2  A    between atoms: C_2  and  O_3
REMARK    3  A    between atoms: O_3  and  C_4
REMARK    4  A    between atoms: C_6  and  C_7
REMARK    5  A    between atoms: C_7  and  C_8
REMARK    6  A    between atoms: C_8  and  N_9
REMARK    7  A    between atoms: C_13  and  C_14
REMARK    8  A    between atoms: C_20  and  C_21
REMARK                            x       y       z     vdW  Elec       q    Type
REMARK                         _______ _______ _______ _____ _____    ______ ____
ROOT
ATOM      1  C   UNL     1      45.360   9.251  12.038  0.00  0.00    +0.000 A 
ATOM      2  C   UNL     1      46.747   9.288  12.177  0.00  0.00    +0.000 A 
ATOM      3  C   UNL     1      47.500   8.115  12.051  0.00  0.00    +0.000 A 
ATOM      4  C   UNL     1      46.843   6.904  11.782  0.00  0.00    +0.000 A 
ATOM      5  C   UNL     1      45.441   6.824  11.683  0.00  0.00    +0.000 A 
ATOM      6  C   UNL     1      44.722   8.029  11.788  0.00  0.00    +0.000 A 
ENDROOT
BRANCH   5   7
ATOM      7  C   UNL     1      44.753   5.513  11.576  0.00  0.00    +0.000 A 
ATOM      8  C   UNL     1      44.760   4.796  10.363  0.00  0.00    +0.000 A 
ATOM      9  C   UNL     1      44.175   3.532  10.249  0.00  0.00    +0.000 A 
ATOM     10  C   UNL     1      43.572   2.946  11.355  0.00  0.00    +0.000 A 
ATOM     11  C   UNL     1      43.543   3.631  12.566  0.00  0.00    +0.000 A 
ATOM     12  C   UNL     1      44.121   4.903  12.674  0.00  0.00    +0.000 A 
ENDBRANCH   5   7
BRANCH   1  13
ATOM     13  O   UNL     1      44.519  10.327  12.163  0.00  0.00    +0.000 OA
BRANCH  13  15
ATOM     14  C   UNL     1      42.389  11.154  11.457  0.00  0.00    +0.000 C 
ATOM     15  C   UNL     1      43.758  10.681  11.008  0.00  0.00    +0.000 C 
ENDBRANCH  13  15
ENDBRANCH   1  13
BRANCH   3  16
ATOM     16  C   UNL     1      48.985   8.126  12.340  0.00  0.00    +0.000 C 
BRANCH  16  17
ATOM     17  C   UNL     1      49.222   8.426  13.825  0.00  0.00    +0.000 C 
BRANCH  17  18
ATOM     18  N   UNL     1      50.034   7.396  14.460  0.00  0.00    +0.000 N 
ATOM     19  C   UNL     1      49.396   6.476  15.285  0.00  0.00    +0.000 A 
ATOM     20  C   UNL     1      48.113   5.998  15.038  0.00  0.00    +0.000 A 
ATOM     21  C   UNL     1      47.554   5.039  15.882  0.00  0.00    +0.000 A 
ATOM     22  C   UNL     1      48.294   4.542  16.949  0.00  0.00    +0.000 A 
ATOM     23  C   UNL     1      49.567   5.062  17.123  0.00  0.00    +0.000 A 
ATOM     24  N   UNL     1      50.124   6.016  16.322  0.00  0.00    +0.000 NA
ATOM     25  H   UNL     1      50.871   7.711  14.945  0.00  0.00    +0.000 HD
BRANCH  22  26
ATOM     26  C   UNL     1      47.684   3.497  17.808  0.00  0.00    +0.000 C 
ATOM     27  N   UNL     1      48.309   3.132  18.966  0.00  0.00    +0.000 N 
ATOM     28  O   UNL     1      46.632   2.952  17.490  0.00  0.00    +0.000 OA
ATOM     29  H   UNL     1      49.194   3.480  19.297  0.00  0.00    +0.000 HD
ATOM     30  H   UNL     1      47.865   2.395  19.502  0.00  0.00    +0.000 HD
ENDBRANCH  22  26
ENDBRANCH  17  18
ENDBRANCH  16  17
ENDBRANCH   3  16
TORSDOF 7
ENDMDL
MODEL 6
REMARK VINA RESULT:    -6.617      3.862      6.809
REMARK INTER + INTRA:         -10.505
REMARK INTER:                  -9.111
REMARK INTRA:                  -1.394
REMARK UNBOUND:                -1.181
REMARK  Name = 
REMARK  8 active torsions:
REMARK  status: ('A' for Active; 'I' for Inactive)
REMARK    1  A    between atoms: C_1  and  C_2
REMARK    2  A    between atoms: C_2  and  O_3
REMARK    3  A    between atoms: O_3  and  C_4
REMARK    4  A    between atoms: C_6  and  C_7
REMARK    5  A    between atoms: C_7  and  C_8
REMARK    6  A    between atoms: C_8  and  N_9
REMARK    7  A    between atoms: C_13  and  C_14
REMARK    8  A    between atoms: C_20  and  C_21
REMARK                            x       y       z     vdW  Elec       q    Type
REMARK                         _______ _______ _______ _____ _____    ______ ____
ROOT
ATOM      1  C   UNL     1      47.980   5.524  15.149  0.00  0.00    +0.000 A 
ATOM      2  C   UNL     1      48.513   6.765  14.800  0.00  0.00    +0.000 A 
ATOM      3  C   UNL     1      48.085   7.414  13.637  0.00  0.00    +0.000 A 
ATOM      4  C   UNL     1      47.115   6.802  12.827  0.00  0.00    +0.000 A 
ATOM      5  C   UNL     1      46.593   5.529  13.124  0.00  0.00    +0.000 A 
ATOM      6  C   UNL     1      47.027   4.922  14.317  0.00  0.00    +0.000 A 
ENDROOT
BRANCH   5   7
ATOM      7  C   UNL     1      45.705   4.822  12.169  0.00  0.00    +0.000 A 
ATOM      8  C   UNL     1      45.141   3.574  12.503  0.00  0.00    +0.000 A 
ATOM      9  C   UNL     1      44.252   2.914  11.650  0.00  0.00    +0.000 A 
ATOM     10  C   UNL     1      43.897   3.492  10.438  0.00  0.00    +0.000 A 
ATOM     11  C   UNL     1      44.441   4.721  10.076  0.00  0.00    +0.000 A 
ATOM     12  C   UNL     1      45.340   5.374  10.929  0.00  0.00    +0.000 A 
ENDBRANCH   5   7
BRANCH   1  13
ATOM     13  O   UNL     1      48.338   4.786  16.247  0.00  0.00    +0.000 OA
BRANCH  13  15
ATOM     14  C   UNL     1      47.486   2.914  17.468  0.00  0.00    +0.000 C 
ATOM     15  C   UNL     1      47.279   4.373  17.112  0.00  0.00    +0.000 C 
ENDBRANCH  13  15
ENDBRANCH   1  13
BRANCH   3  16
ATOM     16  C   UNL     1      48.759   8.691  13.182  0.00  0.00    +0.000 C 
BRANCH  16  17
ATOM     17  C   UNL     1      47.971   9.306  12.019  0.00  0.00    +0.000 C 
BRANCH  17  18
ATOM     18  N   UNL     1      47.039  10.327  12.480  0.00  0.00    +0.000 N 
ATOM     19  C   UNL     1      45.751  10.321  11.959  0.00  0.00    +0.000 A 
ATOM     20  C   UNL     1      45.068   9.152  11.639  0.00  0.00    +0.000 A 
ATOM     21  C   UNL     1      43.758   9.219  11.165  0.00  0.00    +0.000 A 
ATOM     22  C   UNL     1      43.130  10.453  11.044  0.00  0.00    +0.000 A 
ATOM     23  C   UNL     1      43.874  11.570  11.391  0.00  0.00    +0.000 A 
ATOM     24  N   UNL     1      45.163  11.528  11.835  0.00  0.00    +0.000 NA
ATOM     25  H   UNL     1      47.372  11.289  12.459  0.00  0.00    +0.000 HD
BRANCH  22  26
ATOM     26  C   UNL     1      41.724  10.488  10.570  0.00  0.00    +0.000 C 
ATOM     27  N   UNL     1      40.802   9.662  11.145  0.00  0.00    +0.000 N 
ATOM     28  O   UNL     1      41.381  11.243   9.666  0.00  0.00    +0.000 OA
ATOM     29  H   UNL     1      40.984   8.974  11.858  0.00  0.00    +0.000 HD
ATOM     30  H   UNL     1      39.862   9.705  10.766  0.00  0.00    +0.000 HD
ENDBRANCH  22  26
ENDBRANCH  17  18
ENDBRANCH  16  17
ENDBRANCH   3  16
TORSDOF 7
ENDMDL
MODEL 7
REMARK VINA RESULT:    -6.467      4.106      6.419
REMARK INTER + INTRA:         -10.294
REMARK INTER:                  -8.869
REMARK INTRA:                  -1.424
REMARK UNBOUND:                -1.181
REMARK  Name = 
REMARK  8 active torsions:
REMARK  status: ('A' for Active; 'I' for Inactive)
REMARK    1  A    between atoms: C_1  and  C_2
REMARK    2  A    between atoms: C_2  and  O_3
REMARK    3  A    between atoms: O_3  and  C_4
REMARK    4  A    between atoms: C_6  and  C_7
REMARK    5  A    between atoms: C_7  and  C_8
REMARK    6  A    between atoms: C_8  and  N_9
REMARK    7  A    between atoms: C_13  and  C_14
REMARK    8  A    between atoms: C_20  and  C_21
REMARK                            x       y       z     vdW  Elec       q    Type
REMARK                         _______ _______ _______ _____ _____    ______ ____
ROOT
ATOM      1  C   UNL     1      49.153   6.154  16.769  0.00  0.00    +0.000 A 
ATOM      2  C   UNL     1      49.028   6.997  15.665  0.00  0.00    +0.000 A 
ATOM      3  C   UNL     1      48.570   8.309  15.827  0.00  0.00    +0.000 A 
ATOM      4  C   UNL     1      48.240   8.766  17.113  0.00  0.00    +0.000 A 
ATOM      5  C   UNL     1      48.308   7.927  18.241  0.00  0.00    +0.000 A 
ATOM      6  C   UNL     1      48.800   6.624  18.041  0.00  0.00    +0.000 A 
ENDROOT
BRANCH   5   7
ATOM      7  C   UNL     1      47.788   8.369  19.559  0.00  0.00    +0.000 A 
ATOM      8  C   UNL     1      47.141   9.614  19.693  0.00  0.00    +0.000 A 
ATOM      9  C   UNL     1      46.586  10.030  20.907  0.00  0.00    +0.000 A 
ATOM     10  C   UNL     1      46.658   9.203  22.021  0.00  0.00    +0.000 A 
ATOM     11  C   UNL     1      47.296   7.969  21.922  0.00  0.00    +0.000 A 
ATOM     12  C   UNL     1      47.860   7.561  20.707  0.00  0.00    +0.000 A 
ENDBRANCH   5   7
BRANCH   1  13
ATOM     13  O   UNL     1      49.566   4.848  16.729  0.00  0.00    +0.000 OA
BRANCH  13  15
ATOM     14  C   UNL     1      47.568   3.632  16.232  0.00  0.00    +0.000 C 
ATOM     15  C   UNL     1      48.661   3.875  17.254  0.00  0.00    +0.000 C 
ENDBRANCH  13  15
ENDBRANCH   1  13
BRANCH   3  16
ATOM     16  C   UNL     1      48.300   9.180  14.619  0.00  0.00    +0.000 C 
BRANCH  16  17
ATOM     17  C   UNL     1      47.886   8.302  13.431  0.00  0.00    +0.000 C 
BRANCH  17  18
ATOM     18  N   UNL     1      46.437   8.238  13.289  0.00  0.00    +0.000 N 
ATOM     19  C   UNL     1      45.872   7.035  12.881  0.00  0.00    +0.000 A 
ATOM     20  C   UNL     1      46.378   5.795  13.256  0.00  0.00    +0.000 A 
ATOM     21  C   UNL     1      45.731   4.628  12.848  0.00  0.00    +0.000 A 
ATOM     22  C   UNL     1      44.566   4.711  12.095  0.00  0.00    +0.000 A 
ATOM     23  C   UNL     1      44.121   5.983  11.770  0.00  0.00    +0.000 A 
ATOM     24  N   UNL     1      44.751   7.136  12.139  0.00  0.00    +0.000 NA
ATOM     25  H   UNL     1      45.999   8.979  12.747  0.00  0.00    +0.000 HD
BRANCH  22  26
ATOM     26  C   UNL     1      43.882   3.452  11.707  0.00  0.00    +0.000 C 
ATOM     27  N   UNL     1      43.910   2.385  12.558  0.00  0.00    +0.000 N 
ATOM     28  O   UNL     1      43.300   3.355  10.633  0.00  0.00    +0.000 OA
ATOM     29  H   UNL     1      44.395   2.341  13.440  0.00  0.00    +0.000 HD
ATOM     30  H   UNL     1      43.451   1.541  12.234  0.00  0.00    +0.000 HD
ENDBRANCH  22  26
ENDBRANCH  17  18
ENDBRANCH  16  17
ENDBRANCH   3  16
TORSDOF 7
ENDMDL
