MODEL 1
REMARK VINA RESULT:    -8.344      0.000      0.000
REMARK INTER + INTRA:         -13.153
REMARK INTER:                 -12.490
REMARK INTRA:                  -0.663
REMARK UNBOUND:                -0.663
REMARK  Name = 
REMARK  9 active torsions:
REMARK  status: ('A' for Active; 'I' for Inactive)
REMARK    1  A    between atoms: N_1  and  C_2
REMARK    2  A    between atoms: C_2  and  C_3
REMARK    3  A    between atoms: C_2  and  C_26
REMARK    4  A    between atoms: C_3  and  N_4
REMARK    5  A    between atoms: N_4  and  C_5
REMARK    6  A    between atoms: C_5  and  C_6
REMARK    7  A    between atoms: C_9  and  C_10
REMARK    8  A    between atoms: C_10  and  N_11
REMARK    9  A    between atoms: C_12  and  C_14
REMARK                            x       y       z     vdW  Elec       q    Type
REMARK                         _______ _______ _______ _____ _____    ______ ____
ROOT
ATOM      1  C   UNL     1      44.735   5.491  12.053  0.00  0.00    +0.000 A 
ATOM      2  C   UNL     1      45.205   6.807  11.926  0.00  0.00    +0.000 A 
ATOM      3  C   UNL     1      46.380   7.224  12.554  0.00  0.00    +0.000 A 
ATOM      4  C   UNL     1      47.119   6.331  13.336  0.00  0.00    +0.000 A 
ATOM      5  C   UNL     1      46.619   5.036  13.529  0.00  0.00    +0.000 A 
ATOM      6  C   UNL     1      45.442   4.620  12.892  0.00  0.00    +0.000 A 
ENDROOT
BRANCH   1   7
ATOM      7  C   UNL     1      43.471   5.020  11.355  0.00  0.00    +0.000 C 
BRANCH   7   8
ATOM      8  N   UNL     1      43.609   5.047   9.897  0.00  0.00    +0.000 NA
ATOM      9  H   UNL     1      42.862   4.476   9.502  0.00  0.00    +0.000 HD
BRANCH   8  10
ATOM     10  C   UNL     1      44.874   4.457   9.437  0.00  0.00    +0.000 C 
BRANCH  10  11
ATOM     11  C   UNL     1      44.650   3.026   8.845  0.00  0.00    +0.000 C 
BRANCH  11  12
ATOM     12  C   UNL     1      45.756   2.619   7.885  0.00  0.00    +0.000 A 
ATOM     13  C   UNL     1      46.183   3.415   6.811  0.00  0.00    +0.000 A 
ATOM     14  C   UNL     1      47.210   2.979   5.978  0.00  0.00    +0.000 A 
ATOM     15  C   UNL     1      47.776   1.742   6.232  0.00  0.00    +0.000 A 
ATOM     16  N   UNL     1      47.381   0.930   7.235  0.00  0.00    +0.000 NA
ATOM     17  C   UNL     1      46.391   1.389   8.035  0.00  0.00    +0.000 A 
ENDBRANCH  11  12
BRANCH  11  18
ATOM     18  N   UNL     1      44.477   2.037   9.926  0.00  0.00    +0.000 NA
ATOM     19  H   UNL     1      45.312   1.453   9.964  0.00  0.00    +0.000 HD
ATOM     20  H   UNL     1      43.751   1.387   9.615  0.00  0.00    +0.000 HD
ENDBRANCH  11  18
ENDBRANCH  10  11
ENDBRANCH   8  10
ENDBRANCH   7   8
ENDBRANCH   1   7
BRANCH   4  21
ATOM     21  C   UNL     1      48.396   6.773  14.000  0.00  0.00    +0.000 C 
BRANCH  21  22
ATOM     22  N   UNL     1      48.201   6.937  15.413  0.00  0.00    +0.000 N 
ATOM     23  C   UNL     1      49.158   6.599  16.333  0.00  0.00    +0.000 C 
ATOM     24  O   UNL     1      50.264   6.176  16.013  0.00  0.00    +0.000 OA
ATOM     25  H   UNL     1      47.239   7.014  15.716  0.00  0.00    +0.000 HD
BRANCH  23  26
ATOM     26  C   UNL     1      48.801   6.852  17.735  0.00  0.00    +0.000 A 
ATOM     27  C   UNL     1      48.491   8.133  18.161  0.00  0.00    +0.000 A 
ATOM     28  S   UNL     1      48.001   8.208  19.795  0.00  0.00    +0.000 S 
ATOM     29  C   UNL     1      48.248   6.536  20.004  0.00  0.00    +0.000 A 
ATOM     30  N   UNL     1      48.019   5.933  21.203  0.00  0.00    +0.000 NA
ATOM     31  C   UNL     1      48.265   4.668  21.218  0.00  0.00    +0.000 A 
ATOM     32  N   UNL     1      48.723   3.946  20.147  0.00  0.00    +0.000 N 
ATOM     33  C   UNL     1      48.964   4.506  18.916  0.00  0.00    +0.000 A 
ATOM     34  O   UNL     1      49.360   3.827  17.981  0.00  0.00    +0.000 OA
ATOM     35  C   UNL     1      48.691   5.930  18.843  0.00  0.00    +0.000 A 
ATOM     36  H   UNL     1      48.900   2.954  20.225  0.00  0.00    +0.000 HD
ENDBRANCH  23  26
ENDBRANCH  21  22
ENDBRANCH   4  21
TORSDOF 9
ENDMDL
MODEL 2
REMARK VINA RESULT:    -8.199      1.249      2.073
REMARK INTER + INTRA:         -12.935
REMARK INTER:                 -12.090
REMARK INTRA:                  -0.845
REMARK UNBOUND:                -0.663
REMARK  Name = 
REMARK  9 active torsions:
REMARK  status: ('A' for Active; 'I' for Inactive)
REMARK    1  A    between atoms: N_1  and  C_2
REMARK    2  A    between atoms: C_2  and  C_3
REMARK    3  A    between atoms: C_2  and  C_26
REMARK    4  A    between atoms: C_3  and  N_4
REMARK    5  A    between atoms: N_4  and  C_5
REMARK    6  A    between atoms: C_5  and  C_6
REMARK    7  A    between atoms: C_9  and  C_10
REMARK    8  A    between atoms: C_10  and  N_11
REMARK    9  A    between atoms: C_12  and  C_14
REMARK                            x       y       z     vdW  Elec       q    Type
REMARK                         _______ _______ _______ _____ _____    ______ ____
ROOT
ATOM      1  C   UNL     1      44.660   5.527  12.060  0.00  0.00    +0.000 A 
ATOM      2  C   UNL     1      45.357   4.669  12.924  0.00  0.00    +0.000 A 
ATOM      3  C   UNL     1      46.497   5.095  13.609  0.00  0.00    +0.000 A 
ATOM      4  C   UNL     1      46.976   6.397  13.444  0.00  0.00    +0.000 A 
ATOM      5  C   UNL     1      46.330   7.239  12.528  0.00  0.00    +0.000 A 
ATOM      6  C   UNL     1      45.183   6.809  11.846  0.00  0.00    +0.000 A 
ENDROOT
BRANCH   1   7
ATOM      7  C   UNL     1      43.406   5.083  11.327  0.00  0.00    +0.000 C 
BRANCH   7   8
ATOM      8  N   UNL     1      43.601   5.054   9.876  0.00  0.00    +0.000 NA
ATOM      9  H   UNL     1      42.866   4.474   9.473  0.00  0.00    +0.000 HD
BRANCH   8  10
ATOM     10  C   UNL     1      44.878   4.439   9.489  0.00  0.00    +0.000 C 
BRANCH  10  11
ATOM     11  C   UNL     1      44.658   3.025   8.856  0.00  0.00    +0.000 C 
BRANCH  11  12
ATOM     12  C   UNL     1      45.769   2.646   7.890  0.00  0.00    +0.000 A 
ATOM     13  C   UNL     1      46.221   3.483   6.859  0.00  0.00    +0.000 A 
ATOM     14  C   UNL     1      47.251   3.069   6.018  0.00  0.00    +0.000 A 
ATOM     15  C   UNL     1      47.795   1.814   6.222  0.00  0.00    +0.000 A 
ATOM     16  N   UNL     1      47.376   0.962   7.181  0.00  0.00    +0.000 NA
ATOM     17  C   UNL     1      46.383   1.400   7.991  0.00  0.00    +0.000 A 
ENDBRANCH  11  12
BRANCH  11  18
ATOM     18  N   UNL     1      44.481   2.006   9.908  0.00  0.00    +0.000 NA
ATOM     19  H   UNL     1      44.408   2.482  10.807  0.00  0.00    +0.000 HD
ATOM     20  H   UNL     1      45.368   1.503   9.981  0.00  0.00    +0.000 HD
ENDBRANCH  11  18
ENDBRANCH  10  11
ENDBRANCH   8  10
ENDBRANCH   7   8
ENDBRANCH   1   7
BRANCH   4  21
ATOM     21  C   UNL     1      48.194   6.865  14.195  0.00  0.00    +0.000 C 
BRANCH  21  22
ATOM     22  N   UNL     1      48.069   6.570  15.595  0.00  0.00    +0.000 N 
ATOM     23  C   UNL     1      49.147   6.263  16.382  0.00  0.00    +0.000 C 
ATOM     24  O   UNL     1      50.298   6.262  15.958  0.00  0.00    +0.000 OA
ATOM     25  H   UNL     1      47.145   6.296  15.904  0.00  0.00    +0.000 HD
BRANCH  23  26
ATOM     26  C   UNL     1      48.841   6.009  17.797  0.00  0.00    +0.000 A 
ATOM     27  C   UNL     1      49.079   4.763  18.354  0.00  0.00    +0.000 A 
ATOM     28  S   UNL     1      48.759   4.694  20.029  0.00  0.00    +0.000 S 
ATOM     29  C   UNL     1      48.233   6.313  20.053  0.00  0.00    +0.000 A 
ATOM     30  N   UNL     1      47.800   6.899  21.203  0.00  0.00    +0.000 NA
ATOM     31  C   UNL     1      47.417   8.122  21.067  0.00  0.00    +0.000 A 
ATOM     32  N   UNL     1      47.421   8.817  19.886  0.00  0.00    +0.000 N 
ATOM     33  C   UNL     1      47.852   8.274  18.699  0.00  0.00    +0.000 A 
ATOM     34  O   UNL     1      47.853   8.929  17.668  0.00  0.00    +0.000 OA
ATOM     35  C   UNL     1      48.307   6.899  18.802  0.00  0.00    +0.000 A 
ATOM     36  H   UNL     1      47.104   9.775  19.844  0.00  0.00    +0.000 HD
ENDBRANCH  23  26
ENDBRANCH  21  22
ENDBRANCH   4  21
TORSDOF 9
ENDMDL
MODEL 3
REMARK VINA RESULT:    -8.100      2.172      2.670
REMARK INTER + INTRA:         -12.787
REMARK INTER:                 -11.583
REMARK INTRA:                  -1.204
REMARK UNBOUND:                -0.663
REMARK  Name = 
REMARK  9 active torsions:
REMARK  status: ('A' for Active; 'I' for Inactive)
REMARK    1  A    between atoms: N_1  and  C_2
REMARK    2  A    between atoms: C_2  and  C_3
REMARK    3  A    between atoms: C_2  and  C_26
REMARK    4  A    between atoms: C_3  and  N_4
REMARK    5  A    between atoms: N_4  and  C_5
REMARK    6  A    between atoms: C_5  and  C_6
REMARK    7  A    between atoms: C_9  and  C_10
REMARK    8  A    between atoms: C_10  and  N_11
REMARK    9  A    between atoms: C_12  and  C_14
REMARK                            x       y       z     vdW  Elec       q    Type
REMARK                         _______ _______ _______ _____ _____    ______ ____
ROOT
ATOM      1  C   UNL     1      44.609   5.060  12.817  0.00  0.00    +0.000 A 
ATOM      2  C   UNL     1      45.849   4.589  13.273  0.00  0.00    +0.000 A 
ATOM      3  C   UNL     1      46.969   5.421  13.324  0.00  0.00    +0.000 A 
ATOM      4  C   UNL     1      46.879   6.754  12.914  0.00  0.00    +0.000 A 
ATOM      5  C   UNL     1      45.663   7.214  12.389  0.00  0.00    +0.000 A 
ATOM      6  C   UNL     1      44.540   6.376  12.344  0.00  0.00    +0.000 A 
ENDROOT
BRANCH   1   7
ATOM      7  C   UNL     1      43.378   4.170  12.779  0.00  0.00    +0.000 C 
BRANCH   7   8
ATOM      8  N   UNL     1      42.981   3.846  11.407  0.00  0.00    +0.000 NA
ATOM      9  H   UNL     1      42.140   3.270  11.453  0.00  0.00    +0.000 HD
BRANCH   8  10
ATOM     10  C   UNL     1      43.992   3.051  10.697  0.00  0.00    +0.000 C 
BRANCH  10  11
ATOM     11  C   UNL     1      44.670   3.882   9.557  0.00  0.00    +0.000 C 
BRANCH  11  12
ATOM     12  C   UNL     1      45.547   3.023   8.661  0.00  0.00    +0.000 A 
ATOM     13  C   UNL     1      46.333   3.538   7.619  0.00  0.00    +0.000 A 
ATOM     14  C   UNL     1      47.120   2.689   6.846  0.00  0.00    +0.000 A 
ATOM     15  C   UNL     1      47.087   1.335   7.125  0.00  0.00    +0.000 A 
ATOM     16  N   UNL     1      46.326   0.789   8.096  0.00  0.00    +0.000 NA
ATOM     17  C   UNL     1      45.585   1.642   8.840  0.00  0.00    +0.000 A 
ENDBRANCH  11  12
BRANCH  11  18
ATOM     18  N   UNL     1      43.656   4.621   8.780  0.00  0.00    +0.000 NA
ATOM     19  H   UNL     1      43.449   5.491   9.268  0.00  0.00    +0.000 HD
ATOM     20  H   UNL     1      42.783   4.093   8.861  0.00  0.00    +0.000 HD
ENDBRANCH  11  18
ENDBRANCH  10  11
ENDBRANCH   8  10
ENDBRANCH   7   8
ENDBRANCH   1   7
BRANCH   4  21
ATOM     21  C   UNL     1      48.080   7.660  12.986  0.00  0.00    +0.000 C 
BRANCH  21  22
ATOM     22  N   UNL     1      49.084   7.101  13.847  0.00  0.00    +0.000 N 
ATOM     23  C   UNL     1      49.708   7.833  14.822  0.00  0.00    +0.000 C 
ATOM     24  O   UNL     1      49.422   9.002  15.057  0.00  0.00    +0.000 OA
ATOM     25  H   UNL     1      49.528   6.255  13.512  0.00  0.00    +0.000 HD
BRANCH  23  26
ATOM     26  C   UNL     1      50.694   7.098  15.627  0.00  0.00    +0.000 A 
ATOM     27  C   UNL     1      52.042   7.404  15.535  0.00  0.00    +0.000 A 
ATOM     28  S   UNL     1      53.016   6.516  16.620  0.00  0.00    +0.000 S 
ATOM     29  C   UNL     1      51.673   5.649  17.206  0.00  0.00    +0.000 A 
ATOM     30  N   UNL     1      51.812   4.698  18.170  0.00  0.00    +0.000 NA
ATOM     31  C   UNL     1      50.713   4.112  18.502  0.00  0.00    +0.000 A 
ATOM     32  N   UNL     1      49.485   4.385  17.959  0.00  0.00    +0.000 N 
ATOM     33  C   UNL     1      49.291   5.338  16.989  0.00  0.00    +0.000 A 
ATOM     34  O   UNL     1      48.178   5.562  16.537  0.00  0.00    +0.000 OA
ATOM     35  C   UNL     1      50.499   6.036  16.587  0.00  0.00    +0.000 A 
ATOM     36  H   UNL     1      48.659   3.887  18.261  0.00  0.00    +0.000 HD
ENDBRANCH  23  26
ENDBRANCH  21  22
ENDBRANCH   4  21
TORSDOF 9
ENDMDL
MODEL 4
REMARK VINA RESULT:    -7.979      1.603      2.038
REMARK INTER + INTRA:         -12.606
REMARK INTER:                 -11.645
REMARK INTRA:                  -0.961
REMARK UNBOUND:                -0.663
REMARK  Name = 
REMARK  9 active torsions:
REMARK  status: ('A' for Active; 'I' for Inactive)
REMARK    1  A    between atoms: N_1  and  C_2
REMARK    2  A    between atoms: C_2  and  C_3
REMARK    3  A    between atoms: C_2  and  C_26
REMARK    4  A    between atoms: C_3  and  N_4
REMARK    5  A    between atoms: N_4  and  C_5
REMARK    6  A    between atoms: C_5  and  C_6
REMARK    7  A    between atoms: C_9  and  C_10
REMARK    8  A    between atoms: C_10  and  N_11
REMARK    9  A    between atoms: C_12  and  C_14
REMARK                            x       y       z     vdW  Elec       q    Type
REMARK                         _______ _______ _______ _____ _____    ______ ____
ROOT
ATOM      1  C   UNL     1      44.670   6.594  11.600  0.00  0.00    +0.000 A 
ATOM      2  C   UNL     1      45.775   5.840  12.024  0.00  0.00    +0.000 A 
ATOM      3  C   UNL     1      46.808   6.416  12.766  0.00  0.00    +0.000 A 
ATOM      4  C   UNL     1      46.766   7.772  13.102  0.00  0.00    +0.000 A 
ATOM      5  C   UNL     1      45.704   8.550  12.622  0.00  0.00    +0.000 A 
ATOM      6  C   UNL     1      44.666   7.966  11.881  0.00  0.00    +0.000 A 
ENDROOT
BRANCH   1   7
ATOM      7  C   UNL     1      43.529   5.973  10.813  0.00  0.00    +0.000 C 
BRANCH   7   8
ATOM      8  N   UNL     1      43.764   4.553  10.540  0.00  0.00    +0.000 NA
ATOM      9  H   UNL     1      44.472   4.222  11.195  0.00  0.00    +0.000 HD
BRANCH   8  10
ATOM     10  C   UNL     1      44.300   4.317   9.192  0.00  0.00    +0.000 C 
BRANCH  10  11
ATOM     11  C   UNL     1      44.482   2.787   8.914  0.00  0.00    +0.000 C 
BRANCH  11  12
ATOM     12  C   UNL     1      45.676   2.502   8.018  0.00  0.00    +0.000 A 
ATOM     13  C   UNL     1      46.188   3.421   7.090  0.00  0.00    +0.000 A 
ATOM     14  C   UNL     1      47.292   3.092   6.309  0.00  0.00    +0.000 A 
ATOM     15  C   UNL     1      47.851   1.836   6.467  0.00  0.00    +0.000 A 
ATOM     16  N   UNL     1      47.378   0.908   7.325  0.00  0.00    +0.000 NA
ATOM     17  C   UNL     1      46.313   1.265   8.080  0.00  0.00    +0.000 A 
ENDBRANCH  11  12
BRANCH  11  18
ATOM     18  N   UNL     1      44.560   2.034  10.181  0.00  0.00    +0.000 NA
ATOM     19  H   UNL     1      44.885   1.091   9.974  0.00  0.00    +0.000 HD
ATOM     20  H   UNL     1      43.597   1.887  10.492  0.00  0.00    +0.000 HD
ENDBRANCH  11  18
ENDBRANCH  10  11
ENDBRANCH   8  10
ENDBRANCH   7   8
ENDBRANCH   1   7
BRANCH   4  21
ATOM     21  C   UNL     1      47.870   8.393  13.917  0.00  0.00    +0.000 C 
BRANCH  21  22
ATOM     22  N   UNL     1      48.145   7.600  15.082  0.00  0.00    +0.000 N 
ATOM     23  C   UNL     1      49.385   7.083  15.345  0.00  0.00    +0.000 C 
ATOM     24  O   UNL     1      50.357   7.297  14.629  0.00  0.00    +0.000 OA
ATOM     25  H   UNL     1      47.337   7.185  15.530  0.00  0.00    +0.000 HD
BRANCH  23  26
ATOM     26  C   UNL     1      49.495   6.313  16.592  0.00  0.00    +0.000 A 
ATOM     27  C   UNL     1      50.342   6.734  17.605  0.00  0.00    +0.000 A 
ATOM     28  S   UNL     1      50.253   5.770  19.011  0.00  0.00    +0.000 S 
ATOM     29  C   UNL     1      49.124   4.720  18.289  0.00  0.00    +0.000 A 
ATOM     30  N   UNL     1      48.627   3.646  18.961  0.00  0.00    +0.000 NA
ATOM     31  C   UNL     1      47.795   2.932  18.285  0.00  0.00    +0.000 A 
ATOM     32  N   UNL     1      47.413   3.187  16.993  0.00  0.00    +0.000 N 
ATOM     33  C   UNL     1      47.881   4.260  16.273  0.00  0.00    +0.000 A 
ATOM     34  O   UNL     1      47.508   4.462  15.128  0.00  0.00    +0.000 OA
ATOM     35  C   UNL     1      48.815   5.104  16.997  0.00  0.00    +0.000 A 
ATOM     36  H   UNL     1      46.758   2.585  16.515  0.00  0.00    +0.000 HD
ENDBRANCH  23  26
ENDBRANCH  21  22
ENDBRANCH   4  21
TORSDOF 9
ENDMDL
MODEL 5
REMARK VINA RESULT:    -7.598      1.560      2.120
REMARK INTER + INTRA:         -12.036
REMARK INTER:                 -10.822
REMARK INTRA:                  -1.214
REMARK UNBOUND:                -0.663
REMARK  Name = 
REMARK  9 active torsions:
REMARK  status: ('A' for Active; 'I' for Inactive)
REMARK    1  A    between atoms: N_1  and  C_2
REMARK    2  A    between atoms: C_2  and  C_3
REMARK    3  A    between atoms: C_2  and  C_26
REMARK    4  A    between atoms: C_3  and  N_4
REMARK    5  A    between atoms: N_4  and  C_5
REMARK    6  A    between atoms: C_5  and  C_6
REMARK    7  A    between atoms: C_9  and  C_10
REMARK    8  A    between atoms: C_10  and  N_11
REMARK    9  A    between atoms: C_12  and  C_14
REMARK                            x       y       z     vdW  Elec       q    Type
REMARK                         _______ _______ _______ _____ _____    ______ ____
ROOT
ATOM      1  C   UNL     1      45.477   6.912  12.345  0.00  0.00    +0.000 A 
ATOM      2  C   UNL     1      46.539   5.997  12.410  0.00  0.00    +0.000 A 
ATOM      3  C   UNL     1      47.777   6.356  12.948  0.00  0.00    +0.000 A 
ATOM      4  C   UNL     1      47.988   7.649  13.433  0.00  0.00    +0.000 A 
ATOM      5  C   UNL     1      46.958   8.591  13.306  0.00  0.00    +0.000 A 
ATOM      6  C   UNL     1      45.715   8.225  12.770  0.00  0.00    +0.000 A 
ENDROOT
BRANCH   1   7
ATOM      7  C   UNL     1      44.119   6.526  11.783  0.00  0.00    +0.000 C 
BRANCH   7   8
ATOM      8  N   UNL     1      43.744   5.159  12.154  0.00  0.00    +0.000 NA
ATOM      9  H   UNL     1      44.584   4.683  12.483  0.00  0.00    +0.000 HD
BRANCH   8  10
ATOM     10  C   UNL     1      43.242   4.381  11.014  0.00  0.00    +0.000 C 
BRANCH  10  11
ATOM     11  C   UNL     1      44.107   3.097  10.778  0.00  0.00    +0.000 C 
BRANCH  11  12
ATOM     12  C   UNL     1      44.971   3.205   9.533  0.00  0.00    +0.000 A 
ATOM     13  C   UNL     1      45.466   2.094   8.833  0.00  0.00    +0.000 A 
ATOM     14  C   UNL     1      46.245   2.272   7.693  0.00  0.00    +0.000 A 
ATOM     15  C   UNL     1      46.524   3.565   7.288  0.00  0.00    +0.000 A 
ATOM     16  N   UNL     1      46.095   4.664   7.943  0.00  0.00    +0.000 NA
ATOM     17  C   UNL     1      45.327   4.457   9.039  0.00  0.00    +0.000 A 
ENDBRANCH  11  12
BRANCH  11  18
ATOM     18  N   UNL     1      44.912   2.786  11.975  0.00  0.00    +0.000 NA
ATOM     19  H   UNL     1      45.759   3.352  11.948  0.00  0.00    +0.000 HD
ATOM     20  H   UNL     1      45.263   1.834  11.851  0.00  0.00    +0.000 HD
ENDBRANCH  11  18
ENDBRANCH  10  11
ENDBRANCH   8  10
ENDBRANCH   7   8
ENDBRANCH   1   7
BRANCH   4  21
ATOM     21  C   UNL     1      49.316   8.034  14.031  0.00  0.00    +0.000 C 
BRANCH  21  22
ATOM     22  N   UNL     1      49.208   8.173  15.456  0.00  0.00    +0.000 N 
ATOM     23  C   UNL     1      49.557   7.171  16.322  0.00  0.00    +0.000 C 
ATOM     24  O   UNL     1      50.027   6.103  15.944  0.00  0.00    +0.000 OA
ATOM     25  H   UNL     1      48.586   8.903  15.779  0.00  0.00    +0.000 HD
BRANCH  23  26
ATOM     26  C   UNL     1      49.404   7.489  17.748  0.00  0.00    +0.000 A 
ATOM     27  C   UNL     1      50.110   8.538  18.313  0.00  0.00    +0.000 A 
ATOM     28  S   UNL     1      49.721   8.817  19.951  0.00  0.00    +0.000 S 
ATOM     29  C   UNL     1      48.639   7.503  19.977  0.00  0.00    +0.000 A 
ATOM     30  N   UNL     1      47.955   7.172  21.107  0.00  0.00    +0.000 NA
ATOM     31  C   UNL     1      47.185   6.146  20.983  0.00  0.00    +0.000 A 
ATOM     32  N   UNL     1      47.036   5.413  19.834  0.00  0.00    +0.000 N 
ATOM     33  C   UNL     1      47.699   5.709  18.667  0.00  0.00    +0.000 A 
ATOM     34  O   UNL     1      47.530   5.039  17.659  0.00  0.00    +0.000 OA
ATOM     35  C   UNL     1      48.571   6.866  18.752  0.00  0.00    +0.000 A 
ATOM     36  H   UNL     1      46.418   4.615  19.802  0.00  0.00    +0.000 HD
ENDBRANCH  23  26
ENDBRANCH  21  22
ENDBRANCH   4  21
TORSDOF 9
ENDMDL
MODEL 6
REMARK VINA RESULT:    -7.091      4.195      9.303
REMARK INTER + INTRA:         -11.278
REMARK INTER:                  -8.894
REMARK INTRA:                  -2.384
REMARK UNBOUND:                -0.663
REMARK  Name = 
REMARK  9 active torsions:
REMARK  status: ('A' for Active; 'I' for Inactive)
REMARK    1  A    between atoms: N_1  and  C_2
REMARK    2  A    between atoms: C_2  and  C_3
REMARK    3  A    between atoms: C_2  and  C_26
REMARK    4  A    between atoms: C_3  and  N_4
REMARK    5  A    between atoms: N_4  and  C_5
REMARK    6  A    between atoms: C_5  and  C_6
REMARK    7  A    between atoms: C_9  and  C_10
REMARK    8  A    between atoms: C_10  and  N_11
REMARK    9  A    between atoms: C_12  and  C_14
REMARK                            x       y       z     vdW  Elec       q    Type
REMARK                         _______ _______ _______ _____ _____    ______ ____
ROOT
ATOM      1  C   UNL     1      50.425   8.853  11.428  0.00  0.00    +0.000 A 
ATOM      2  C   UNL     1      49.541   9.933  11.571  0.00  0.00    +0.000 A 
ATOM      3  C   UNL     1      48.241   9.751  12.046  0.00  0.00    +0.000 A 
ATOM      4  C   UNL     1      47.785   8.475  12.389  0.00  0.00    +0.000 A 
ATOM      5  C   UNL     1      48.636   7.380  12.181  0.00  0.00    +0.000 A 
ATOM      6  C   UNL     1      49.942   7.568  11.708  0.00  0.00    +0.000 A 
ENDROOT
BRANCH   1   7
ATOM      7  C   UNL     1      51.849   9.042  10.935  0.00  0.00    +0.000 C 
BRANCH   7   8
ATOM      8  N   UNL     1      52.834   8.619  11.933  0.00  0.00    +0.000 NA
ATOM      9  H   UNL     1      52.571   7.688  12.256  0.00  0.00    +0.000 HD
BRANCH   8  10
ATOM     10  C   UNL     1      52.844   9.485  13.120  0.00  0.00    +0.000 C 
BRANCH  10  11
ATOM     11  C   UNL     1      52.738   8.645  14.437  0.00  0.00    +0.000 C 
BRANCH  11  12
ATOM     12  C   UNL     1      51.312   8.557  14.953  0.00  0.00    +0.000 A 
ATOM     13  C   UNL     1      50.688   7.353  15.313  0.00  0.00    +0.000 A 
ATOM     14  C   UNL     1      49.379   7.354  15.787  0.00  0.00    +0.000 A 
ATOM     15  C   UNL     1      48.717   8.565  15.874  0.00  0.00    +0.000 A 
ATOM     16  N   UNL     1      49.264   9.745  15.514  0.00  0.00    +0.000 NA
ATOM     17  C   UNL     1      50.542   9.712  15.071  0.00  0.00    +0.000 A 
ENDBRANCH  11  12
BRANCH  11  18
ATOM     18  N   UNL     1      53.333   7.307  14.249  0.00  0.00    +0.000 NA
ATOM     19  H   UNL     1      53.354   7.102  13.251  0.00  0.00    +0.000 HD
ATOM     20  H   UNL     1      52.655   6.633  14.612  0.00  0.00    +0.000 HD
ENDBRANCH  11  18
ENDBRANCH  10  11
ENDBRANCH   8  10
ENDBRANCH   7   8
ENDBRANCH   1   7
BRANCH   4  21
ATOM     21  C   UNL     1      46.389   8.278  12.919  0.00  0.00    +0.000 C 
BRANCH  21  22
ATOM     22  N   UNL     1      45.922   6.951  12.632  0.00  0.00    +0.000 N 
ATOM     23  C   UNL     1      44.873   6.707  11.785  0.00  0.00    +0.000 C 
ATOM     24  O   UNL     1      44.289   7.599  11.180  0.00  0.00    +0.000 OA
ATOM     25  H   UNL     1      46.185   6.239  13.301  0.00  0.00    +0.000 HD
BRANCH  23  26
ATOM     26  C   UNL     1      44.541   5.289  11.588  0.00  0.00    +0.000 A 
ATOM     27  C   UNL     1      43.850   4.587  12.562  0.00  0.00    +0.000 A 
ATOM     28  S   UNL     1      43.467   2.987  12.106  0.00  0.00    +0.000 S 
ATOM     29  C   UNL     1      44.268   3.161  10.613  0.00  0.00    +0.000 A 
ATOM     30  N   UNL     1      44.328   2.135   9.720  0.00  0.00    +0.000 NA
ATOM     31  C   UNL     1      44.980   2.405   8.642  0.00  0.00    +0.000 A 
ATOM     32  N   UNL     1      45.584   3.605   8.371  0.00  0.00    +0.000 N 
ATOM     33  C   UNL     1      45.547   4.673   9.236  0.00  0.00    +0.000 A 
ATOM     34  O   UNL     1      46.087   5.732   8.954  0.00  0.00    +0.000 OA
ATOM     35  C   UNL     1      44.813   4.423  10.463  0.00  0.00    +0.000 A 
ATOM     36  H   UNL     1      46.085   3.754   7.507  0.00  0.00    +0.000 HD
ENDBRANCH  23  26
ENDBRANCH  21  22
ENDBRANCH   4  21
TORSDOF 9
ENDMDL
MODEL 7
REMARK VINA RESULT:    -6.997      1.589      2.045
REMARK INTER + INTRA:         -11.136
REMARK INTER:                 -10.372
REMARK INTRA:                  -0.764
REMARK UNBOUND:                -0.663
REMARK  Name = 
REMARK  9 active torsions:
REMARK  status: ('A' for Active; 'I' for Inactive)
REMARK    1  A    between atoms: N_1  and  C_2
REMARK    2  A    between atoms: C_2  and  C_3
REMARK    3  A    between atoms: C_2  and  C_26
REMARK    4  A    between atoms: C_3  and  N_4
REMARK    5  A    between atoms: N_4  and  C_5
REMARK    6  A    between atoms: C_5  and  C_6
REMARK    7  A    between atoms: C_9  and  C_10
REMARK    8  A    between atoms: C_10  and  N_11
REMARK    9  A    between atoms: C_12  and  C_14
REMARK                            x       y       z     vdW  Elec       q    Type
REMARK                         _______ _______ _______ _____ _____    ______ ____
ROOT
ATOM      1  C   UNL     1      45.736   6.452  12.100  0.00  0.00    +0.000 A 
ATOM      2  C   UNL     1      46.760   5.681  12.671  0.00  0.00    +0.000 A 
ATOM      3  C   UNL     1      47.741   6.258  13.479  0.00  0.00    +0.000 A 
ATOM      4  C   UNL     1      47.727   7.631  13.737  0.00  0.00    +0.000 A 
ATOM      5  C   UNL     1      46.752   8.422  13.114  0.00  0.00    +0.000 A 
ATOM      6  C   UNL     1      45.766   7.837  12.306  0.00  0.00    +0.000 A 
ENDROOT
BRANCH   1   7
ATOM      7  C   UNL     1      44.650   5.832  11.238  0.00  0.00    +0.000 C 
BRANCH   7   8
ATOM      8  N   UNL     1      45.140   4.668  10.497  0.00  0.00    +0.000 NA
ATOM      9  H   UNL     1      46.066   4.895  10.134  0.00  0.00    +0.000 HD
BRANCH   8  10
ATOM     10  C   UNL     1      44.304   4.345   9.332  0.00  0.00    +0.000 C 
BRANCH  10  11
ATOM     11  C   UNL     1      44.415   2.829   8.956  0.00  0.00    +0.000 C 
BRANCH  11  12
ATOM     12  C   UNL     1      45.598   2.547   8.045  0.00  0.00    +0.000 A 
ATOM     13  C   UNL     1      46.095   3.466   7.109  0.00  0.00    +0.000 A 
ATOM     14  C   UNL     1      47.190   3.138   6.314  0.00  0.00    +0.000 A 
ATOM     15  C   UNL     1      47.754   1.884   6.466  0.00  0.00    +0.000 A 
ATOM     16  N   UNL     1      47.295   0.956   7.332  0.00  0.00    +0.000 NA
ATOM     17  C   UNL     1      46.239   1.311   8.100  0.00  0.00    +0.000 A 
ENDBRANCH  11  12
BRANCH  11  18
ATOM     18  N   UNL     1      44.452   1.993  10.171  0.00  0.00    +0.000 NA
ATOM     19  H   UNL     1      45.074   2.434  10.846  0.00  0.00    +0.000 HD
ATOM     20  H   UNL     1      44.949   1.135   9.921  0.00  0.00    +0.000 HD
ENDBRANCH  11  18
ENDBRANCH  10  11
ENDBRANCH   8  10
ENDBRANCH   7   8
ENDBRANCH   1   7
BRANCH   4  21
ATOM     21  C   UNL     1      48.774   8.254  14.624  0.00  0.00    +0.000 C 
BRANCH  21  22
ATOM     22  N   UNL     1      49.183   7.332  15.646  0.00  0.00    +0.000 N 
ATOM     23  C   UNL     1      49.284   7.691  16.964  0.00  0.00    +0.000 C 
ATOM     24  O   UNL     1      48.989   8.810  17.370  0.00  0.00    +0.000 OA
ATOM     25  H   UNL     1      49.684   6.514  15.323  0.00  0.00    +0.000 HD
BRANCH  23  26
ATOM     26  C   UNL     1      49.697   6.618  17.879  0.00  0.00    +0.000 A 
ATOM     27  C   UNL     1      50.890   5.944  17.678  0.00  0.00    +0.000 A 
ATOM     28  S   UNL     1      51.245   4.807  18.901  0.00  0.00    +0.000 S 
ATOM     29  C   UNL     1      49.782   5.135  19.708  0.00  0.00    +0.000 A 
ATOM     30  N   UNL     1      49.445   4.482  20.855  0.00  0.00    +0.000 NA
ATOM     31  C   UNL     1      48.303   4.820  21.345  0.00  0.00    +0.000 A 
ATOM     32  N   UNL     1      47.459   5.749  20.795  0.00  0.00    +0.000 N 
ATOM     33  C   UNL     1      47.753   6.439  19.644  0.00  0.00    +0.000 A 
ATOM     34  O   UNL     1      46.981   7.269  19.190  0.00  0.00    +0.000 OA
ATOM     35  C   UNL     1      49.038   6.102  19.057  0.00  0.00    +0.000 A 
ATOM     36  H   UNL     1      46.572   5.968  21.227  0.00  0.00    +0.000 HD
ENDBRANCH  23  26
ENDBRANCH  21  22
ENDBRANCH   4  21
TORSDOF 9
ENDMDL
MODEL 8
REMARK VINA RESULT:    -6.951      3.802      5.640
REMARK INTER + INTRA:         -11.067
REMARK INTER:                 -10.005
REMARK INTRA:                  -1.063
REMARK UNBOUND:                -0.663
REMARK  Name = 
REMARK  9 active torsions:
REMARK  status: ('A' for Active; 'I' for Inactive)
REMARK    1  A    between atoms: N_1  and  C_2
REMARK    2  A    between atoms: C_2  and  C_3
REMARK    3  A    between atoms: C_2  and  C_26
REMARK    4  A    between atoms: C_3  and  N_4
REMARK    5  A    between atoms: N_4  and  C_5
REMARK    6  A    between atoms: C_5  and  C_6
REMARK    7  A    between atoms: C_9  and  C_10
REMARK    8  A    between atoms: C_10  and  N_11
REMARK    9  A    between atoms: C_12  and  C_14
REMARK                            x       y       z     vdW  Elec       q    Type
REMARK                         _______ _______ _______ _____ _____    ______ ____
ROOT
ATOM      1  C   UNL     1      45.580   6.431  12.019  0.00  0.00    +0.000 A 
ATOM      2  C   UNL     1      46.581   5.753  12.730  0.00  0.00    +0.000 A 
ATOM      3  C   UNL     1      47.479   6.435  13.553  0.00  0.00    +0.000 A 
ATOM      4  C   UNL     1      47.401   7.824  13.687  0.00  0.00    +0.000 A 
ATOM      5  C   UNL     1      46.451   8.519  12.926  0.00  0.00    +0.000 A 
ATOM      6  C   UNL     1      45.549   7.829  12.103  0.00  0.00    +0.000 A 
ENDROOT
BRANCH   1   7
ATOM      7  C   UNL     1      44.583   5.698  11.139  0.00  0.00    +0.000 C 
BRANCH   7   8
ATOM      8  N   UNL     1      45.204   5.198   9.910  0.00  0.00    +0.000 NA
ATOM      9  H   UNL     1      45.493   6.004   9.356  0.00  0.00    +0.000 HD
BRANCH   8  10
ATOM     10  C   UNL     1      44.271   4.430   9.075  0.00  0.00    +0.000 C 
BRANCH  10  11
ATOM     11  C   UNL     1      44.640   2.909   9.061  0.00  0.00    +0.000 C 
BRANCH  11  12
ATOM     12  C   UNL     1      45.720   2.587   8.041  0.00  0.00    +0.000 A 
ATOM     13  C   UNL     1      46.110   3.465   7.019  0.00  0.00    +0.000 A 
ATOM     14  C   UNL     1      47.115   3.103   6.127  0.00  0.00    +0.000 A 
ATOM     15  C   UNL     1      47.698   1.857   6.270  0.00  0.00    +0.000 A 
ATOM     16  N   UNL     1      47.338   0.967   7.219  0.00  0.00    +0.000 NA
ATOM     17  C   UNL     1      46.369   1.355   8.080  0.00  0.00    +0.000 A 
ENDBRANCH  11  12
BRANCH  11  18
ATOM     18  N   UNL     1      45.015   2.452  10.413  0.00  0.00    +0.000 NA
ATOM     19  H   UNL     1      44.714   3.157  11.085  0.00  0.00    +0.000 HD
ATOM     20  H   UNL     1      46.035   2.499  10.465  0.00  0.00    +0.000 HD
ENDBRANCH  11  18
ENDBRANCH  10  11
ENDBRANCH   8  10
ENDBRANCH   7   8
ENDBRANCH   1   7
BRANCH   4  21
ATOM     21  C   UNL     1      48.356   8.560  14.589  0.00  0.00    +0.000 C 
BRANCH  21  22
ATOM     22  N   UNL     1      49.596   8.815  13.912  0.00  0.00    +0.000 N 
ATOM     23  C   UNL     1      50.782   8.260  14.314  0.00  0.00    +0.000 C 
ATOM     24  O   UNL     1      50.861   7.473  15.251  0.00  0.00    +0.000 OA
ATOM     25  H   UNL     1      49.617   9.645  13.333  0.00  0.00    +0.000 HD
BRANCH  23  26
ATOM     26  C   UNL     1      51.951   8.611  13.495  0.00  0.00    +0.000 A 
ATOM     27  C   UNL     1      53.043   9.244  14.065  0.00  0.00    +0.000 A 
ATOM     28  S   UNL     1      54.340   9.473  12.979  0.00  0.00    +0.000 S 
ATOM     29  C   UNL     1      53.458   8.788  11.693  0.00  0.00    +0.000 A 
ATOM     30  N   UNL     1      53.994   8.684  10.445  0.00  0.00    +0.000 NA
ATOM     31  C   UNL     1      53.207   8.161   9.570  0.00  0.00    +0.000 A 
ATOM     32  N   UNL     1      51.929   7.735   9.821  0.00  0.00    +0.000 N 
ATOM     33  C   UNL     1      51.345   7.813  11.062  0.00  0.00    +0.000 A 
ATOM     34  O   UNL     1      50.207   7.411  11.250  0.00  0.00    +0.000 OA
ATOM     35  C   UNL     1      52.197   8.385  12.089  0.00  0.00    +0.000 A 
ATOM     36  H   UNL     1      51.359   7.336   9.088  0.00  0.00    +0.000 HD
ENDBRANCH  23  26
ENDBRANCH  21  22
ENDBRANCH   4  21
TORSDOF 9
ENDMDL
MODEL 9
REMARK VINA RESULT:    -6.817      4.784      6.373
REMARK INTER + INTRA:         -10.866
REMARK INTER:                  -9.605
REMARK INTRA:                  -1.262
REMARK UNBOUND:                -0.663
REMARK  Name = 
REMARK  9 active torsions:
REMARK  status: ('A' for Active; 'I' for Inactive)
REMARK    1  A    between atoms: N_1  and  C_2
REMARK    2  A    between atoms: C_2  and  C_3
REMARK    3  A    between atoms: C_2  and  C_26
REMARK    4  A    between atoms: C_3  and  N_4
REMARK    5  A    between atoms: N_4  and  C_5
REMARK    6  A    between atoms: C_5  and  C_6
REMARK    7  A    between atoms: C_9  and  C_10
REMARK    8  A    between atoms: C_10  and  N_11
REMARK    9  A    between atoms: C_12  and  C_14
REMARK                            x       y       z     vdW  Elec       q    Type
REMARK                         _______ _______ _______ _____ _____    ______ ____
ROOT
ATOM      1  C   UNL     1      45.357   6.839  12.191  0.00  0.00    +0.000 A 
ATOM      2  C   UNL     1      46.520   6.667  12.956  0.00  0.00    +0.000 A 
ATOM      3  C   UNL     1      47.344   7.747  13.280  0.00  0.00    +0.000 A 
ATOM      4  C   UNL     1      47.027   9.035  12.841  0.00  0.00    +0.000 A 
ATOM      5  C   UNL     1      45.907   9.206  12.015  0.00  0.00    +0.000 A 
ATOM      6  C   UNL     1      45.080   8.120  11.697  0.00  0.00    +0.000 A 
ENDROOT
BRANCH   1   7
ATOM      7  C   UNL     1      44.440   5.675  11.853  0.00  0.00    +0.000 C 
BRANCH   7   8
ATOM      8  N   UNL     1      45.091   4.708  10.966  0.00  0.00    +0.000 NA
ATOM      9  H   UNL     1      46.038   5.040  10.783  0.00  0.00    +0.000 HD
BRANCH   8  10
ATOM     10  C   UNL     1      44.427   4.601   9.660  0.00  0.00    +0.000 C 
BRANCH  10  11
ATOM     11  C   UNL     1      44.307   3.108   9.205  0.00  0.00    +0.000 C 
BRANCH  11  12
ATOM     12  C   UNL     1      45.496   2.662   8.370  0.00  0.00    +0.000 A 
ATOM     13  C   UNL     1      45.946   1.334   8.306  0.00  0.00    +0.000 A 
ATOM     14  C   UNL     1      47.038   1.000   7.510  0.00  0.00    +0.000 A 
ATOM     15  C   UNL     1      47.667   2.012   6.807  0.00  0.00    +0.000 A 
ATOM     16  N   UNL     1      47.290   3.306   6.858  0.00  0.00    +0.000 NA
ATOM     17  C   UNL     1      46.215   3.596   7.629  0.00  0.00    +0.000 A 
ENDBRANCH  11  12
BRANCH  11  18
ATOM     18  N   UNL     1      44.096   2.225  10.368  0.00  0.00    +0.000 NA
ATOM     19  H   UNL     1      43.376   1.544  10.129  0.00  0.00    +0.000 HD
ATOM     20  H   UNL     1      43.649   2.795  11.090  0.00  0.00    +0.000 HD
ENDBRANCH  11  18
ENDBRANCH  10  11
ENDBRANCH   8  10
ENDBRANCH   7   8
ENDBRANCH   1   7
BRANCH   4  21
ATOM     21  C   UNL     1      47.903  10.205  13.204  0.00  0.00    +0.000 C 
BRANCH  21  22
ATOM     22  N   UNL     1      49.189  10.087  12.575  0.00  0.00    +0.000 N 
ATOM     23  C   UNL     1      49.455  10.614  11.339  0.00  0.00    +0.000 C 
ATOM     24  O   UNL     1      48.629  11.260  10.703  0.00  0.00    +0.000 OA
ATOM     25  H   UNL     1      49.785   9.351  12.930  0.00  0.00    +0.000 HD
BRANCH  23  26
ATOM     26  C   UNL     1      50.829  10.421  10.855  0.00  0.00    +0.000 A 
ATOM     27  C   UNL     1      51.597  11.507  10.469  0.00  0.00    +0.000 A 
ATOM     28  S   UNL     1      53.195  11.091  10.037  0.00  0.00    +0.000 S 
ATOM     29  C   UNL     1      52.894   9.435  10.292  0.00  0.00    +0.000 A 
ATOM     30  N   UNL     1      53.863   8.501  10.088  0.00  0.00    +0.000 NA
ATOM     31  C   UNL     1      53.487   7.288  10.304  0.00  0.00    +0.000 A 
ATOM     32  N   UNL     1      52.229   6.916  10.701  0.00  0.00    +0.000 N 
ATOM     33  C   UNL     1      51.218   7.819  10.925  0.00  0.00    +0.000 A 
ATOM     34  O   UNL     1      50.112   7.451  11.290  0.00  0.00    +0.000 OA
ATOM     35  C   UNL     1      51.595   9.204  10.706  0.00  0.00    +0.000 A 
ATOM     36  H   UNL     1      51.995   5.945  10.850  0.00  0.00    +0.000 HD
ENDBRANCH  23  26
ENDBRANCH  21  22
ENDBRANCH   4  21
TORSDOF 9
ENDMDL
