MODEL 1
REMARK VINA RESULT:    -8.287      0.000      0.000
REMARK INTER + INTRA:         -13.890
REMARK INTER:                 -13.131
REMARK INTRA:                  -0.759
REMARK UNBOUND:                -0.759
REMARK  Name = 
REMARK  11 active torsions:
REMARK  status: ('A' for Active; 'I' for Inactive)
REMARK    1  A    between atoms: C_2  and  C_3
REMARK    2  A    between atoms: C_3  and  C_4
REMARK    3  A    between atoms: C_3  and  C_22
REMARK    4  A    between atoms: C_4  and  C_5
REMARK    5  A    between atoms: C_8  and  C_9
REMARK    6  A    between atoms: C_9  and  N_10
REMARK    7  A    between atoms: N_10  and  CA_11
REMARK    8  A    between atoms: CA_11  and  C_12
REMARK    9  A    between atoms: CA_11  and  C_14
REMARK   10  A    between atoms: C_12  and  O_13
REMARK   11  A    between atoms: C_29  and  O_30
REMARK                            x       y       z     vdW  Elec       q    Type
REMARK                         _______ _______ _______ _____ _____    ______ ____
ROOT
ATOM      1  C   UNL     1      47.597   5.882  14.515  0.00  0.00    +0.000 A 
ATOM      2  C   UNL     1      46.957   4.660  14.273  0.00  0.00    +0.000 A 
ATOM      3  C   UNL     1      46.060   4.526  13.215  0.00  0.00    +0.000 A 
ATOM      4  C   UNL     1      45.761   5.615  12.390  0.00  0.00    +0.000 A 
ATOM      5  C   UNL     1      46.427   6.831  12.611  0.00  0.00    +0.000 A 
ATOM      6  C   UNL     1      47.337   6.963  13.664  0.00  0.00    +0.000 A 
ENDROOT
BRANCH   1   7
ATOM      7  C   UNL     1      48.566   6.014  15.668  0.00  0.00    +0.000 C 
BRANCH   7   8
ATOM      8  C   UNL     1      48.506   4.852  16.676  0.00  0.00    +0.000 C 
BRANCH   8   9
ATOM      9  C   UNL     1      49.856   4.607  17.320  0.00  0.00    +0.000 A 
ATOM     10  C   UNL     1      50.654   5.506  18.023  0.00  0.00    +0.000 A 
ATOM     11  N   UNL     1      51.754   4.836  18.496  0.00  0.00    +0.000 N 
ATOM     12  C   UNL     1      51.702   3.531  18.096  0.00  0.00    +0.000 A 
ATOM     13  N   UNL     1      52.613   2.594  18.401  0.00  0.00    +0.000 NA
ATOM     14  C   UNL     1      52.291   1.400  17.867  0.00  0.00    +0.000 A 
ATOM     15  N   UNL     1      51.231   1.089  17.094  0.00  0.00    +0.000 NA
ATOM     16  C   UNL     1      50.371   2.079  16.834  0.00  0.00    +0.000 A 
ATOM     17  C   UNL     1      50.556   3.359  17.340  0.00  0.00    +0.000 A 
ATOM     18  H   UNL     1      52.491   5.223  19.068  0.00  0.00    +0.000 HD
BRANCH  16  19
ATOM     19  O   UNL     1      49.313   1.737  16.042  0.00  0.00    +0.000 OA
ATOM     20  H   UNL     1      49.787   1.340  15.289  0.00  0.00    +0.000 HD
ENDBRANCH  16  19
ENDBRANCH   8   9
BRANCH   8  22
ATOM     21  N   UNL     1      46.713   5.277  18.564  0.00  0.00    +0.000 NA
ATOM     22  C   UNL     1      47.492   5.093  17.725  0.00  0.00    +0.000 C 
ENDBRANCH   8  22
ENDBRANCH   7   8
ENDBRANCH   1   7
BRANCH   4  23
ATOM     23  C   UNL     1      44.780   5.488  11.246  0.00  0.00    +0.000 C 
BRANCH  23  24
ATOM     24  N   UNL     1      45.383   4.851  10.079  0.00  0.00    +0.000 NA
ATOM     25  H   UNL     1      46.355   4.606  10.253  0.00  0.00    +0.000 HD
BRANCH  24  26
ATOM     26  CA  UNL     1      44.645   3.687   9.564  0.00  0.00    +0.000 C 
BRANCH  26  27
ATOM     27  C   UNL     1      45.487   2.995   8.487  0.00  0.00    +0.000 A 
ATOM     28  C   UNL     1      45.994   3.665   7.362  0.00  0.00    +0.000 A 
ATOM     29  C   UNL     1      46.827   3.014   6.448  0.00  0.00    +0.000 A 
ATOM     30  C   UNL     1      47.154   1.674   6.628  0.00  0.00    +0.000 A 
ATOM     31  C   UNL     1      46.630   0.976   7.712  0.00  0.00    +0.000 A 
ATOM     32  C   UNL     1      45.807   1.630   8.633  0.00  0.00    +0.000 A 
ENDBRANCH  26  27
BRANCH  26  33
ATOM     33  C   UNL     1      44.124   2.749  10.693  0.00  0.00    +0.000 C 
BRANCH  33  34
ATOM     34  O   UNL     1      42.837   3.128  11.186  0.00  0.00    +0.000 OA
ATOM     35  H   UNL     1      42.631   4.002  10.814  0.00  0.00    +0.000 HD
ENDBRANCH  33  34
ENDBRANCH  26  33
ENDBRANCH  24  26
ENDBRANCH  23  24
ENDBRANCH   4  23
TORSDOF 11
ENDMDL
MODEL 2
REMARK VINA RESULT:    -8.032      1.820      2.332
REMARK INTER + INTRA:         -13.487
REMARK INTER:                 -12.046
REMARK INTRA:                  -1.441
REMARK UNBOUND:                -0.759
REMARK  Name = 
REMARK  11 active torsions:
REMARK  status: ('A' for Active; 'I' for Inactive)
REMARK    1  A    between atoms: C_2  and  C_3
REMARK    2  A    between atoms: C_3  and  C_4
REMARK    3  A    between atoms: C_3  and  C_22
REMARK    4  A    between atoms: C_4  and  C_5
REMARK    5  A    between atoms: C_8  and  C_9
REMARK    6  A    between atoms: C_9  and  N_10
REMARK    7  A    between atoms: N_10  and  CA_11
REMARK    8  A    between atoms: CA_11  and  C_12
REMARK    9  A    between atoms: CA_11  and  C_14
REMARK   10  A    between atoms: C_12  and  O_13
REMARK   11  A    between atoms: C_29  and  O_30
REMARK                            x       y       z     vdW  Elec       q    Type
REMARK                         _______ _______ _______ _____ _____    ______ ____
ROOT
ATOM      1  C   UNL     1      47.693   7.348  13.508  0.00  0.00    +0.000 A 
ATOM      2  C   UNL     1      47.639   6.041  13.009  0.00  0.00    +0.000 A 
ATOM      3  C   UNL     1      46.508   5.585  12.335  0.00  0.00    +0.000 A 
ATOM      4  C   UNL     1      45.395   6.414  12.165  0.00  0.00    +0.000 A 
ATOM      5  C   UNL     1      45.461   7.735  12.637  0.00  0.00    +0.000 A 
ATOM      6  C   UNL     1      46.600   8.197  13.302  0.00  0.00    +0.000 A 
ENDROOT
BRANCH   1   7
ATOM      7  C   UNL     1      48.926   7.828  14.240  0.00  0.00    +0.000 C 
BRANCH   7   8
ATOM      8  C   UNL     1      48.823   7.736  15.773  0.00  0.00    +0.000 C 
BRANCH   8   9
ATOM      9  C   UNL     1      49.732   6.657  16.327  0.00  0.00    +0.000 A 
ATOM     10  C   UNL     1      51.098   6.728  16.587  0.00  0.00    +0.000 A 
ATOM     11  N   UNL     1      51.496   5.543  17.154  0.00  0.00    +0.000 N 
ATOM     12  C   UNL     1      50.428   4.697  17.245  0.00  0.00    +0.000 A 
ATOM     13  N   UNL     1      50.464   3.462  17.768  0.00  0.00    +0.000 NA
ATOM     14  C   UNL     1      49.255   2.870  17.722  0.00  0.00    +0.000 A 
ATOM     15  N   UNL     1      48.104   3.358  17.215  0.00  0.00    +0.000 NA
ATOM     16  C   UNL     1      48.153   4.595  16.710  0.00  0.00    +0.000 A 
ATOM     17  C   UNL     1      49.324   5.342  16.714  0.00  0.00    +0.000 A 
ATOM     18  H   UNL     1      52.426   5.317  17.479  0.00  0.00    +0.000 HD
BRANCH  16  19
ATOM     19  O   UNL     1      46.976   5.059  16.197  0.00  0.00    +0.000 OA
ATOM     20  H   UNL     1      47.192   6.005  16.106  0.00  0.00    +0.000 HD
ENDBRANCH  16  19
ENDBRANCH   8   9
BRANCH   8  22
ATOM     21  N   UNL     1      49.364  10.052  16.916  0.00  0.00    +0.000 NA
ATOM     22  C   UNL     1      49.138   9.029  16.418  0.00  0.00    +0.000 C 
ENDBRANCH   8  22
ENDBRANCH   7   8
ENDBRANCH   1   7
BRANCH   4  23
ATOM     23  C   UNL     1      44.155   5.929  11.448  0.00  0.00    +0.000 C 
BRANCH  23  24
ATOM     24  N   UNL     1      44.468   5.377  10.133  0.00  0.00    +0.000 NA
ATOM     25  H   UNL     1      45.440   5.546   9.883  0.00  0.00    +0.000 HD
BRANCH  24  26
ATOM     26  CA  UNL     1      44.135   3.954   9.968  0.00  0.00    +0.000 C 
BRANCH  26  27
ATOM     27  C   UNL     1      45.094   3.329   8.950  0.00  0.00    +0.000 A 
ATOM     28  C   UNL     1      45.811   4.083   8.008  0.00  0.00    +0.000 A 
ATOM     29  C   UNL     1      46.738   3.481   7.153  0.00  0.00    +0.000 A 
ATOM     30  C   UNL     1      46.951   2.107   7.206  0.00  0.00    +0.000 A 
ATOM     31  C   UNL     1      46.222   1.330   8.101  0.00  0.00    +0.000 A 
ATOM     32  C   UNL     1      45.304   1.934   8.965  0.00  0.00    +0.000 A 
ENDBRANCH  26  27
BRANCH  26  33
ATOM     33  C   UNL     1      44.030   3.193  11.323  0.00  0.00    +0.000 C 
BRANCH  33  34
ATOM     34  O   UNL     1      42.818   2.448  11.455  0.00  0.00    +0.000 OA
ATOM     35  H   UNL     1      42.124   2.941  10.985  0.00  0.00    +0.000 HD
ENDBRANCH  33  34
ENDBRANCH  26  33
ENDBRANCH  24  26
ENDBRANCH  23  24
ENDBRANCH   4  23
TORSDOF 11
ENDMDL
MODEL 3
REMARK VINA RESULT:    -7.945      2.727      3.810
REMARK INTER + INTRA:         -13.349
REMARK INTER:                 -11.693
REMARK INTRA:                  -1.656
REMARK UNBOUND:                -0.759
REMARK  Name = 
REMARK  11 active torsions:
REMARK  status: ('A' for Active; 'I' for Inactive)
REMARK    1  A    between atoms: C_2  and  C_3
REMARK    2  A    between atoms: C_3  and  C_4
REMARK    3  A    between atoms: C_3  and  C_22
REMARK    4  A    between atoms: C_4  and  C_5
REMARK    5  A    between atoms: C_8  and  C_9
REMARK    6  A    between atoms: C_9  and  N_10
REMARK    7  A    between atoms: N_10  and  CA_11
REMARK    8  A    between atoms: CA_11  and  C_12
REMARK    9  A    between atoms: CA_11  and  C_14
REMARK   10  A    between atoms: C_12  and  O_13
REMARK   11  A    between atoms: C_29  and  O_30
REMARK                            x       y       z     vdW  Elec       q    Type
REMARK                         _______ _______ _______ _____ _____    ______ ____
ROOT
ATOM      1  C   UNL     1      47.469   7.951  12.171  0.00  0.00    +0.000 A 
ATOM      2  C   UNL     1      47.457   6.559  12.017  0.00  0.00    +0.000 A 
ATOM      3  C   UNL     1      46.261   5.879  11.799  0.00  0.00    +0.000 A 
ATOM      4  C   UNL     1      45.044   6.569  11.757  0.00  0.00    +0.000 A 
ATOM      5  C   UNL     1      45.059   7.967  11.879  0.00  0.00    +0.000 A 
ATOM      6  C   UNL     1      46.260   8.652  12.084  0.00  0.00    +0.000 A 
ENDROOT
BRANCH   1   7
ATOM      7  C   UNL     1      48.774   8.675  12.410  0.00  0.00    +0.000 C 
BRANCH   7   8
ATOM      8  C   UNL     1      48.961   9.177  13.853  0.00  0.00    +0.000 C 
BRANCH   8   9
ATOM      9  C   UNL     1      50.160   8.527  14.514  0.00  0.00    +0.000 A 
ATOM     10  C   UNL     1      51.495   8.920  14.460  0.00  0.00    +0.000 A 
ATOM     11  N   UNL     1      52.227   8.088  15.270  0.00  0.00    +0.000 N 
ATOM     12  C   UNL     1      51.405   7.152  15.829  0.00  0.00    +0.000 A 
ATOM     13  N   UNL     1      51.794   6.197  16.686  0.00  0.00    +0.000 NA
ATOM     14  C   UNL     1      50.759   5.424  17.068  0.00  0.00    +0.000 A 
ATOM     15  N   UNL     1      49.470   5.501  16.679  0.00  0.00    +0.000 NA
ATOM     16  C   UNL     1      49.164   6.480  15.821  0.00  0.00    +0.000 A 
ATOM     17  C   UNL     1      50.121   7.374  15.360  0.00  0.00    +0.000 A 
ATOM     18  H   UNL     1      53.219   8.152  15.454  0.00  0.00    +0.000 HD
BRANCH  16  19
ATOM     19  O   UNL     1      47.854   6.528  15.439  0.00  0.00    +0.000 OA
ATOM     20  H   UNL     1      47.845   5.813  14.778  0.00  0.00    +0.000 HD
ENDBRANCH  16  19
ENDBRANCH   8   9
BRANCH   8  22
ATOM     21  N   UNL     1      49.192  11.804  13.952  0.00  0.00    +0.000 NA
ATOM     22  C   UNL     1      49.103  10.648  13.903  0.00  0.00    +0.000 C 
ENDBRANCH   8  22
ENDBRANCH   7   8
ENDBRANCH   1   7
BRANCH   4  23
ATOM     23  C   UNL     1      43.736   5.843  11.535  0.00  0.00    +0.000 C 
BRANCH  23  24
ATOM     24  N   UNL     1      43.652   5.270  10.195  0.00  0.00    +0.000 NA
ATOM     25  H   UNL     1      44.361   5.662   9.580  0.00  0.00    +0.000 HD
BRANCH  24  26
ATOM     26  CA  UNL     1      43.691   3.800  10.152  0.00  0.00    +0.000 C 
BRANCH  26  27
ATOM     27  C   UNL     1      44.816   3.355   9.211  0.00  0.00    +0.000 A 
ATOM     28  C   UNL     1      45.206   2.014   9.064  0.00  0.00    +0.000 A 
ATOM     29  C   UNL     1      46.181   1.644   8.134  0.00  0.00    +0.000 A 
ATOM     30  C   UNL     1      46.801   2.607   7.345  0.00  0.00    +0.000 A 
ATOM     31  C   UNL     1      46.462   3.948   7.502  0.00  0.00    +0.000 A 
ATOM     32  C   UNL     1      45.479   4.318   8.424  0.00  0.00    +0.000 A 
ENDBRANCH  26  27
BRANCH  26  33
ATOM     33  C   UNL     1      43.723   3.150  11.567  0.00  0.00    +0.000 C 
BRANCH  33  34
ATOM     34  O   UNL     1      42.900   1.986  11.668  0.00  0.00    +0.000 OA
ATOM     35  H   UNL     1      42.362   2.082  12.471  0.00  0.00    +0.000 HD
ENDBRANCH  33  34
ENDBRANCH  26  33
ENDBRANCH  24  26
ENDBRANCH  23  24
ENDBRANCH   4  23
TORSDOF 11
ENDMDL
MODEL 4
REMARK VINA RESULT:    -7.815      0.888      1.376
REMARK INTER + INTRA:         -13.143
REMARK INTER:                 -12.608
REMARK INTRA:                  -0.536
REMARK UNBOUND:                -0.759
REMARK  Name = 
REMARK  11 active torsions:
REMARK  status: ('A' for Active; 'I' for Inactive)
REMARK    1  A    between atoms: C_2  and  C_3
REMARK    2  A    between atoms: C_3  and  C_4
REMARK    3  A    between atoms: C_3  and  C_22
REMARK    4  A    between atoms: C_4  and  C_5
REMARK    5  A    between atoms: C_8  and  C_9
REMARK    6  A    between atoms: C_9  and  N_10
REMARK    7  A    between atoms: N_10  and  CA_11
REMARK    8  A    between atoms: CA_11  and  C_12
REMARK    9  A    between atoms: CA_11  and  C_14
REMARK   10  A    between atoms: C_12  and  O_13
REMARK   11  A    between atoms: C_29  and  O_30
REMARK                            x       y       z     vdW  Elec       q    Type
REMARK                         _______ _______ _______ _____ _____    ______ ____
ROOT
ATOM      1  C   UNL     1      47.887   6.161  14.631  0.00  0.00    +0.000 A 
ATOM      2  C   UNL     1      48.042   7.166  13.669  0.00  0.00    +0.000 A 
ATOM      3  C   UNL     1      47.417   7.063  12.427  0.00  0.00    +0.000 A 
ATOM      4  C   UNL     1      46.644   5.942  12.107  0.00  0.00    +0.000 A 
ATOM      5  C   UNL     1      46.462   4.950  13.083  0.00  0.00    +0.000 A 
ATOM      6  C   UNL     1      47.078   5.058  14.333  0.00  0.00    +0.000 A 
ENDROOT
BRANCH   1   7
ATOM      7  C   UNL     1      48.574   6.285  15.972  0.00  0.00    +0.000 C 
BRANCH   7   8
ATOM      8  C   UNL     1      48.508   5.010  16.833  0.00  0.00    +0.000 C 
BRANCH   8   9
ATOM      9  C   UNL     1      49.864   4.665  17.416  0.00  0.00    +0.000 A 
ATOM     10  C   UNL     1      50.734   5.489  18.126  0.00  0.00    +0.000 A 
ATOM     11  N   UNL     1      51.811   4.741  18.529  0.00  0.00    +0.000 N 
ATOM     12  C   UNL     1      51.673   3.459  18.078  0.00  0.00    +0.000 A 
ATOM     13  N   UNL     1      52.541   2.462  18.309  0.00  0.00    +0.000 NA
ATOM     14  C   UNL     1      52.135   1.311  17.738  0.00  0.00    +0.000 A 
ATOM     15  N   UNL     1      51.033   1.092  16.992  0.00  0.00    +0.000 NA
ATOM     16  C   UNL     1      50.221   2.137  16.806  0.00  0.00    +0.000 A 
ATOM     17  C   UNL     1      50.494   3.382  17.358  0.00  0.00    +0.000 A 
ATOM     18  H   UNL     1      52.588   5.062  19.090  0.00  0.00    +0.000 HD
BRANCH  16  19
ATOM     19  O   UNL     1      49.119   1.887  16.040  0.00  0.00    +0.000 OA
ATOM     20  H   UNL     1      48.424   1.939  16.721  0.00  0.00    +0.000 HD
ENDBRANCH  16  19
ENDBRANCH   8   9
BRANCH   8  22
ATOM     21  N   UNL     1      46.729   5.223  18.770  0.00  0.00    +0.000 NA
ATOM     22  C   UNL     1      47.517   5.141  17.922  0.00  0.00    +0.000 C 
ENDBRANCH   8  22
ENDBRANCH   7   8
ENDBRANCH   1   7
BRANCH   4  23
ATOM     23  C   UNL     1      45.971   5.810  10.759  0.00  0.00    +0.000 C 
BRANCH  23  24
ATOM     24  N   UNL     1      44.522   5.958  10.858  0.00  0.00    +0.000 NA
ATOM     25  H   UNL     1      44.197   6.772  10.342  0.00  0.00    +0.000 HD
BRANCH  24  26
ATOM     26  CA  UNL     1      43.754   4.765  10.471  0.00  0.00    +0.000 C 
BRANCH  26  27
ATOM     27  C   UNL     1      44.583   3.931   9.489  0.00  0.00    +0.000 A 
ATOM     28  C   UNL     1      45.305   4.493   8.424  0.00  0.00    +0.000 A 
ATOM     29  C   UNL     1      46.114   3.704   7.603  0.00  0.00    +0.000 A 
ATOM     30  C   UNL     1      46.204   2.332   7.816  0.00  0.00    +0.000 A 
ATOM     31  C   UNL     1      45.465   1.744   8.838  0.00  0.00    +0.000 A 
ATOM     32  C   UNL     1      44.665   2.534   9.667  0.00  0.00    +0.000 A 
ENDBRANCH  26  27
BRANCH  26  33
ATOM     33  C   UNL     1      43.197   3.977  11.694  0.00  0.00    +0.000 C 
BRANCH  33  34
ATOM     34  O   UNL     1      42.844   4.822  12.791  0.00  0.00    +0.000 OA
ATOM     35  H   UNL     1      41.878   4.775  12.893  0.00  0.00    +0.000 HD
ENDBRANCH  33  34
ENDBRANCH  26  33
ENDBRANCH  24  26
ENDBRANCH  23  24
ENDBRANCH   4  23
TORSDOF 11
ENDMDL
MODEL 5
REMARK VINA RESULT:    -7.644      2.777      4.254
REMARK INTER + INTRA:         -12.872
REMARK INTER:                 -11.592
REMARK INTRA:                  -1.280
REMARK UNBOUND:                -0.759
REMARK  Name = 
REMARK  11 active torsions:
REMARK  status: ('A' for Active; 'I' for Inactive)
REMARK    1  A    between atoms: C_2  and  C_3
REMARK    2  A    between atoms: C_3  and  C_4
REMARK    3  A    between atoms: C_3  and  C_22
REMARK    4  A    between atoms: C_4  and  C_5
REMARK    5  A    between atoms: C_8  and  C_9
REMARK    6  A    between atoms: C_9  and  N_10
REMARK    7  A    between atoms: N_10  and  CA_11
REMARK    8  A    between atoms: CA_11  and  C_12
REMARK    9  A    between atoms: CA_11  and  C_14
REMARK   10  A    between atoms: C_12  and  O_13
REMARK   11  A    between atoms: C_29  and  O_30
REMARK                            x       y       z     vdW  Elec       q    Type
REMARK                         _______ _______ _______ _____ _____    ______ ____
ROOT
ATOM      1  C   UNL     1      47.755   6.545  13.049  0.00  0.00    +0.000 A 
ATOM      2  C   UNL     1      46.970   5.585  13.700  0.00  0.00    +0.000 A 
ATOM      3  C   UNL     1      45.717   5.236  13.199  0.00  0.00    +0.000 A 
ATOM      4  C   UNL     1      45.207   5.854  12.053  0.00  0.00    +0.000 A 
ATOM      5  C   UNL     1      46.008   6.792  11.382  0.00  0.00    +0.000 A 
ATOM      6  C   UNL     1      47.270   7.134  11.875  0.00  0.00    +0.000 A 
ENDROOT
BRANCH   1   7
ATOM      7  C   UNL     1      49.111   6.916  13.605  0.00  0.00    +0.000 C 
BRANCH   7   8
ATOM      8  C   UNL     1      49.070   8.014  14.682  0.00  0.00    +0.000 C 
BRANCH   8   9
ATOM      9  C   UNL     1      49.038   7.421  16.077  0.00  0.00    +0.000 A 
ATOM     10  C   UNL     1      49.460   6.159  16.489  0.00  0.00    +0.000 A 
ATOM     11  N   UNL     1      49.319   6.076  17.851  0.00  0.00    +0.000 N 
ATOM     12  C   UNL     1      48.793   7.242  18.330  0.00  0.00    +0.000 A 
ATOM     13  N   UNL     1      48.543   7.502  19.622  0.00  0.00    +0.000 NA
ATOM     14  C   UNL     1      48.027   8.736  19.787  0.00  0.00    +0.000 A 
ATOM     15  N   UNL     1      47.739   9.654  18.842  0.00  0.00    +0.000 NA
ATOM     16  C   UNL     1      48.016   9.316  17.578  0.00  0.00    +0.000 A 
ATOM     17  C   UNL     1      48.577   8.088  17.256  0.00  0.00    +0.000 A 
ATOM     18  H   UNL     1      49.575   5.290  18.433  0.00  0.00    +0.000 HD
BRANCH  16  19
ATOM     19  O   UNL     1      47.706  10.262  16.643  0.00  0.00    +0.000 OA
ATOM     20  H   UNL     1      48.301  10.980  16.925  0.00  0.00    +0.000 HD
ENDBRANCH  16  19
ENDBRANCH   8   9
BRANCH   8  22
ATOM     21  N   UNL     1      51.119   9.659  14.443  0.00  0.00    +0.000 NA
ATOM     22  C   UNL     1      50.218   8.938  14.562  0.00  0.00    +0.000 C 
ENDBRANCH   8  22
ENDBRANCH   7   8
ENDBRANCH   1   7
BRANCH   4  23
ATOM     23  C   UNL     1      43.844   5.495  11.506  0.00  0.00    +0.000 C 
BRANCH  23  24
ATOM     24  N   UNL     1      43.918   5.026  10.125  0.00  0.00    +0.000 NA
ATOM     25  H   UNL     1      44.700   5.449   9.632  0.00  0.00    +0.000 HD
BRANCH  24  26
ATOM     26  CA  UNL     1      43.947   3.563   9.975  0.00  0.00    +0.000 C 
BRANCH  26  27
ATOM     27  C   UNL     1      45.073   3.180   9.009  0.00  0.00    +0.000 A 
ATOM     28  C   UNL     1      45.511   1.858   8.827  0.00  0.00    +0.000 A 
ATOM     29  C   UNL     1      46.484   1.544   7.875  0.00  0.00    +0.000 A 
ATOM     30  C   UNL     1      47.055   2.546   7.098  0.00  0.00    +0.000 A 
ATOM     31  C   UNL     1      46.669   3.870   7.288  0.00  0.00    +0.000 A 
ATOM     32  C   UNL     1      45.687   4.183   8.232  0.00  0.00    +0.000 A 
ENDBRANCH  26  27
BRANCH  26  33
ATOM     33  C   UNL     1      43.969   2.811  11.339  0.00  0.00    +0.000 C 
BRANCH  33  34
ATOM     34  O   UNL     1      42.809   2.004  11.552  0.00  0.00    +0.000 OA
ATOM     35  H   UNL     1      42.442   1.789  10.678  0.00  0.00    +0.000 HD
ENDBRANCH  33  34
ENDBRANCH  26  33
ENDBRANCH  24  26
ENDBRANCH  23  24
ENDBRANCH   4  23
TORSDOF 11
ENDMDL
MODEL 6
REMARK VINA RESULT:    -7.333      4.777      6.289
REMARK INTER + INTRA:         -12.379
REMARK INTER:                 -10.975
REMARK INTRA:                  -1.404
REMARK UNBOUND:                -0.759
REMARK  Name = 
REMARK  11 active torsions:
REMARK  status: ('A' for Active; 'I' for Inactive)
REMARK    1  A    between atoms: C_2  and  C_3
REMARK    2  A    between atoms: C_3  and  C_4
REMARK    3  A    between atoms: C_3  and  C_22
REMARK    4  A    between atoms: C_4  and  C_5
REMARK    5  A    between atoms: C_8  and  C_9
REMARK    6  A    between atoms: C_9  and  N_10
REMARK    7  A    between atoms: N_10  and  CA_11
REMARK    8  A    between atoms: CA_11  and  C_12
REMARK    9  A    between atoms: CA_11  and  C_14
REMARK   10  A    between atoms: C_12  and  O_13
REMARK   11  A    between atoms: C_29  and  O_30
REMARK                            x       y       z     vdW  Elec       q    Type
REMARK                         _______ _______ _______ _____ _____    ______ ____
ROOT
ATOM      1  C   UNL     1      47.492   8.655  12.175  0.00  0.00    +0.000 A 
ATOM      2  C   UNL     1      47.746   7.371  11.681  0.00  0.00    +0.000 A 
ATOM      3  C   UNL     1      46.705   6.463  11.493  0.00  0.00    +0.000 A 
ATOM      4  C   UNL     1      45.389   6.808  11.819  0.00  0.00    +0.000 A 
ATOM      5  C   UNL     1      45.129   8.107  12.284  0.00  0.00    +0.000 A 
ATOM      6  C   UNL     1      46.171   9.022  12.460  0.00  0.00    +0.000 A 
ENDROOT
BRANCH   1   7
ATOM      7  C   UNL     1      48.631   9.628  12.376  0.00  0.00    +0.000 C 
BRANCH   7   8
ATOM      8  C   UNL     1      50.029   8.992  12.263  0.00  0.00    +0.000 C 
BRANCH   8   9
ATOM      9  C   UNL     1      50.872   9.690  11.215  0.00  0.00    +0.000 A 
ATOM     10  C   UNL     1      50.875  11.038  10.865  0.00  0.00    +0.000 A 
ATOM     11  N   UNL     1      51.851  11.242   9.923  0.00  0.00    +0.000 N 
ATOM     12  C   UNL     1      52.465  10.057   9.635  0.00  0.00    +0.000 A 
ATOM     13  N   UNL     1      53.477   9.902   8.768  0.00  0.00    +0.000 NA
ATOM     14  C   UNL     1      53.875   8.618   8.696  0.00  0.00    +0.000 A 
ATOM     15  N   UNL     1      53.373   7.550   9.349  0.00  0.00    +0.000 NA
ATOM     16  C   UNL     1      52.364   7.787  10.193  0.00  0.00    +0.000 A 
ATOM     17  C   UNL     1      51.864   9.067  10.394  0.00  0.00    +0.000 A 
ATOM     18  H   UNL     1      52.106  12.127   9.507  0.00  0.00    +0.000 HD
BRANCH  16  19
ATOM     19  O   UNL     1      51.871   6.686  10.833  0.00  0.00    +0.000 OA
ATOM     20  H   UNL     1      52.209   5.985  10.247  0.00  0.00    +0.000 HD
ENDBRANCH  16  19
ENDBRANCH   8   9
BRANCH   8  22
ATOM     21  N   UNL     1      51.312   9.028  14.568  0.00  0.00    +0.000 NA
ATOM     22  C   UNL     1      50.738   9.004  13.560  0.00  0.00    +0.000 C 
ENDBRANCH   8  22
ENDBRANCH   7   8
ENDBRANCH   1   7
BRANCH   4  23
ATOM     23  C   UNL     1      44.250   5.830  11.635  0.00  0.00    +0.000 C 
BRANCH  23  24
ATOM     24  N   UNL     1      44.158   5.357  10.257  0.00  0.00    +0.000 NA
ATOM     25  H   UNL     1      44.953   5.671   9.703  0.00  0.00    +0.000 HD
BRANCH  24  26
ATOM     26  CA  UNL     1      43.978   3.903  10.116  0.00  0.00    +0.000 C 
BRANCH  26  27
ATOM     27  C   UNL     1      45.028   3.359   9.142  0.00  0.00    +0.000 A 
ATOM     28  C   UNL     1      45.312   1.991   9.007  0.00  0.00    +0.000 A 
ATOM     29  C   UNL     1      46.218   1.531   8.048  0.00  0.00    +0.000 A 
ATOM     30  C   UNL     1      46.875   2.432   7.216  0.00  0.00    +0.000 A 
ATOM     31  C   UNL     1      46.643   3.797   7.358  0.00  0.00    +0.000 A 
ATOM     32  C   UNL     1      45.728   4.256   8.310  0.00  0.00    +0.000 A 
ENDBRANCH  26  27
BRANCH  26  33
ATOM     33  C   UNL     1      43.908   3.165  11.486  0.00  0.00    +0.000 C 
BRANCH  33  34
ATOM     34  O   UNL     1      42.796   2.271  11.583  0.00  0.00    +0.000 OA
ATOM     35  H   UNL     1      42.819   1.879  12.473  0.00  0.00    +0.000 HD
ENDBRANCH  33  34
ENDBRANCH  26  33
ENDBRANCH  24  26
ENDBRANCH  23  24
ENDBRANCH   4  23
TORSDOF 11
ENDMDL
MODEL 7
REMARK VINA RESULT:    -7.151      1.613      2.345
REMARK INTER + INTRA:         -12.091
REMARK INTER:                 -11.563
REMARK INTRA:                  -0.528
REMARK UNBOUND:                -0.759
REMARK  Name = 
REMARK  11 active torsions:
REMARK  status: ('A' for Active; 'I' for Inactive)
REMARK    1  A    between atoms: C_2  and  C_3
REMARK    2  A    between atoms: C_3  and  C_4
REMARK    3  A    between atoms: C_3  and  C_22
REMARK    4  A    between atoms: C_4  and  C_5
REMARK    5  A    between atoms: C_8  and  C_9
REMARK    6  A    between atoms: C_9  and  N_10
REMARK    7  A    between atoms: N_10  and  CA_11
REMARK    8  A    between atoms: CA_11  and  C_12
REMARK    9  A    between atoms: CA_11  and  C_14
REMARK   10  A    between atoms: C_12  and  O_13
REMARK   11  A    between atoms: C_29  and  O_30
REMARK                            x       y       z     vdW  Elec       q    Type
REMARK                         _______ _______ _______ _____ _____    ______ ____
ROOT
ATOM      1  C   UNL     1      46.356   4.806  13.876  0.00  0.00    +0.000 A 
ATOM      2  C   UNL     1      45.079   5.333  13.644  0.00  0.00    +0.000 A 
ATOM      3  C   UNL     1      44.155   4.637  12.868  0.00  0.00    +0.000 A 
ATOM      4  C   UNL     1      44.491   3.411  12.283  0.00  0.00    +0.000 A 
ATOM      5  C   UNL     1      45.759   2.868  12.542  0.00  0.00    +0.000 A 
ATOM      6  C   UNL     1      46.683   3.559  13.331  0.00  0.00    +0.000 A 
ENDROOT
BRANCH   1   7
ATOM      7  C   UNL     1      47.349   5.574  14.717  0.00  0.00    +0.000 C 
BRANCH   7   8
ATOM      8  C   UNL     1      48.110   4.709  15.739  0.00  0.00    +0.000 C 
BRANCH   8   9
ATOM      9  C   UNL     1      48.996   5.556  16.631  0.00  0.00    +0.000 A 
ATOM     10  C   UNL     1      48.906   6.922  16.893  0.00  0.00    +0.000 A 
ATOM     11  N   UNL     1      49.865   7.252  17.817  0.00  0.00    +0.000 N 
ATOM     12  C   UNL     1      50.590   6.141  18.142  0.00  0.00    +0.000 A 
ATOM     13  N   UNL     1      51.595   6.109  19.031  0.00  0.00    +0.000 NA
ATOM     14  C   UNL     1      52.117   4.872  19.142  0.00  0.00    +0.000 A 
ATOM     15  N   UNL     1      51.765   3.754  18.475  0.00  0.00    +0.000 NA
ATOM     16  C   UNL     1      50.756   3.871  17.605  0.00  0.00    +0.000 A 
ATOM     17  C   UNL     1      50.100   5.078  17.404  0.00  0.00    +0.000 A 
ATOM     18  H   UNL     1      50.017   8.165  18.222  0.00  0.00    +0.000 HD
BRANCH  16  19
ATOM     19  O   UNL     1      50.429   2.725  16.939  0.00  0.00    +0.000 OA
ATOM     20  H   UNL     1      49.691   3.052  16.392  0.00  0.00    +0.000 HD
ENDBRANCH  16  19
ENDBRANCH   8   9
BRANCH   8  22
ATOM     21  N   UNL     1      46.441   3.290  17.210  0.00  0.00    +0.000 NA
ATOM     22  C   UNL     1      47.185   3.912  16.572  0.00  0.00    +0.000 C 
ENDBRANCH   8  22
ENDBRANCH   7   8
ENDBRANCH   1   7
BRANCH   4  23
ATOM     23  C   UNL     1      43.503   2.651  11.427  0.00  0.00    +0.000 C 
BRANCH  23  24
ATOM     24  N   UNL     1      44.050   2.339  10.110  0.00  0.00    +0.000 NA
ATOM     25  H   UNL     1      43.311   2.138   9.440  0.00  0.00    +0.000 HD
BRANCH  24  26
ATOM     26  CA  UNL     1      44.969   3.354   9.572  0.00  0.00    +0.000 C 
BRANCH  26  27
ATOM     27  C   UNL     1      45.727   2.761   8.379  0.00  0.00    +0.000 A 
ATOM     28  C   UNL     1      46.095   3.515   7.253  0.00  0.00    +0.000 A 
ATOM     29  C   UNL     1      46.858   2.955   6.225  0.00  0.00    +0.000 A 
ATOM     30  C   UNL     1      47.253   1.623   6.291  0.00  0.00    +0.000 A 
ATOM     31  C   UNL     1      46.865   0.842   7.376  0.00  0.00    +0.000 A 
ATOM     32  C   UNL     1      46.112   1.405   8.410  0.00  0.00    +0.000 A 
ENDBRANCH  26  27
BRANCH  26  33
ATOM     33  C   UNL     1      44.273   4.719   9.294  0.00  0.00    +0.000 C 
BRANCH  33  34
ATOM     34  O   UNL     1      45.029   5.839   9.763  0.00  0.00    +0.000 OA
ATOM     35  H   UNL     1      44.770   6.606   9.225  0.00  0.00    +0.000 HD
ENDBRANCH  33  34
ENDBRANCH  26  33
ENDBRANCH  24  26
ENDBRANCH  23  24
ENDBRANCH   4  23
TORSDOF 11
ENDMDL
MODEL 8
REMARK VINA RESULT:    -6.970      1.691      2.542
REMARK INTER + INTRA:         -11.804
REMARK INTER:                 -10.946
REMARK INTRA:                  -0.859
REMARK UNBOUND:                -0.759
REMARK  Name = 
REMARK  11 active torsions:
REMARK  status: ('A' for Active; 'I' for Inactive)
REMARK    1  A    between atoms: C_2  and  C_3
REMARK    2  A    between atoms: C_3  and  C_4
REMARK    3  A    between atoms: C_3  and  C_22
REMARK    4  A    between atoms: C_4  and  C_5
REMARK    5  A    between atoms: C_8  and  C_9
REMARK    6  A    between atoms: C_9  and  N_10
REMARK    7  A    between atoms: N_10  and  CA_11
REMARK    8  A    between atoms: CA_11  and  C_12
REMARK    9  A    between atoms: CA_11  and  C_14
REMARK   10  A    between atoms: C_12  and  O_13
REMARK   11  A    between atoms: C_29  and  O_30
REMARK                            x       y       z     vdW  Elec       q    Type
REMARK                         _______ _______ _______ _____ _____    ______ ____
ROOT
ATOM      1  C   UNL     1      48.530   5.698  16.002  0.00  0.00    +0.000 A 
ATOM      2  C   UNL     1      47.591   4.734  15.616  0.00  0.00    +0.000 A 
ATOM      3  C   UNL     1      46.917   4.846  14.402  0.00  0.00    +0.000 A 
ATOM      4  C   UNL     1      47.143   5.938  13.557  0.00  0.00    +0.000 A 
ATOM      5  C   UNL     1      48.108   6.888  13.928  0.00  0.00    +0.000 A 
ATOM      6  C   UNL     1      48.795   6.769  15.140  0.00  0.00    +0.000 A 
ENDROOT
BRANCH   1   7
ATOM      7  C   UNL     1      49.253   5.565  17.323  0.00  0.00    +0.000 C 
BRANCH   7   8
ATOM      8  C   UNL     1      48.953   4.255  18.074  0.00  0.00    +0.000 C 
BRANCH   8   9
ATOM      9  C   UNL     1      49.982   3.187  17.758  0.00  0.00    +0.000 A 
ATOM     10  C   UNL     1      49.803   1.995  17.060  0.00  0.00    +0.000 A 
ATOM     11  N   UNL     1      51.020   1.371  16.943  0.00  0.00    +0.000 N 
ATOM     12  C   UNL     1      51.978   2.117  17.568  0.00  0.00    +0.000 A 
ATOM     13  N   UNL     1      53.282   1.805  17.627  0.00  0.00    +0.000 NA
ATOM     14  C   UNL     1      53.982   2.732  18.308  0.00  0.00    +0.000 A 
ATOM     15  N   UNL     1      53.524   3.849  18.911  0.00  0.00    +0.000 NA
ATOM     16  C   UNL     1      52.213   4.087  18.808  0.00  0.00    +0.000 A 
ATOM     17  C   UNL     1      51.367   3.234  18.111  0.00  0.00    +0.000 A 
ATOM     18  H   UNL     1      51.204   0.505  16.458  0.00  0.00    +0.000 HD
BRANCH  16  19
ATOM     19  O   UNL     1      51.777   5.219  19.435  0.00  0.00    +0.000 OA
ATOM     20  H   UNL     1      52.101   5.893  18.810  0.00  0.00    +0.000 HD
ENDBRANCH  16  19
ENDBRANCH   8   9
BRANCH   8  22
ATOM     21  N   UNL     1      48.868   4.628  20.685  0.00  0.00    +0.000 NA
ATOM     22  C   UNL     1      48.892   4.468  19.536  0.00  0.00    +0.000 C 
ENDBRANCH   8  22
ENDBRANCH   7   8
ENDBRANCH   1   7
BRANCH   4  23
ATOM     23  C   UNL     1      46.408   6.081  12.243  0.00  0.00    +0.000 C 
BRANCH  23  24
ATOM     24  N   UNL     1      45.212   5.245  12.194  0.00  0.00    +0.000 NA
ATOM     25  H   UNL     1      44.652   5.351  13.037  0.00  0.00    +0.000 HD
BRANCH  24  26
ATOM     26  CA  UNL     1      44.379   5.433  10.997  0.00  0.00    +0.000 C 
BRANCH  26  27
ATOM     27  C   UNL     1      44.789   4.409   9.934  0.00  0.00    +0.000 A 
ATOM     28  C   UNL     1      45.582   4.733   8.822  0.00  0.00    +0.000 A 
ATOM     29  C   UNL     1      46.001   3.751   7.921  0.00  0.00    +0.000 A 
ATOM     30  C   UNL     1      45.620   2.425   8.101  0.00  0.00    +0.000 A 
ATOM     31  C   UNL     1      44.799   2.084   9.172  0.00  0.00    +0.000 A 
ATOM     32  C   UNL     1      44.389   3.064  10.079  0.00  0.00    +0.000 A 
ENDBRANCH  26  27
BRANCH  26  33
ATOM     33  C   UNL     1      42.855   5.472  11.316  0.00  0.00    +0.000 C 
BRANCH  33  34
ATOM     34  O   UNL     1      42.579   5.561  12.716  0.00  0.00    +0.000 OA
ATOM     35  H   UNL     1      41.740   5.096  12.874  0.00  0.00    +0.000 HD
ENDBRANCH  33  34
ENDBRANCH  26  33
ENDBRANCH  24  26
ENDBRANCH  23  24
ENDBRANCH   4  23
TORSDOF 11
ENDMDL
MODEL 9
REMARK VINA RESULT:    -6.948      3.525      8.604
REMARK INTER + INTRA:         -11.769
REMARK INTER:                  -9.516
REMARK INTRA:                  -2.253
REMARK UNBOUND:                -0.759
REMARK  Name = 
REMARK  11 active torsions:
REMARK  status: ('A' for Active; 'I' for Inactive)
REMARK    1  A    between atoms: C_2  and  C_3
REMARK    2  A    between atoms: C_3  and  C_4
REMARK    3  A    between atoms: C_3  and  C_22
REMARK    4  A    between atoms: C_4  and  C_5
REMARK    5  A    between atoms: C_8  and  C_9
REMARK    6  A    between atoms: C_9  and  N_10
REMARK    7  A    between atoms: N_10  and  CA_11
REMARK    8  A    between atoms: CA_11  and  C_12
REMARK    9  A    between atoms: CA_11  and  C_14
REMARK   10  A    between atoms: C_12  and  O_13
REMARK   11  A    between atoms: C_29  and  O_30
REMARK                            x       y       z     vdW  Elec       q    Type
REMARK                         _______ _______ _______ _____ _____    ______ ____
ROOT
ATOM      1  C   UNL     1      48.590   8.373  15.599  0.00  0.00    +0.000 A 
ATOM      2  C   UNL     1      49.629   7.444  15.734  0.00  0.00    +0.000 A 
ATOM      3  C   UNL     1      50.196   7.189  16.981  0.00  0.00    +0.000 A 
ATOM      4  C   UNL     1      49.756   7.872  18.119  0.00  0.00    +0.000 A 
ATOM      5  C   UNL     1      48.692   8.779  17.991  0.00  0.00    +0.000 A 
ATOM      6  C   UNL     1      48.114   9.027  16.742  0.00  0.00    +0.000 A 
ENDROOT
BRANCH   1   7
ATOM      7  C   UNL     1      47.987   8.642  14.240  0.00  0.00    +0.000 C 
BRANCH   7   8
ATOM      8  C   UNL     1      47.872   7.395  13.344  0.00  0.00    +0.000 C 
BRANCH   8   9
ATOM      9  C   UNL     1      46.426   7.087  13.006  0.00  0.00    +0.000 A 
ATOM     10  C   UNL     1      45.410   7.977  12.667  0.00  0.00    +0.000 A 
ATOM     11  N   UNL     1      44.282   7.256  12.366  0.00  0.00    +0.000 N 
ATOM     12  C   UNL     1      44.534   5.923  12.525  0.00  0.00    +0.000 A 
ATOM     13  N   UNL     1      43.652   4.938  12.296  0.00  0.00    +0.000 NA
ATOM     14  C   UNL     1      44.189   3.727  12.538  0.00  0.00    +0.000 A 
ATOM     15  N   UNL     1      45.431   3.436  12.978  0.00  0.00    +0.000 NA
ATOM     16  C   UNL     1      46.248   4.474  13.184  0.00  0.00    +0.000 A 
ATOM     17  C   UNL     1      45.843   5.782  12.951  0.00  0.00    +0.000 A 
ATOM     18  H   UNL     1      43.397   7.631  12.055  0.00  0.00    +0.000 HD
BRANCH  16  19
ATOM     19  O   UNL     1      47.495   4.150  13.637  0.00  0.00    +0.000 OA
ATOM     20  H   UNL     1      47.866   5.042  13.761  0.00  0.00    +0.000 HD
ENDBRANCH  16  19
ENDBRANCH   8   9
BRANCH   8  22
ATOM     21  N   UNL     1      49.276   7.682  11.130  0.00  0.00    +0.000 NA
ATOM     22  C   UNL     1      48.651   7.546  12.098  0.00  0.00    +0.000 C 
ENDBRANCH   8  22
ENDBRANCH   7   8
ENDBRANCH   1   7
BRANCH   4  23
ATOM     23  C   UNL     1      50.370   7.616  19.477  0.00  0.00    +0.000 C 
BRANCH  23  24
ATOM     24  N   UNL     1      50.370   6.195  19.815  0.00  0.00    +0.000 NA
ATOM     25  H   UNL     1      51.018   5.995  20.574  0.00  0.00    +0.000 HD
BRANCH  24  26
ATOM     26  CA  UNL     1      49.043   5.635  20.112  0.00  0.00    +0.000 C 
BRANCH  26  27
ATOM     27  C   UNL     1      48.604   4.740  18.948  0.00  0.00    +0.000 A 
ATOM     28  C   UNL     1      47.437   4.969  18.202  0.00  0.00    +0.000 A 
ATOM     29  C   UNL     1      47.119   4.177  17.096  0.00  0.00    +0.000 A 
ATOM     30  C   UNL     1      47.949   3.125  16.724  0.00  0.00    +0.000 A 
ATOM     31  C   UNL     1      49.090   2.849  17.473  0.00  0.00    +0.000 A 
ATOM     32  C   UNL     1      49.415   3.649  18.572  0.00  0.00    +0.000 A 
ENDBRANCH  26  27
BRANCH  26  33
ATOM     33  C   UNL     1      48.965   4.968  21.517  0.00  0.00    +0.000 C 
BRANCH  33  34
ATOM     34  O   UNL     1      47.635   4.595  21.887  0.00  0.00    +0.000 OA
ATOM     35  H   UNL     1      47.640   4.423  22.844  0.00  0.00    +0.000 HD
ENDBRANCH  33  34
ENDBRANCH  26  33
ENDBRANCH  24  26
ENDBRANCH  23  24
ENDBRANCH   4  23
TORSDOF 11
ENDMDL
