MODEL 1
REMARK VINA RESULT:    -7.355      0.000      0.000
REMARK INTER + INTRA:         -10.759
REMARK INTER:                 -10.150
REMARK INTRA:                  -0.609
REMARK UNBOUND:                -0.609
REMARK  Name = 
REMARK  8 active torsions:
REMARK  status: ('A' for Active; 'I' for Inactive)
REMARK    1  A    between atoms: C_1  and  C_2
REMARK    2  A    between atoms: C_2  and  N_3
REMARK    3  A    between atoms: N_3  and  C_4
REMARK    4  A    between atoms: C_4  and  C_5
REMARK    5  A    between atoms: C_5  and  C_6
REMARK    6  A    between atoms: C_10  and  C_11
REMARK    7  A    between atoms: C_11  and  N_12
REMARK    8  A    between atoms: C_17  and  C_18
REMARK                            x       y       z     vdW  Elec       q    Type
REMARK                         _______ _______ _______ _____ _____    ______ ____
ROOT
ATOM      1  N   UNL     1      45.137   4.539  11.583  0.00  0.00    +0.000 N 
ATOM      2  C   UNL     1      46.041   5.110  12.513  0.00  0.00    +0.000 A 
ATOM      3  C   UNL     1      46.218   4.561  13.786  0.00  0.00    +0.000 A 
ATOM      4  C   UNL     1      47.136   5.119  14.684  0.00  0.00    +0.000 A 
ATOM      5  C   UNL     1      47.903   6.207  14.294  0.00  0.00    +0.000 A 
ATOM      6  C   UNL     1      47.689   6.694  13.021  0.00  0.00    +0.000 A 
ATOM      7  N   UNL     1      46.781   6.182  12.148  0.00  0.00    +0.000 NA
ENDROOT
BRANCH   5   8
ATOM      8  C   UNL     1      48.888   6.769  15.249  0.00  0.00    +0.000 C 
ATOM      9  N   UNL     1      48.455   7.204  16.473  0.00  0.00    +0.000 N 
ATOM     10  O   UNL     1      50.076   6.854  14.955  0.00  0.00    +0.000 OA
ATOM     11  H   UNL     1      47.504   7.226  16.790  0.00  0.00    +0.000 HD
ATOM     12  H   UNL     1      49.162   7.604  17.079  0.00  0.00    +0.000 HD
ENDBRANCH   5   8
BRANCH   1  14
ATOM     13  C   UNL     1      42.845   5.011  12.596  0.00  0.00    +0.000 C 
ATOM     14  C   UNL     1      43.911   4.003  12.206  0.00  0.00    +0.000 C 
ENDBRANCH   1  14
BRANCH   1  15
ATOM     15  C   UNL     1      45.074   5.256  10.287  0.00  0.00    +0.000 C 
BRANCH  15  16
ATOM     16  C   UNL     1      44.294   4.447   9.222  0.00  0.00    +0.000 C 
BRANCH  16  17
ATOM     17  C   UNL     1      45.105   3.346   8.571  0.00  0.00    +0.000 A 
ATOM     18  C   UNL     1      45.074   2.048   9.090  0.00  0.00    +0.000 A 
ATOM     19  C   UNL     1      45.822   1.033   8.496  0.00  0.00    +0.000 A 
ATOM     20  C   UNL     1      46.604   1.301   7.371  0.00  0.00    +0.000 A 
ATOM     21  C   UNL     1      46.669   2.595   6.836  0.00  0.00    +0.000 A 
ATOM     22  C   UNL     1      45.908   3.610   7.448  0.00  0.00    +0.000 A 
BRANCH  21  23
ATOM     23  C   UNL     1      47.443   2.901   5.573  0.00  0.00    +0.000 C 
BRANCH  23  24
ATOM     24  N   UNL     1      48.460   1.906   5.240  0.00  0.00    +0.000 NA
ATOM     25  H   UNL     1      49.373   2.357   5.245  0.00  0.00    +0.000 HD
ATOM     26  H   UNL     1      48.304   1.580   4.287  0.00  0.00    +0.000 HD
ENDBRANCH  23  24
ENDBRANCH  21  23
ENDBRANCH  16  17
ENDBRANCH  15  16
ENDBRANCH   1  15
TORSDOF 7
ENDMDL
MODEL 2
REMARK VINA RESULT:    -7.225      3.152      7.094
REMARK INTER + INTRA:         -10.580
REMARK INTER:                 -10.276
REMARK INTRA:                  -0.304
REMARK UNBOUND:                -0.609
REMARK  Name = 
REMARK  8 active torsions:
REMARK  status: ('A' for Active; 'I' for Inactive)
REMARK    1  A    between atoms: C_1  and  C_2
REMARK    2  A    between atoms: C_2  and  N_3
REMARK    3  A    between atoms: N_3  and  C_4
REMARK    4  A    between atoms: C_4  and  C_5
REMARK    5  A    between atoms: C_5  and  C_6
REMARK    6  A    between atoms: C_10  and  C_11
REMARK    7  A    between atoms: C_11  and  N_12
REMARK    8  A    between atoms: C_17  and  C_18
REMARK                            x       y       z     vdW  Elec       q    Type
REMARK                         _______ _______ _______ _____ _____    ______ ____
ROOT
ATOM      1  N   UNL     1      43.772   4.018  10.535  0.00  0.00    +0.000 N 
ATOM      2  C   UNL     1      44.707   3.604   9.554  0.00  0.00    +0.000 A 
ATOM      3  C   UNL     1      45.009   2.254   9.360  0.00  0.00    +0.000 A 
ATOM      4  C   UNL     1      45.913   1.858   8.367  0.00  0.00    +0.000 A 
ATOM      5  C   UNL     1      46.490   2.814   7.544  0.00  0.00    +0.000 A 
ATOM      6  C   UNL     1      46.142   4.128   7.779  0.00  0.00    +0.000 A 
ATOM      7  N   UNL     1      45.288   4.530   8.758  0.00  0.00    +0.000 NA
ENDROOT
BRANCH   5   8
ATOM      8  C   UNL     1      47.426   2.375   6.481  0.00  0.00    +0.000 C 
ATOM      9  N   UNL     1      47.402   3.009   5.268  0.00  0.00    +0.000 N 
ATOM     10  O   UNL     1      48.212   1.453   6.673  0.00  0.00    +0.000 OA
ATOM     11  H   UNL     1      46.767   3.736   4.994  0.00  0.00    +0.000 HD
ATOM     12  H   UNL     1      48.042   2.656   4.567  0.00  0.00    +0.000 HD
ENDBRANCH   5   8
BRANCH   1  14
ATOM     13  C   UNL     1      45.146   3.127  12.489  0.00  0.00    +0.000 C 
ATOM     14  C   UNL     1      43.813   3.205  11.767  0.00  0.00    +0.000 C 
ENDBRANCH   1  14
BRANCH   1  15
ATOM     15  C   UNL     1      43.582   5.487  10.604  0.00  0.00    +0.000 C 
BRANCH  15  16
ATOM     16  C   UNL     1      43.967   6.049  11.995  0.00  0.00    +0.000 C 
BRANCH  16  17
ATOM     17  C   UNL     1      45.231   6.882  11.991  0.00  0.00    +0.000 A 
ATOM     18  C   UNL     1      46.484   6.261  11.964  0.00  0.00    +0.000 A 
ATOM     19  C   UNL     1      47.649   7.026  11.964  0.00  0.00    +0.000 A 
ATOM     20  C   UNL     1      47.578   8.420  11.982  0.00  0.00    +0.000 A 
ATOM     21  C   UNL     1      46.337   9.072  12.026  0.00  0.00    +0.000 A 
ATOM     22  C   UNL     1      45.169   8.286  12.027  0.00  0.00    +0.000 A 
BRANCH  21  23
ATOM     23  C   UNL     1      46.224  10.579  11.967  0.00  0.00    +0.000 C 
BRANCH  23  24
ATOM     24  N   UNL     1      44.859  11.082  12.111  0.00  0.00    +0.000 NA
ATOM     25  H   UNL     1      44.450  10.681  12.953  0.00  0.00    +0.000 HD
ATOM     26  H   UNL     1      44.298  10.744  11.330  0.00  0.00    +0.000 HD
ENDBRANCH  23  24
ENDBRANCH  21  23
ENDBRANCH  16  17
ENDBRANCH  15  16
ENDBRANCH   1  15
TORSDOF 7
ENDMDL
MODEL 3
REMARK VINA RESULT:    -7.180      2.847      6.960
REMARK INTER + INTRA:         -10.518
REMARK INTER:                 -10.164
REMARK INTRA:                  -0.354
REMARK UNBOUND:                -0.609
REMARK  Name = 
REMARK  8 active torsions:
REMARK  status: ('A' for Active; 'I' for Inactive)
REMARK    1  A    between atoms: C_1  and  C_2
REMARK    2  A    between atoms: C_2  and  N_3
REMARK    3  A    between atoms: N_3  and  C_4
REMARK    4  A    between atoms: C_4  and  C_5
REMARK    5  A    between atoms: C_5  and  C_6
REMARK    6  A    between atoms: C_10  and  C_11
REMARK    7  A    between atoms: C_11  and  N_12
REMARK    8  A    between atoms: C_17  and  C_18
REMARK                            x       y       z     vdW  Elec       q    Type
REMARK                         _______ _______ _______ _____ _____    ______ ____
ROOT
ATOM      1  N   UNL     1      43.891   4.060  10.516  0.00  0.00    +0.000 N 
ATOM      2  C   UNL     1      44.797   3.621   9.519  0.00  0.00    +0.000 A 
ATOM      3  C   UNL     1      45.076   2.264   9.336  0.00  0.00    +0.000 A 
ATOM      4  C   UNL     1      45.951   1.843   8.327  0.00  0.00    +0.000 A 
ATOM      5  C   UNL     1      46.521   2.781   7.478  0.00  0.00    +0.000 A 
ATOM      6  C   UNL     1      46.197   4.103   7.705  0.00  0.00    +0.000 A 
ATOM      7  N   UNL     1      45.372   4.529   8.698  0.00  0.00    +0.000 NA
ENDROOT
BRANCH   5   8
ATOM      8  C   UNL     1      47.427   2.316   6.400  0.00  0.00    +0.000 C 
ATOM      9  N   UNL     1      47.507   3.038   5.240  0.00  0.00    +0.000 N 
ATOM     10  O   UNL     1      48.094   1.295   6.532  0.00  0.00    +0.000 OA
ATOM     11  H   UNL     1      46.969   3.854   5.013  0.00  0.00    +0.000 HD
ATOM     12  H   UNL     1      48.120   2.665   4.525  0.00  0.00    +0.000 HD
ENDBRANCH   5   8
BRANCH   1  14
ATOM     13  C   UNL     1      45.303   3.153  12.436  0.00  0.00    +0.000 C 
ATOM     14  C   UNL     1      43.949   3.262  11.757  0.00  0.00    +0.000 C 
ENDBRANCH   1  14
BRANCH   1  15
ATOM     15  C   UNL     1      43.722   5.532  10.571  0.00  0.00    +0.000 C 
BRANCH  15  16
ATOM     16  C   UNL     1      44.009   6.088  11.987  0.00  0.00    +0.000 C 
BRANCH  16  17
ATOM     17  C   UNL     1      45.162   7.068  12.040  0.00  0.00    +0.000 A 
ATOM     18  C   UNL     1      44.922   8.443  11.958  0.00  0.00    +0.000 A 
ATOM     19  C   UNL     1      45.982   9.348  12.003  0.00  0.00    +0.000 A 
ATOM     20  C   UNL     1      47.294   8.890  12.138  0.00  0.00    +0.000 A 
ATOM     21  C   UNL     1      47.569   7.517  12.207  0.00  0.00    +0.000 A 
ATOM     22  C   UNL     1      46.488   6.616  12.159  0.00  0.00    +0.000 A 
BRANCH  21  23
ATOM     23  C   UNL     1      48.969   6.992  12.433  0.00  0.00    +0.000 C 
BRANCH  23  24
ATOM     24  N   UNL     1      49.223   6.535  13.798  0.00  0.00    +0.000 NA
ATOM     25  H   UNL     1      48.438   6.811  14.387  0.00  0.00    +0.000 HD
ATOM     26  H   UNL     1      50.041   7.020  14.163  0.00  0.00    +0.000 HD
ENDBRANCH  23  24
ENDBRANCH  21  23
ENDBRANCH  16  17
ENDBRANCH  15  16
ENDBRANCH   1  15
TORSDOF 7
ENDMDL
MODEL 4
REMARK VINA RESULT:    -6.833      2.115      2.663
REMARK INTER + INTRA:         -10.039
REMARK INTER:                  -9.688
REMARK INTRA:                  -0.350
REMARK UNBOUND:                -0.609
REMARK  Name = 
REMARK  8 active torsions:
REMARK  status: ('A' for Active; 'I' for Inactive)
REMARK    1  A    between atoms: C_1  and  C_2
REMARK    2  A    between atoms: C_2  and  N_3
REMARK    3  A    between atoms: N_3  and  C_4
REMARK    4  A    between atoms: C_4  and  C_5
REMARK    5  A    between atoms: C_5  and  C_6
REMARK    6  A    between atoms: C_10  and  C_11
REMARK    7  A    between atoms: C_11  and  N_12
REMARK    8  A    between atoms: C_17  and  C_18
REMARK                            x       y       z     vdW  Elec       q    Type
REMARK                         _______ _______ _______ _____ _____    ______ ____
ROOT
ATOM      1  N   UNL     1      44.447   4.712  12.849  0.00  0.00    +0.000 N 
ATOM      2  C   UNL     1      45.266   5.848  12.633  0.00  0.00    +0.000 A 
ATOM      3  C   UNL     1      44.888   7.115  13.087  0.00  0.00    +0.000 A 
ATOM      4  C   UNL     1      45.721   8.223  12.892  0.00  0.00    +0.000 A 
ATOM      5  C   UNL     1      46.951   8.057  12.271  0.00  0.00    +0.000 A 
ATOM      6  C   UNL     1      47.269   6.780  11.856  0.00  0.00    +0.000 A 
ATOM      7  N   UNL     1      46.459   5.699  12.012  0.00  0.00    +0.000 NA
ENDROOT
BRANCH   5   8
ATOM      8  C   UNL     1      47.831   9.236  12.095  0.00  0.00    +0.000 C 
ATOM      9  N   UNL     1      47.469  10.428  12.663  0.00  0.00    +0.000 N 
ATOM     10  O   UNL     1      48.869   9.160  11.445  0.00  0.00    +0.000 OA
ATOM     11  H   UNL     1      46.620  10.609  13.167  0.00  0.00    +0.000 HD
ATOM     12  H   UNL     1      48.089  11.210  12.492  0.00  0.00    +0.000 HD
ENDBRANCH   5   8
BRANCH   1  14
ATOM     13  C   UNL     1      42.524   5.697  11.495  0.00  0.00    +0.000 C 
ATOM     14  C   UNL     1      43.002   5.002  12.757  0.00  0.00    +0.000 C 
ENDBRANCH   1  14
BRANCH   1  15
ATOM     15  C   UNL     1      45.002   3.455  12.293  0.00  0.00    +0.000 C 
BRANCH  15  16
ATOM     16  C   UNL     1      44.227   2.993  11.035  0.00  0.00    +0.000 C 
BRANCH  16  17
ATOM     17  C   UNL     1      44.995   3.168   9.742  0.00  0.00    +0.000 A 
ATOM     18  C   UNL     1      45.143   4.439   9.177  0.00  0.00    +0.000 A 
ATOM     19  C   UNL     1      45.847   4.603   7.984  0.00  0.00    +0.000 A 
ATOM     20  C   UNL     1      46.419   3.501   7.347  0.00  0.00    +0.000 A 
ATOM     21  C   UNL     1      46.275   2.211   7.879  0.00  0.00    +0.000 A 
ATOM     22  C   UNL     1      45.560   2.062   9.084  0.00  0.00    +0.000 A 
BRANCH  21  23
ATOM     23  C   UNL     1      46.949   1.009   7.257  0.00  0.00    +0.000 C 
BRANCH  23  24
ATOM     24  N   UNL     1      48.106   1.336   6.427  0.00  0.00    +0.000 NA
ATOM     25  H   UNL     1      48.868   0.702   6.663  0.00  0.00    +0.000 HD
ATOM     26  H   UNL     1      48.428   2.273   6.662  0.00  0.00    +0.000 HD
ENDBRANCH  23  24
ENDBRANCH  21  23
ENDBRANCH  16  17
ENDBRANCH  15  16
ENDBRANCH   1  15
TORSDOF 7
ENDMDL
MODEL 5
REMARK VINA RESULT:    -6.331      2.751      4.640
REMARK INTER + INTRA:          -9.346
REMARK INTER:                  -8.820
REMARK INTRA:                  -0.527
REMARK UNBOUND:                -0.609
REMARK  Name = 
REMARK  8 active torsions:
REMARK  status: ('A' for Active; 'I' for Inactive)
REMARK    1  A    between atoms: C_1  and  C_2
REMARK    2  A    between atoms: C_2  and  N_3
REMARK    3  A    between atoms: N_3  and  C_4
REMARK    4  A    between atoms: C_4  and  C_5
REMARK    5  A    between atoms: C_5  and  C_6
REMARK    6  A    between atoms: C_10  and  C_11
REMARK    7  A    between atoms: C_11  and  N_12
REMARK    8  A    between atoms: C_17  and  C_18
REMARK                            x       y       z     vdW  Elec       q    Type
REMARK                         _______ _______ _______ _____ _____    ______ ____
ROOT
ATOM      1  N   UNL     1      48.049   7.186  13.092  0.00  0.00    +0.000 N 
ATOM      2  C   UNL     1      47.977   6.248  14.153  0.00  0.00    +0.000 A 
ATOM      3  C   UNL     1      48.538   6.521  15.404  0.00  0.00    +0.000 A 
ATOM      4  C   UNL     1      48.435   5.597  16.451  0.00  0.00    +0.000 A 
ATOM      5  C   UNL     1      47.738   4.413  16.255  0.00  0.00    +0.000 A 
ATOM      6  C   UNL     1      47.199   4.209  15.002  0.00  0.00    +0.000 A 
ATOM      7  N   UNL     1      47.316   5.083  13.967  0.00  0.00    +0.000 NA
ENDROOT
BRANCH   5   8
ATOM      8  C   UNL     1      47.618   3.457  17.382  0.00  0.00    +0.000 C 
ATOM      9  N   UNL     1      48.665   3.318  18.252  0.00  0.00    +0.000 N 
ATOM     10  O   UNL     1      46.600   2.790  17.539  0.00  0.00    +0.000 OA
ATOM     11  H   UNL     1      49.556   3.776  18.184  0.00  0.00    +0.000 HD
ATOM     12  H   UNL     1      48.544   2.634  18.990  0.00  0.00    +0.000 HD
ENDBRANCH   5   8
BRANCH   1  14
ATOM     13  C   UNL     1      49.860   8.298  11.684  0.00  0.00    +0.000 C 
ATOM     14  C   UNL     1      49.318   7.938  13.056  0.00  0.00    +0.000 C 
ENDBRANCH   1  14
BRANCH   1  15
ATOM     15  C   UNL     1      47.406   6.725  11.838  0.00  0.00    +0.000 C 
BRANCH  15  16
ATOM     16  C   UNL     1      45.909   7.114  11.786  0.00  0.00    +0.000 C 
BRANCH  16  17
ATOM     17  C   UNL     1      44.969   5.929  11.720  0.00  0.00    +0.000 A 
ATOM     18  C   UNL     1      43.956   5.779  12.673  0.00  0.00    +0.000 A 
ATOM     19  C   UNL     1      43.091   4.687  12.617  0.00  0.00    +0.000 A 
ATOM     20  C   UNL     1      43.222   3.736  11.604  0.00  0.00    +0.000 A 
ATOM     21  C   UNL     1      44.237   3.849  10.642  0.00  0.00    +0.000 A 
ATOM     22  C   UNL     1      45.103   4.957  10.713  0.00  0.00    +0.000 A 
BRANCH  21  23
ATOM     23  C   UNL     1      44.356   2.880   9.487  0.00  0.00    +0.000 C 
BRANCH  23  24
ATOM     24  N   UNL     1      44.356   3.516   8.172  0.00  0.00    +0.000 NA
ATOM     25  H   UNL     1      43.398   3.760   7.926  0.00  0.00    +0.000 HD
ATOM     26  H   UNL     1      44.668   2.840   7.477  0.00  0.00    +0.000 HD
ENDBRANCH  23  24
ENDBRANCH  21  23
ENDBRANCH  16  17
ENDBRANCH  15  16
ENDBRANCH   1  15
TORSDOF 7
ENDMDL
MODEL 6
REMARK VINA RESULT:    -6.213      2.532      3.317
REMARK INTER + INTRA:          -9.183
REMARK INTER:                  -8.340
REMARK INTRA:                  -0.842
REMARK UNBOUND:                -0.609
REMARK  Name = 
REMARK  8 active torsions:
REMARK  status: ('A' for Active; 'I' for Inactive)
REMARK    1  A    between atoms: C_1  and  C_2
REMARK    2  A    between atoms: C_2  and  N_3
REMARK    3  A    between atoms: N_3  and  C_4
REMARK    4  A    between atoms: C_4  and  C_5
REMARK    5  A    between atoms: C_5  and  C_6
REMARK    6  A    between atoms: C_10  and  C_11
REMARK    7  A    between atoms: C_11  and  N_12
REMARK    8  A    between atoms: C_17  and  C_18
REMARK                            x       y       z     vdW  Elec       q    Type
REMARK                         _______ _______ _______ _____ _____    ______ ____
ROOT
ATOM      1  N   UNL     1      45.556   5.574  12.520  0.00  0.00    +0.000 N 
ATOM      2  C   UNL     1      46.001   6.918  12.462  0.00  0.00    +0.000 A 
ATOM      3  C   UNL     1      47.363   7.236  12.478  0.00  0.00    +0.000 A 
ATOM      4  C   UNL     1      47.788   8.566  12.391  0.00  0.00    +0.000 A 
ATOM      5  C   UNL     1      46.850   9.579  12.252  0.00  0.00    +0.000 A 
ATOM      6  C   UNL     1      45.524   9.200  12.232  0.00  0.00    +0.000 A 
ATOM      7  N   UNL     1      45.094   7.914  12.345  0.00  0.00    +0.000 NA
ENDROOT
BRANCH   5   8
ATOM      8  C   UNL     1      47.319  10.981  12.137  0.00  0.00    +0.000 C 
ATOM      9  N   UNL     1      46.416  11.999  12.279  0.00  0.00    +0.000 N 
ATOM     10  O   UNL     1      48.498  11.236  11.911  0.00  0.00    +0.000 OA
ATOM     11  H   UNL     1      45.427  11.898  12.413  0.00  0.00    +0.000 HD
ATOM     12  H   UNL     1      46.781  12.938  12.165  0.00  0.00    +0.000 HD
ENDBRANCH   5   8
BRANCH   1  14
ATOM     13  C   UNL     1      46.319   3.220  13.135  0.00  0.00    +0.000 C 
ATOM     14  C   UNL     1      46.386   4.716  13.388  0.00  0.00    +0.000 C 
ENDBRANCH   1  14
BRANCH   1  15
ATOM     15  C   UNL     1      44.081   5.427  12.499  0.00  0.00    +0.000 C 
BRANCH  15  16
ATOM     16  C   UNL     1      43.534   5.346  11.053  0.00  0.00    +0.000 C 
BRANCH  16  17
ATOM     17  C   UNL     1      44.194   4.278  10.206  0.00  0.00    +0.000 A 
ATOM     18  C   UNL     1      43.932   2.925  10.451  0.00  0.00    +0.000 A 
ATOM     19  C   UNL     1      44.540   1.939   9.675  0.00  0.00    +0.000 A 
ATOM     20  C   UNL     1      45.409   2.291   8.641  0.00  0.00    +0.000 A 
ATOM     21  C   UNL     1      45.704   3.637   8.381  0.00  0.00    +0.000 A 
ATOM     22  C   UNL     1      45.083   4.622   9.174  0.00  0.00    +0.000 A 
BRANCH  21  23
ATOM     23  C   UNL     1      46.578   4.054   7.220  0.00  0.00    +0.000 C 
BRANCH  23  24
ATOM     24  N   UNL     1      47.662   3.121   6.922  0.00  0.00    +0.000 NA
ATOM     25  H   UNL     1      47.451   2.644   6.046  0.00  0.00    +0.000 HD
ATOM     26  H   UNL     1      47.686   2.401   7.643  0.00  0.00    +0.000 HD
ENDBRANCH  23  24
ENDBRANCH  21  23
ENDBRANCH  16  17
ENDBRANCH  15  16
ENDBRANCH   1  15
TORSDOF 7
ENDMDL
MODEL 7
REMARK VINA RESULT:    -5.922      3.878      8.296
REMARK INTER + INTRA:          -8.782
REMARK INTER:                  -8.055
REMARK INTRA:                  -0.727
REMARK UNBOUND:                -0.609
REMARK  Name = 
REMARK  8 active torsions:
REMARK  status: ('A' for Active; 'I' for Inactive)
REMARK    1  A    between atoms: C_1  and  C_2
REMARK    2  A    between atoms: C_2  and  N_3
REMARK    3  A    between atoms: N_3  and  C_4
REMARK    4  A    between atoms: C_4  and  C_5
REMARK    5  A    between atoms: C_5  and  C_6
REMARK    6  A    between atoms: C_10  and  C_11
REMARK    7  A    between atoms: C_11  and  N_12
REMARK    8  A    between atoms: C_17  and  C_18
REMARK                            x       y       z     vdW  Elec       q    Type
REMARK                         _______ _______ _______ _____ _____    ______ ____
ROOT
ATOM      1  N   UNL     1      48.401   7.322  13.427  0.00  0.00    +0.000 N 
ATOM      2  C   UNL     1      47.431   6.333  13.128  0.00  0.00    +0.000 A 
ATOM      3  C   UNL     1      46.462   6.539  12.141  0.00  0.00    +0.000 A 
ATOM      4  C   UNL     1      45.528   5.542  11.837  0.00  0.00    +0.000 A 
ATOM      5  C   UNL     1      45.586   4.323  12.497  0.00  0.00    +0.000 A 
ATOM      6  C   UNL     1      46.572   4.179  13.451  0.00  0.00    +0.000 A 
ATOM      7  N   UNL     1      47.468   5.148  13.779  0.00  0.00    +0.000 NA
ENDROOT
BRANCH   5   8
ATOM      8  C   UNL     1      44.605   3.269  12.144  0.00  0.00    +0.000 C 
ATOM      9  N   UNL     1      44.645   2.712  10.894  0.00  0.00    +0.000 N 
ATOM     10  O   UNL     1      43.759   2.897  12.952  0.00  0.00    +0.000 OA
ATOM     11  H   UNL     1      45.260   2.980  10.148  0.00  0.00    +0.000 HD
ATOM     12  H   UNL     1      43.938   2.016  10.693  0.00  0.00    +0.000 HD
ENDBRANCH   5   8
BRANCH   1  14
ATOM     13  C   UNL     1      48.453   9.579  12.241  0.00  0.00    +0.000 C 
ATOM     14  C   UNL     1      47.882   8.702  13.341  0.00  0.00    +0.000 C 
ENDBRANCH   1  14
BRANCH   1  15
ATOM     15  C   UNL     1      49.343   6.935  14.504  0.00  0.00    +0.000 C 
BRANCH  15  16
ATOM     16  C   UNL     1      49.130   7.781  15.783  0.00  0.00    +0.000 C 
BRANCH  16  17
ATOM     17  C   UNL     1      48.625   6.984  16.968  0.00  0.00    +0.000 A 
ATOM     18  C   UNL     1      48.223   7.639  18.136  0.00  0.00    +0.000 A 
ATOM     19  C   UNL     1      47.761   6.908  19.230  0.00  0.00    +0.000 A 
ATOM     20  C   UNL     1      47.687   5.516  19.167  0.00  0.00    +0.000 A 
ATOM     21  C   UNL     1      48.098   4.828  18.016  0.00  0.00    +0.000 A 
ATOM     22  C   UNL     1      48.563   5.580  16.920  0.00  0.00    +0.000 A 
BRANCH  21  23
ATOM     23  C   UNL     1      47.957   3.328  17.887  0.00  0.00    +0.000 C 
BRANCH  23  24
ATOM     24  N   UNL     1      46.591   2.877  17.629  0.00  0.00    +0.000 NA
ATOM     25  H   UNL     1      46.385   3.007  16.640  0.00  0.00    +0.000 HD
ATOM     26  H   UNL     1      45.943   3.475  18.139  0.00  0.00    +0.000 HD
ENDBRANCH  23  24
ENDBRANCH  21  23
ENDBRANCH  16  17
ENDBRANCH  15  16
ENDBRANCH   1  15
TORSDOF 7
ENDMDL
MODEL 8
REMARK VINA RESULT:    -5.480      4.472      8.196
REMARK INTER + INTRA:          -8.172
REMARK INTER:                  -7.312
REMARK INTRA:                  -0.859
REMARK UNBOUND:                -0.609
REMARK  Name = 
REMARK  8 active torsions:
REMARK  status: ('A' for Active; 'I' for Inactive)
REMARK    1  A    between atoms: C_1  and  C_2
REMARK    2  A    between atoms: C_2  and  N_3
REMARK    3  A    between atoms: N_3  and  C_4
REMARK    4  A    between atoms: C_4  and  C_5
REMARK    5  A    between atoms: C_5  and  C_6
REMARK    6  A    between atoms: C_10  and  C_11
REMARK    7  A    between atoms: C_11  and  N_12
REMARK    8  A    between atoms: C_17  and  C_18
REMARK                            x       y       z     vdW  Elec       q    Type
REMARK                         _______ _______ _______ _____ _____    ______ ____
ROOT
ATOM      1  N   UNL     1      48.994   8.475  14.388  0.00  0.00    +0.000 N 
ATOM      2  C   UNL     1      47.889   7.938  13.680  0.00  0.00    +0.000 A 
ATOM      3  C   UNL     1      46.720   8.679  13.485  0.00  0.00    +0.000 A 
ATOM      4  C   UNL     1      45.649   8.146  12.758  0.00  0.00    +0.000 A 
ATOM      5  C   UNL     1      45.761   6.883  12.197  0.00  0.00    +0.000 A 
ATOM      6  C   UNL     1      46.944   6.208  12.416  0.00  0.00    +0.000 A 
ATOM      7  N   UNL     1      47.982   6.700  13.144  0.00  0.00    +0.000 NA
ENDROOT
BRANCH   5   8
ATOM      8  C   UNL     1      44.626   6.344  11.410  0.00  0.00    +0.000 C 
ATOM      9  N   UNL     1      43.492   7.100  11.273  0.00  0.00    +0.000 N 
ATOM     10  O   UNL     1      44.687   5.235  10.889  0.00  0.00    +0.000 OA
ATOM     11  H   UNL     1      43.321   7.992  11.700  0.00  0.00    +0.000 HD
ATOM     12  H   UNL     1      42.735   6.677  10.749  0.00  0.00    +0.000 HD
ENDBRANCH   5   8
BRANCH   1  14
ATOM     13  C   UNL     1      49.179  10.740  15.544  0.00  0.00    +0.000 C 
ATOM     14  C   UNL     1      48.604   9.335  15.523  0.00  0.00    +0.000 C 
ENDBRANCH   1  14
BRANCH   1  15
ATOM     15  C   UNL     1      50.144   7.547  14.502  0.00  0.00    +0.000 C 
BRANCH  15  16
ATOM     16  C   UNL     1      50.609   7.391  15.971  0.00  0.00    +0.000 C 
BRANCH  16  17
ATOM     17  C   UNL     1      50.196   6.081  16.609  0.00  0.00    +0.000 A 
ATOM     18  C   UNL     1      51.149   5.274  17.239  0.00  0.00    +0.000 A 
ATOM     19  C   UNL     1      50.772   4.066  17.825  0.00  0.00    +0.000 A 
ATOM     20  C   UNL     1      49.439   3.654  17.797  0.00  0.00    +0.000 A 
ATOM     21  C   UNL     1      48.462   4.434  17.161  0.00  0.00    +0.000 A 
ATOM     22  C   UNL     1      48.858   5.651  16.572  0.00  0.00    +0.000 A 
BRANCH  21  23
ATOM     23  C   UNL     1      46.998   4.056  17.182  0.00  0.00    +0.000 C 
BRANCH  23  24
ATOM     24  N   UNL     1      46.723   2.766  17.811  0.00  0.00    +0.000 NA
ATOM     25  H   UNL     1      45.788   2.791  18.214  0.00  0.00    +0.000 HD
ATOM     26  H   UNL     1      47.368   2.633  18.588  0.00  0.00    +0.000 HD
ENDBRANCH  23  24
ENDBRANCH  21  23
ENDBRANCH  16  17
ENDBRANCH  15  16
ENDBRANCH   1  15
TORSDOF 7
ENDMDL
MODEL 9
REMARK VINA RESULT:    -5.178      3.493      8.574
REMARK INTER + INTRA:          -7.755
REMARK INTER:                  -7.260
REMARK INTRA:                  -0.495
REMARK UNBOUND:                -0.609
REMARK  Name = 
REMARK  8 active torsions:
REMARK  status: ('A' for Active; 'I' for Inactive)
REMARK    1  A    between atoms: C_1  and  C_2
REMARK    2  A    between atoms: C_2  and  N_3
REMARK    3  A    between atoms: N_3  and  C_4
REMARK    4  A    between atoms: C_4  and  C_5
REMARK    5  A    between atoms: C_5  and  C_6
REMARK    6  A    between atoms: C_10  and  C_11
REMARK    7  A    between atoms: C_11  and  N_12
REMARK    8  A    between atoms: C_17  and  C_18
REMARK                            x       y       z     vdW  Elec       q    Type
REMARK                         _______ _______ _______ _____ _____    ______ ____
ROOT
ATOM      1  N   UNL     1      47.905   6.918  13.197  0.00  0.00    +0.000 N 
ATOM      2  C   UNL     1      46.917   6.168  12.510  0.00  0.00    +0.000 A 
ATOM      3  C   UNL     1      46.557   6.473  11.194  0.00  0.00    +0.000 A 
ATOM      4  C   UNL     1      45.601   5.706  10.518  0.00  0.00    +0.000 A 
ATOM      5  C   UNL     1      45.029   4.610  11.148  0.00  0.00    +0.000 A 
ATOM      6  C   UNL     1      45.436   4.356  12.442  0.00  0.00    +0.000 A 
ATOM      7  N   UNL     1      46.341   5.109  13.122  0.00  0.00    +0.000 NA
ENDROOT
BRANCH   5   8
ATOM      8  C   UNL     1      44.037   3.794  10.409  0.00  0.00    +0.000 C 
ATOM      9  N   UNL     1      44.021   3.844   9.041  0.00  0.00    +0.000 N 
ATOM     10  O   UNL     1      43.232   3.085  11.004  0.00  0.00    +0.000 OA
ATOM     11  H   UNL     1      44.598   4.427   8.464  0.00  0.00    +0.000 HD
ATOM     12  H   UNL     1      43.307   3.289   8.583  0.00  0.00    +0.000 HD
ENDBRANCH   5   8
BRANCH   1  14
ATOM     13  C   UNL     1      49.031   8.890  12.038  0.00  0.00    +0.000 C 
ATOM     14  C   UNL     1      47.881   8.358  12.875  0.00  0.00    +0.000 C 
ENDBRANCH   1  14
BRANCH   1  15
ATOM     15  C   UNL     1      48.153   6.457  14.584  0.00  0.00    +0.000 C 
BRANCH  15  16
ATOM     16  C   UNL     1      49.056   7.445  15.362  0.00  0.00    +0.000 C 
BRANCH  16  17
ATOM     17  C   UNL     1      50.270   6.797  15.995  0.00  0.00    +0.000 A 
ATOM     18  C   UNL     1      51.555   7.253  15.682  0.00  0.00    +0.000 A 
ATOM     19  C   UNL     1      52.675   6.657  16.261  0.00  0.00    +0.000 A 
ATOM     20  C   UNL     1      52.524   5.605  17.166  0.00  0.00    +0.000 A 
ATOM     21  C   UNL     1      51.251   5.115  17.489  0.00  0.00    +0.000 A 
ATOM     22  C   UNL     1      50.129   5.727  16.895  0.00  0.00    +0.000 A 
BRANCH  21  23
ATOM     23  C   UNL     1      51.049   4.032  18.525  0.00  0.00    +0.000 C 
BRANCH  23  24
ATOM     24  N   UNL     1      52.245   3.236  18.796  0.00  0.00    +0.000 NA
ATOM     25  H   UNL     1      53.045   3.686  18.355  0.00  0.00    +0.000 HD
ATOM     26  H   UNL     1      52.144   2.325  18.350  0.00  0.00    +0.000 HD
ENDBRANCH  23  24
ENDBRANCH  21  23
ENDBRANCH  16  17
ENDBRANCH  15  16
ENDBRANCH   1  15
TORSDOF 7
ENDMDL
