MODEL 1
REMARK VINA RESULT:    -7.993      0.000      0.000
REMARK INTER + INTRA:         -10.219
REMARK INTER:                  -9.395
REMARK INTRA:                  -0.823
REMARK UNBOUND:                -0.823
REMARK  Name = 
REMARK  3 active torsions:
REMARK  status: ('A' for Active; 'I' for Inactive)
REMARK    1  A    between atoms: N_6  and  C_7
REMARK    2  A    between atoms: C_7  and  C_8
REMARK    3  A    between atoms: C_12  and  C_13
REMARK                            x       y       z     vdW  Elec       q    Type
REMARK                         _______ _______ _______ _____ _____    ______ ____
ROOT
ATOM      1  C   UNL     1      45.086   5.353  12.216  0.00  0.00    +0.000 A 
ATOM      2  C   UNL     1      45.501   4.522  13.263  0.00  0.00    +0.000 A 
ATOM      3  C   UNL     1      46.747   4.700  13.862  0.00  0.00    +0.000 A 
ATOM      4  C   UNL     1      47.605   5.705  13.415  0.00  0.00    +0.000 A 
ATOM      5  C   UNL     1      47.210   6.609  12.420  0.00  0.00    +0.000 A 
ATOM      6  C   UNL     1      45.925   6.437  11.875  0.00  0.00    +0.000 A 
ENDROOT
BRANCH   5   7
ATOM      7  C   UNL     1      48.131   7.653  11.793  0.00  0.00    +0.000 C 
ATOM      8  C   UNL     1      49.637   7.481  12.063  0.00  0.00    +0.000 C 
ATOM      9  C   UNL     1      50.040   7.977  13.454  0.00  0.00    +0.000 C 
ATOM     10  N   UNL     1      49.637   9.361  13.684  0.00  0.00    +0.000 NA
ATOM     11  C   UNL     1      48.192   9.529  13.509  0.00  0.00    +0.000 C 
ATOM     12  C   UNL     1      47.738   9.108  12.114  0.00  0.00    +0.000 C 
ATOM     13  H   UNL     1      50.126   9.967  13.028  0.00  0.00    +0.000 HD
ENDBRANCH   5   7
BRANCH   1  14
ATOM     14  C   UNL     1      43.846   5.012  11.377  0.00  0.00    +0.000 C 
ATOM     15  C   UNL     1      42.493   5.221  12.070  0.00  0.00    +0.000 C 
ATOM     16  C   UNL     1      42.945   6.193  11.040  0.00  0.00    +0.000 C 
BRANCH  14  22
ATOM     17 CL   UNL     1      47.368   2.060   6.116  0.00  0.00    +0.000 Cl
ATOM     18  C   UNL     1      46.455   2.629   7.451  0.00  0.00    +0.000 A 
ATOM     19  C   UNL     1      46.261   3.981   7.648  0.00  0.00    +0.000 A 
ATOM     20  C   UNL     1      45.479   4.406   8.728  0.00  0.00    +0.000 A 
ATOM     21  C   UNL     1      44.891   3.476   9.577  0.00  0.00    +0.000 A 
ATOM     22  N   UNL     1      43.984   3.783  10.590  0.00  0.00    +0.000 N 
ATOM     23  N   UNL     1      45.098   2.152   9.395  0.00  0.00    +0.000 NA
ATOM     24  C   UNL     1      45.871   1.758   8.350  0.00  0.00    +0.000 A 
ATOM     25  H   UNL     1      43.768   2.908  11.066  0.00  0.00    +0.000 HD
ENDBRANCH  14  22
ENDBRANCH   1  14
TORSDOF 3
ENDMDL
MODEL 2
REMARK VINA RESULT:    -6.990      2.283      3.467
REMARK INTER + INTRA:          -9.040
REMARK INTER:                  -8.410
REMARK INTRA:                  -0.629
REMARK UNBOUND:                -0.823
REMARK  Name = 
REMARK  3 active torsions:
REMARK  status: ('A' for Active; 'I' for Inactive)
REMARK    1  A    between atoms: N_6  and  C_7
REMARK    2  A    between atoms: C_7  and  C_8
REMARK    3  A    between atoms: C_12  and  C_13
REMARK                            x       y       z     vdW  Elec       q    Type
REMARK                         _______ _______ _______ _____ _____    ______ ____
ROOT
ATOM      1  C   UNL     1      45.854   5.170  12.740  0.00  0.00    +0.000 A 
ATOM      2  C   UNL     1      46.798   6.043  12.187  0.00  0.00    +0.000 A 
ATOM      3  C   UNL     1      47.902   6.462  12.928  0.00  0.00    +0.000 A 
ATOM      4  C   UNL     1      48.074   6.025  14.242  0.00  0.00    +0.000 A 
ATOM      5  C   UNL     1      47.199   5.095  14.818  0.00  0.00    +0.000 A 
ATOM      6  C   UNL     1      46.127   4.649  14.025  0.00  0.00    +0.000 A 
ENDROOT
BRANCH   5   7
ATOM      7  C   UNL     1      47.248   4.663  16.282  0.00  0.00    +0.000 C 
ATOM      8  C   UNL     1      48.285   5.377  17.167  0.00  0.00    +0.000 C 
ATOM      9  C   UNL     1      49.699   4.825  16.968  0.00  0.00    +0.000 C 
ATOM     10  N   UNL     1      49.761   3.381  17.176  0.00  0.00    +0.000 NA
ATOM     11  C   UNL     1      48.836   2.676  16.285  0.00  0.00    +0.000 C 
ATOM     12  C   UNL     1      47.395   3.142  16.481  0.00  0.00    +0.000 C 
ATOM     13  H   UNL     1      49.521   3.169  18.143  0.00  0.00    +0.000 HD
ENDBRANCH   5   7
BRANCH   1  14
ATOM     14  C   UNL     1      44.511   4.908  12.045  0.00  0.00    +0.000 C 
ATOM     15  C   UNL     1      43.262   5.078  12.920  0.00  0.00    +0.000 C 
ATOM     16  C   UNL     1      43.599   6.121  11.915  0.00  0.00    +0.000 C 
BRANCH  14  22
ATOM     17 CL   UNL     1      46.718   2.571   5.842  0.00  0.00    +0.000 Cl
ATOM     18  C   UNL     1      46.152   2.984   7.407  0.00  0.00    +0.000 A 
ATOM     19  C   UNL     1      45.922   4.300   7.751  0.00  0.00    +0.000 A 
ATOM     20  C   UNL     1      45.425   4.595   9.026  0.00  0.00    +0.000 A 
ATOM     21  C   UNL     1      45.149   3.571   9.924  0.00  0.00    +0.000 A 
ATOM     22  N   UNL     1      44.522   3.741  11.157  0.00  0.00    +0.000 N 
ATOM     23  N   UNL     1      45.394   2.283   9.594  0.00  0.00    +0.000 NA
ATOM     24  C   UNL     1      45.889   2.016   8.358  0.00  0.00    +0.000 A 
ATOM     25  H   UNL     1      44.502   2.826  11.605  0.00  0.00    +0.000 HD
ENDBRANCH  14  22
ENDBRANCH   1  14
TORSDOF 3
ENDMDL
MODEL 3
REMARK VINA RESULT:    -6.475      3.748      7.486
REMARK INTER + INTRA:          -8.434
REMARK INTER:                  -7.573
REMARK INTRA:                  -0.861
REMARK UNBOUND:                -0.823
REMARK  Name = 
REMARK  3 active torsions:
REMARK  status: ('A' for Active; 'I' for Inactive)
REMARK    1  A    between atoms: N_6  and  C_7
REMARK    2  A    between atoms: C_7  and  C_8
REMARK    3  A    between atoms: C_12  and  C_13
REMARK                            x       y       z     vdW  Elec       q    Type
REMARK                         _______ _______ _______ _____ _____    ______ ____
ROOT
ATOM      1  C   UNL     1      47.261   8.044  12.407  0.00  0.00    +0.000 A 
ATOM      2  C   UNL     1      46.676   9.312  12.318  0.00  0.00    +0.000 A 
ATOM      3  C   UNL     1      45.368   9.462  11.860  0.00  0.00    +0.000 A 
ATOM      4  C   UNL     1      44.627   8.347  11.469  0.00  0.00    +0.000 A 
ATOM      5  C   UNL     1      45.139   7.050  11.607  0.00  0.00    +0.000 A 
ATOM      6  C   UNL     1      46.441   6.929  12.125  0.00  0.00    +0.000 A 
ENDROOT
BRANCH   5   7
ATOM      7  C   UNL     1      44.443   5.793  11.092  0.00  0.00    +0.000 C 
ATOM      8  C   UNL     1      42.976   5.605  11.518  0.00  0.00    +0.000 C 
ATOM      9  C   UNL     1      42.848   5.076  12.949  0.00  0.00    +0.000 C 
ATOM     10  N   UNL     1      43.598   3.839  13.149  0.00  0.00    +0.000 NA
ATOM     11  C   UNL     1      45.015   4.019  12.823  0.00  0.00    +0.000 C 
ATOM     12  C   UNL     1      45.210   4.488  11.383  0.00  0.00    +0.000 C 
ATOM     13  H   UNL     1      43.208   3.110  12.555  0.00  0.00    +0.000 HD
ENDBRANCH   5   7
BRANCH   1  14
ATOM     14  C   UNL     1      48.767   7.881  12.655  0.00  0.00    +0.000 C 
ATOM     15  C   UNL     1      49.651   7.857  11.401  0.00  0.00    +0.000 C 
ATOM     16  C   UNL     1      49.626   9.074  12.256  0.00  0.00    +0.000 C 
BRANCH  14  22
ATOM     17 CL   UNL     1      48.570   6.665  19.531  0.00  0.00    +0.000 Cl
ATOM     18  C   UNL     1      48.642   6.798  17.823  0.00  0.00    +0.000 A 
ATOM     19  C   UNL     1      48.667   8.035  17.211  0.00  0.00    +0.000 A 
ATOM     20  C   UNL     1      48.763   8.103  15.817  0.00  0.00    +0.000 A 
ATOM     21  C   UNL     1      48.852   6.939  15.062  0.00  0.00    +0.000 A 
ATOM     22  N   UNL     1      49.093   6.895  13.691  0.00  0.00    +0.000 N 
ATOM     23  N   UNL     1      48.806   5.727  15.661  0.00  0.00    +0.000 NA
ATOM     24  C   UNL     1      48.699   5.679  17.014  0.00  0.00    +0.000 A 
ATOM     25  H   UNL     1      49.055   5.914  13.417  0.00  0.00    +0.000 HD
ENDBRANCH  14  22
ENDBRANCH   1  14
TORSDOF 3
ENDMDL
MODEL 4
REMARK VINA RESULT:    -6.251      5.213      7.874
REMARK INTER + INTRA:          -8.170
REMARK INTER:                  -7.639
REMARK INTRA:                  -0.532
REMARK UNBOUND:                -0.823
REMARK  Name = 
REMARK  3 active torsions:
REMARK  status: ('A' for Active; 'I' for Inactive)
REMARK    1  A    between atoms: N_6  and  C_7
REMARK    2  A    between atoms: C_7  and  C_8
REMARK    3  A    between atoms: C_12  and  C_13
REMARK                            x       y       z     vdW  Elec       q    Type
REMARK                         _______ _______ _______ _____ _____    ______ ____
ROOT
ATOM      1  C   UNL     1      44.600   9.562  11.301  0.00  0.00    +0.000 A 
ATOM      2  C   UNL     1      45.451   9.599  12.411  0.00  0.00    +0.000 A 
ATOM      3  C   UNL     1      45.776   8.431  13.099  0.00  0.00    +0.000 A 
ATOM      4  C   UNL     1      45.244   7.206  12.696  0.00  0.00    +0.000 A 
ATOM      5  C   UNL     1      44.446   7.103  11.549  0.00  0.00    +0.000 A 
ATOM      6  C   UNL     1      44.183   8.291  10.845  0.00  0.00    +0.000 A 
ENDROOT
BRANCH   5   7
ATOM      7  C   UNL     1      43.730   5.827  11.114  0.00  0.00    +0.000 C 
ATOM      8  C   UNL     1      42.583   5.347  12.022  0.00  0.00    +0.000 C 
ATOM      9  C   UNL     1      43.093   4.622  13.270  0.00  0.00    +0.000 C 
ATOM     10  N   UNL     1      43.977   3.509  12.938  0.00  0.00    +0.000 NA
ATOM     11  C   UNL     1      45.120   3.959  12.139  0.00  0.00    +0.000 C 
ATOM     12  C   UNL     1      44.674   4.639  10.846  0.00  0.00    +0.000 C 
ATOM     13  H   UNL     1      43.456   2.810  12.413  0.00  0.00    +0.000 HD
ENDBRANCH   5   7
BRANCH   1  14
ATOM     14  C   UNL     1      44.027  10.851  10.696  0.00  0.00    +0.000 C 
ATOM     15  C   UNL     1      45.039  11.770  10.001  0.00  0.00    +0.000 C 
ATOM     16  C   UNL     1      44.110  10.951   9.179  0.00  0.00    +0.000 C 
BRANCH  14  22
ATOM     17 CL   UNL     1      37.236  11.051  12.325  0.00  0.00    +0.000 Cl
ATOM     18  C   UNL     1      38.931  11.087  12.068  0.00  0.00    +0.000 A 
ATOM     19  C   UNL     1      39.474  10.648  10.878  0.00  0.00    +0.000 A 
ATOM     20  C   UNL     1      40.859  10.727  10.691  0.00  0.00    +0.000 A 
ATOM     21  C   UNL     1      41.672  11.259  11.685  0.00  0.00    +0.000 A 
ATOM     22  N   UNL     1      43.035  11.514  11.549  0.00  0.00    +0.000 N 
ATOM     23  N   UNL     1      41.141  11.669  12.860  0.00  0.00    +0.000 NA
ATOM     24  C   UNL     1      39.797  11.572  13.030  0.00  0.00    +0.000 A 
ATOM     25  H   UNL     1      43.362  11.853  12.453  0.00  0.00    +0.000 HD
ENDBRANCH  14  22
ENDBRANCH   1  14
TORSDOF 3
ENDMDL
MODEL 5
REMARK VINA RESULT:    -6.039      3.619      6.011
REMARK INTER + INTRA:          -7.922
REMARK INTER:                  -6.987
REMARK INTRA:                  -0.935
REMARK UNBOUND:                -0.823
REMARK  Name = 
REMARK  3 active torsions:
REMARK  status: ('A' for Active; 'I' for Inactive)
REMARK    1  A    between atoms: N_6  and  C_7
REMARK    2  A    between atoms: C_7  and  C_8
REMARK    3  A    between atoms: C_12  and  C_13
REMARK                            x       y       z     vdW  Elec       q    Type
REMARK                         _______ _______ _______ _____ _____    ______ ____
ROOT
ATOM      1  C   UNL     1      48.644   8.160  14.647  0.00  0.00    +0.000 A 
ATOM      2  C   UNL     1      48.333   9.380  15.259  0.00  0.00    +0.000 A 
ATOM      3  C   UNL     1      48.301   9.493  16.647  0.00  0.00    +0.000 A 
ATOM      4  C   UNL     1      48.568   8.383  17.449  0.00  0.00    +0.000 A 
ATOM      5  C   UNL     1      48.955   7.158  16.889  0.00  0.00    +0.000 A 
ATOM      6  C   UNL     1      49.032   7.093  15.487  0.00  0.00    +0.000 A 
ENDROOT
BRANCH   5   7
ATOM      7  C   UNL     1      49.144   5.870  17.688  0.00  0.00    +0.000 C 
ATOM      8  C   UNL     1      48.860   4.557  16.937  0.00  0.00    +0.000 C 
ATOM      9  C   UNL     1      47.362   4.259  16.830  0.00  0.00    +0.000 C 
ATOM     10  N   UNL     1      46.708   4.249  18.135  0.00  0.00    +0.000 NA
ATOM     11  C   UNL     1      46.900   5.523  18.835  0.00  0.00    +0.000 C 
ATOM     12  C   UNL     1      48.380   5.846  19.026  0.00  0.00    +0.000 C 
ATOM     13  H   UNL     1      47.095   3.496  18.700  0.00  0.00    +0.000 HD
ENDBRANCH   5   7
BRANCH   1  14
ATOM     14  C   UNL     1      48.430   7.950  13.141  0.00  0.00    +0.000 C 
ATOM     15  C   UNL     1      49.228   8.878  12.217  0.00  0.00    +0.000 C 
ATOM     16  C   UNL     1      49.651   7.461  12.372  0.00  0.00    +0.000 C 
BRANCH  14  22
ATOM     17 CL   UNL     1      43.474   3.053  12.626  0.00  0.00    +0.000 Cl
ATOM     18  C   UNL     1      44.567   4.370  12.743  0.00  0.00    +0.000 A 
ATOM     19  C   UNL     1      45.930   4.161  12.700  0.00  0.00    +0.000 A 
ATOM     20  C   UNL     1      46.790   5.264  12.762  0.00  0.00    +0.000 A 
ATOM     21  C   UNL     1      46.274   6.551  12.846  0.00  0.00    +0.000 A 
ATOM     22  N   UNL     1      47.030   7.719  12.770  0.00  0.00    +0.000 N 
ATOM     23  N   UNL     1      44.938   6.753  12.909  0.00  0.00    +0.000 NA
ATOM     24  C   UNL     1      44.119   5.671  12.862  0.00  0.00    +0.000 A 
ATOM     25  H   UNL     1      46.385   8.496  12.910  0.00  0.00    +0.000 HD
ENDBRANCH  14  22
ENDBRANCH   1  14
TORSDOF 3
ENDMDL
MODEL 6
REMARK VINA RESULT:    -5.946      2.958      6.998
REMARK INTER + INTRA:          -7.813
REMARK INTER:                  -7.407
REMARK INTRA:                  -0.405
REMARK UNBOUND:                -0.823
REMARK  Name = 
REMARK  3 active torsions:
REMARK  status: ('A' for Active; 'I' for Inactive)
REMARK    1  A    between atoms: N_6  and  C_7
REMARK    2  A    between atoms: C_7  and  C_8
REMARK    3  A    between atoms: C_12  and  C_13
REMARK                            x       y       z     vdW  Elec       q    Type
REMARK                         _______ _______ _______ _____ _____    ______ ____
ROOT
ATOM      1  C   UNL     1      47.429   6.850  12.473  0.00  0.00    +0.000 A 
ATOM      2  C   UNL     1      47.588   6.104  13.646  0.00  0.00    +0.000 A 
ATOM      3  C   UNL     1      46.776   5.002  13.906  0.00  0.00    +0.000 A 
ATOM      4  C   UNL     1      45.780   4.634  13.002  0.00  0.00    +0.000 A 
ATOM      5  C   UNL     1      45.625   5.302  11.780  0.00  0.00    +0.000 A 
ATOM      6  C   UNL     1      46.497   6.375  11.523  0.00  0.00    +0.000 A 
ENDROOT
BRANCH   5   7
ATOM      7  C   UNL     1      44.486   5.041  10.797  0.00  0.00    +0.000 C 
ATOM      8  C   UNL     1      43.246   4.328  11.366  0.00  0.00    +0.000 C 
ATOM      9  C   UNL     1      43.456   2.818  11.508  0.00  0.00    +0.000 C 
ATOM     10  N   UNL     1      43.866   2.198  10.251  0.00  0.00    +0.000 NA
ATOM     11  C   UNL     1      45.091   2.811   9.733  0.00  0.00    +0.000 C 
ATOM     12  C   UNL     1      44.924   4.312   9.511  0.00  0.00    +0.000 C 
ATOM     13  H   UNL     1      43.121   2.305   9.565  0.00  0.00    +0.000 HD
ENDBRANCH   5   7
BRANCH   1  14
ATOM     14  C   UNL     1      48.126   8.206  12.293  0.00  0.00    +0.000 C 
ATOM     15  C   UNL     1      47.199   9.426  12.202  0.00  0.00    +0.000 C 
ATOM     16  C   UNL     1      47.964   9.180  13.453  0.00  0.00    +0.000 C 
BRANCH  14  22
ATOM     17 CL   UNL     1      55.094   8.144  11.809  0.00  0.00    +0.000 Cl
ATOM     18  C   UNL     1      53.381   8.108  11.767  0.00  0.00    +0.000 A 
ATOM     19  C   UNL     1      52.638   8.601  12.821  0.00  0.00    +0.000 A 
ATOM     20  C   UNL     1      51.241   8.588  12.734  0.00  0.00    +0.000 A 
ATOM     21  C   UNL     1      50.614   8.103  11.593  0.00  0.00    +0.000 A 
ATOM     22  N   UNL     1      49.244   8.175  11.345  0.00  0.00    +0.000 N 
ATOM     23  N   UNL     1      51.342   7.602  10.570  0.00  0.00    +0.000 NA
ATOM     24  C   UNL     1      52.696   7.609  10.676  0.00  0.00    +0.000 A 
ATOM     25  H   UNL     1      49.081   7.698  10.460  0.00  0.00    +0.000 HD
ENDBRANCH  14  22
ENDBRANCH   1  14
TORSDOF 3
ENDMDL
MODEL 7
REMARK VINA RESULT:    -5.733      3.555      5.816
REMARK INTER + INTRA:          -7.562
REMARK INTER:                  -7.487
REMARK INTRA:                  -0.074
REMARK UNBOUND:                -0.823
REMARK  Name = 
REMARK  3 active torsions:
REMARK  status: ('A' for Active; 'I' for Inactive)
REMARK    1  A    between atoms: N_6  and  C_7
REMARK    2  A    between atoms: C_7  and  C_8
REMARK    3  A    between atoms: C_12  and  C_13
REMARK                            x       y       z     vdW  Elec       q    Type
REMARK                         _______ _______ _______ _____ _____    ______ ____
ROOT
ATOM      1  C   UNL     1      49.396   7.143  14.876  0.00  0.00    +0.000 A 
ATOM      2  C   UNL     1      50.699   7.653  14.846  0.00  0.00    +0.000 A 
ATOM      3  C   UNL     1      51.628   7.290  15.818  0.00  0.00    +0.000 A 
ATOM      4  C   UNL     1      51.267   6.420  16.848  0.00  0.00    +0.000 A 
ATOM      5  C   UNL     1      49.999   5.826  16.884  0.00  0.00    +0.000 A 
ATOM      6  C   UNL     1      49.102   6.169  15.856  0.00  0.00    +0.000 A 
ENDROOT
BRANCH   5   7
ATOM      7  C   UNL     1      49.487   4.964  18.036  0.00  0.00    +0.000 C 
ATOM      8  C   UNL     1      48.501   3.844  17.662  0.00  0.00    +0.000 C 
ATOM      9  C   UNL     1      47.080   4.368  17.437  0.00  0.00    +0.000 C 
ATOM     10  N   UNL     1      46.582   5.120  18.585  0.00  0.00    +0.000 NA
ATOM     11  C   UNL     1      47.468   6.242  18.909  0.00  0.00    +0.000 C 
ATOM     12  C   UNL     1      48.890   5.773  19.205  0.00  0.00    +0.000 C 
ATOM     13  H   UNL     1      46.518   4.500  19.390  0.00  0.00    +0.000 HD
ENDBRANCH   5   7
BRANCH   1  14
ATOM     14  C   UNL     1      48.294   7.726  13.980  0.00  0.00    +0.000 C 
ATOM     15  C   UNL     1      48.133   9.251  14.027  0.00  0.00    +0.000 C 
ATOM     16  C   UNL     1      48.782   8.620  12.847  0.00  0.00    +0.000 C 
BRANCH  14  22
ATOM     17 CL   UNL     1      43.979   3.974   9.966  0.00  0.00    +0.000 Cl
ATOM     18  C   UNL     1      44.962   4.825  11.084  0.00  0.00    +0.000 A 
ATOM     19  C   UNL     1      45.824   5.814  10.657  0.00  0.00    +0.000 A 
ATOM     20  C   UNL     1      46.584   6.511  11.603  0.00  0.00    +0.000 A 
ATOM     21  C   UNL     1      46.455   6.222  12.956  0.00  0.00    +0.000 A 
ATOM     22  N   UNL     1      47.052   6.946  13.986  0.00  0.00    +0.000 N 
ATOM     23  N   UNL     1      45.625   5.238  13.372  0.00  0.00    +0.000 NA
ATOM     24  C   UNL     1      44.906   4.562  12.439  0.00  0.00    +0.000 A 
ATOM     25  H   UNL     1      46.815   6.470  14.856  0.00  0.00    +0.000 HD
ENDBRANCH  14  22
ENDBRANCH   1  14
TORSDOF 3
ENDMDL
MODEL 8
REMARK VINA RESULT:    -5.725      5.761      7.513
REMARK INTER + INTRA:          -7.553
REMARK INTER:                  -6.967
REMARK INTRA:                  -0.586
REMARK UNBOUND:                -0.823
REMARK  Name = 
REMARK  3 active torsions:
REMARK  status: ('A' for Active; 'I' for Inactive)
REMARK    1  A    between atoms: N_6  and  C_7
REMARK    2  A    between atoms: C_7  and  C_8
REMARK    3  A    between atoms: C_12  and  C_13
REMARK                            x       y       z     vdW  Elec       q    Type
REMARK                         _______ _______ _______ _____ _____    ______ ____
ROOT
ATOM      1  C   UNL     1      49.357   4.093  17.325  0.00  0.00    +0.000 A 
ATOM      2  C   UNL     1      49.024   2.765  17.037  0.00  0.00    +0.000 A 
ATOM      3  C   UNL     1      49.997   1.768  17.044  0.00  0.00    +0.000 A 
ATOM      4  C   UNL     1      51.326   2.084  17.327  0.00  0.00    +0.000 A 
ATOM      5  C   UNL     1      51.701   3.384  17.693  0.00  0.00    +0.000 A 
ATOM      6  C   UNL     1      50.685   4.355  17.731  0.00  0.00    +0.000 A 
ENDROOT
BRANCH   5   7
ATOM      7  C   UNL     1      53.145   3.836  17.897  0.00  0.00    +0.000 C 
ATOM      8  C   UNL     1      54.218   2.734  17.832  0.00  0.00    +0.000 C 
ATOM      9  C   UNL     1      54.300   1.922  19.127  0.00  0.00    +0.000 C 
ATOM     10  N   UNL     1      54.514   2.770  20.296  0.00  0.00    +0.000 NA
ATOM     11  C   UNL     1      53.457   3.778  20.421  0.00  0.00    +0.000 C 
ATOM     12  C   UNL     1      53.367   4.661  19.179  0.00  0.00    +0.000 C 
ATOM     13  H   UNL     1      55.414   3.238  20.212  0.00  0.00    +0.000 HD
ENDBRANCH   5   7
BRANCH   1  14
ATOM     14  C   UNL     1      48.364   5.235  17.068  0.00  0.00    +0.000 C 
ATOM     15  C   UNL     1      48.052   6.132  18.274  0.00  0.00    +0.000 C 
ATOM     16  C   UNL     1      48.941   6.639  17.194  0.00  0.00    +0.000 C 
BRANCH  14  22
ATOM     17 CL   UNL     1      45.668   5.640  10.637  0.00  0.00    +0.000 Cl
ATOM     18  C   UNL     1      46.220   5.416  12.245  0.00  0.00    +0.000 A 
ATOM     19  C   UNL     1      47.125   6.292  12.809  0.00  0.00    +0.000 A 
ATOM     20  C   UNL     1      47.524   6.097  14.136  0.00  0.00    +0.000 A 
ATOM     21  C   UNL     1      46.999   5.046  14.879  0.00  0.00    +0.000 A 
ATOM     22  N   UNL     1      47.217   4.846  16.241  0.00  0.00    +0.000 N 
ATOM     23  N   UNL     1      46.129   4.176  14.319  0.00  0.00    +0.000 NA
ATOM     24  C   UNL     1      45.763   4.372  13.025  0.00  0.00    +0.000 A 
ATOM     25  H   UNL     1      46.747   3.977  16.489  0.00  0.00    +0.000 HD
ENDBRANCH  14  22
ENDBRANCH   1  14
TORSDOF 3
ENDMDL
MODEL 9
REMARK VINA RESULT:    -5.314      4.602      7.338
REMARK INTER + INTRA:          -7.070
REMARK INTER:                  -6.116
REMARK INTRA:                  -0.954
REMARK UNBOUND:                -0.823
REMARK  Name = 
REMARK  3 active torsions:
REMARK  status: ('A' for Active; 'I' for Inactive)
REMARK    1  A    between atoms: N_6  and  C_7
REMARK    2  A    between atoms: C_7  and  C_8
REMARK    3  A    between atoms: C_12  and  C_13
REMARK                            x       y       z     vdW  Elec       q    Type
REMARK                         _______ _______ _______ _____ _____    ______ ____
ROOT
ATOM      1  C   UNL     1      47.669   7.742  12.084  0.00  0.00    +0.000 A 
ATOM      2  C   UNL     1      47.024   6.520  11.863  0.00  0.00    +0.000 A 
ATOM      3  C   UNL     1      45.646   6.468  11.660  0.00  0.00    +0.000 A 
ATOM      4  C   UNL     1      44.887   7.638  11.687  0.00  0.00    +0.000 A 
ATOM      5  C   UNL     1      45.492   8.893  11.832  0.00  0.00    +0.000 A 
ATOM      6  C   UNL     1      46.890   8.916  11.979  0.00  0.00    +0.000 A 
ENDROOT
BRANCH   5   7
ATOM      7  C   UNL     1      44.724  10.203  11.994  0.00  0.00    +0.000 C 
ATOM      8  C   UNL     1      43.401  10.317  11.214  0.00  0.00    +0.000 C 
ATOM      9  C   UNL     1      43.622  10.642   9.735  0.00  0.00    +0.000 C 
ATOM     10  N   UNL     1      44.426  11.847   9.550  0.00  0.00    +0.000 NA
ATOM     11  C   UNL     1      45.724  11.727  10.219  0.00  0.00    +0.000 C 
ATOM     12  C   UNL     1      45.568  11.462  11.715  0.00  0.00    +0.000 C 
ATOM     13  H   UNL     1      43.926  12.647   9.931  0.00  0.00    +0.000 HD
ENDBRANCH   5   7
BRANCH   1  14
ATOM     14  C   UNL     1      49.126   7.795  12.566  0.00  0.00    +0.000 C 
ATOM     15  C   UNL     1      50.193   7.820  11.464  0.00  0.00    +0.000 C 
ATOM     16  C   UNL     1      49.882   9.068  12.210  0.00  0.00    +0.000 C 
BRANCH  14  22
ATOM     17 CL   UNL     1      48.386   7.175  19.485  0.00  0.00    +0.000 Cl
ATOM     18  C   UNL     1      48.600   7.162  17.784  0.00  0.00    +0.000 A 
ATOM     19  C   UNL     1      48.625   8.340  17.066  0.00  0.00    +0.000 A 
ATOM     20  C   UNL     1      48.838   8.291  15.684  0.00  0.00    +0.000 A 
ATOM     21  C   UNL     1      49.042   7.072  15.048  0.00  0.00    +0.000 A 
ATOM     22  N   UNL     1      49.402   6.921  13.711  0.00  0.00    +0.000 N 
ATOM     23  N   UNL     1      48.997   5.916  15.749  0.00  0.00    +0.000 NA
ATOM     24  C   UNL     1      48.775   5.981  17.088  0.00  0.00    +0.000 A 
ATOM     25  H   UNL     1      49.430   5.919  13.526  0.00  0.00    +0.000 HD
ENDBRANCH  14  22
ENDBRANCH   1  14
TORSDOF 3
ENDMDL
