MODEL 1
REMARK VINA RESULT:    -8.333      0.000      0.000
REMARK INTER + INTRA:         -11.513
REMARK INTER:                 -10.769
REMARK INTRA:                  -0.744
REMARK UNBOUND:                -0.744
REMARK  Name = 
REMARK  5 active torsions:
REMARK  status: ('A' for Active; 'I' for Inactive)
REMARK    1  A    between atoms: C_2  and  C_3
REMARK    2  A    between atoms: C_6  and  O_7
REMARK    3  A    between atoms: O_7  and  C_8
REMARK    4  A    between atoms: C_8  and  C_9
REMARK    5  A    between atoms: C_13  and  C_14
REMARK                            x       y       z     vdW  Elec       q    Type
REMARK                         _______ _______ _______ _____ _____    ______ ____
ROOT
ATOM      1  C   UNL     1      44.687   4.830  11.445  0.00  0.00    +0.000 A 
ATOM      2  C   UNL     1      44.821   4.094  12.612  0.00  0.00    +0.000 A 
ATOM      3  N   UNL     1      45.690   4.399  13.591  0.00  0.00    +0.000 NA
ATOM      4  C   UNL     1      46.462   5.496  13.397  0.00  0.00    +0.000 A 
ATOM      5  C   UNL     1      46.455   6.313  12.264  0.00  0.00    +0.000 A 
ATOM      6  C   UNL     1      45.517   5.949  11.283  0.00  0.00    +0.000 A 
ENDROOT
BRANCH   5   7
ATOM      7  C   UNL     1      47.326   7.515  12.124  0.00  0.00    +0.000 A 
ATOM      8  C   UNL     1      48.716   7.339  11.912  0.00  0.00    +0.000 A 
ATOM      9  C   UNL     1      49.593   8.416  11.753  0.00  0.00    +0.000 A 
ATOM     10  C   UNL     1      49.106   9.715  11.770  0.00  0.00    +0.000 A 
ATOM     11  C   UNL     1      47.749   9.932  11.977  0.00  0.00    +0.000 A 
ATOM     12  C   UNL     1      46.871   8.856  12.176  0.00  0.00    +0.000 A 
ATOM     13 CL   UNL     1      45.242   9.320  12.552  0.00  0.00    +0.000 Cl
ENDBRANCH   5   7
BRANCH   1  14
ATOM     14  C   UNL     1      43.623   4.499  10.435  0.00  0.00    +0.000 C 
BRANCH  14  15
ATOM     15  O   UNL     1      43.694   3.113  10.078  0.00  0.00    +0.000 OA
BRANCH  15  19
ATOM     16  C   UNL     1      46.597   2.382   7.265  0.00  0.00    +0.000 A 
ATOM     17  C   UNL     1      45.963   3.624   7.290  0.00  0.00    +0.000 A 
ATOM     18  C   UNL     1      44.986   3.873   8.254  0.00  0.00    +0.000 A 
ATOM     19  C   UNL     1      44.682   2.864   9.153  0.00  0.00    +0.000 A 
ATOM     20  N   UNL     1      45.293   1.659   9.158  0.00  0.00    +0.000 NA
ATOM     21  C   UNL     1      46.236   1.443   8.216  0.00  0.00    +0.000 A 
BRANCH  16  23
ATOM     22  N   UNL     1      48.395   1.804   5.499  0.00  0.00    +0.000 NA
ATOM     23  C   UNL     1      47.589   2.070   6.285  0.00  0.00    +0.000 C 
ENDBRANCH  16  23
ENDBRANCH  15  19
ENDBRANCH  14  15
ENDBRANCH   1  14
TORSDOF 5
ENDMDL
MODEL 2
REMARK VINA RESULT:    -7.820      1.633      1.964
REMARK INTER + INTRA:         -10.849
REMARK INTER:                 -10.530
REMARK INTRA:                  -0.320
REMARK UNBOUND:                -0.744
REMARK  Name = 
REMARK  5 active torsions:
REMARK  status: ('A' for Active; 'I' for Inactive)
REMARK    1  A    between atoms: C_2  and  C_3
REMARK    2  A    between atoms: C_6  and  O_7
REMARK    3  A    between atoms: O_7  and  C_8
REMARK    4  A    between atoms: C_8  and  C_9
REMARK    5  A    between atoms: C_13  and  C_14
REMARK                            x       y       z     vdW  Elec       q    Type
REMARK                         _______ _______ _______ _____ _____    ______ ____
ROOT
ATOM      1  C   UNL     1      45.115   5.180  11.722  0.00  0.00    +0.000 A 
ATOM      2  C   UNL     1      44.963   4.291  12.775  0.00  0.00    +0.000 A 
ATOM      3  N   UNL     1      45.817   4.208  13.810  0.00  0.00    +0.000 NA
ATOM      4  C   UNL     1      46.873   5.056  13.796  0.00  0.00    +0.000 A 
ATOM      5  C   UNL     1      47.167   5.982  12.792  0.00  0.00    +0.000 A 
ATOM      6  C   UNL     1      46.231   6.029  11.744  0.00  0.00    +0.000 A 
ENDROOT
BRANCH   5   7
ATOM      7  C   UNL     1      48.344   6.896  12.849  0.00  0.00    +0.000 A 
ATOM      8  C   UNL     1      48.791   7.519  11.657  0.00  0.00    +0.000 A 
ATOM      9  C   UNL     1      49.876   8.402  11.634  0.00  0.00    +0.000 A 
ATOM     10  C   UNL     1      50.536   8.719  12.812  0.00  0.00    +0.000 A 
ATOM     11  C   UNL     1      50.130   8.128  14.002  0.00  0.00    +0.000 A 
ATOM     12  C   UNL     1      49.068   7.211  14.024  0.00  0.00    +0.000 A 
ATOM     13 CL   UNL     1      48.789   6.475  15.570  0.00  0.00    +0.000 Cl
ENDBRANCH   5   7
BRANCH   1  14
ATOM     14  C   UNL     1      44.070   5.298  10.648  0.00  0.00    +0.000 C 
BRANCH  14  15
ATOM     15  O   UNL     1      43.717   4.000  10.156  0.00  0.00    +0.000 OA
BRANCH  15  19
ATOM     16  C   UNL     1      46.519   2.527   7.538  0.00  0.00    +0.000 A 
ATOM     17  C   UNL     1      45.894   1.660   8.434  0.00  0.00    +0.000 A 
ATOM     18  C   UNL     1      44.934   2.161   9.313  0.00  0.00    +0.000 A 
ATOM     19  C   UNL     1      44.642   3.514   9.260  0.00  0.00    +0.000 A 
ATOM     20  N   UNL     1      45.223   4.371   8.392  0.00  0.00    +0.000 NA
ATOM     21  C   UNL     1      46.148   3.860   7.550  0.00  0.00    +0.000 A 
BRANCH  16  23
ATOM     22  N   UNL     1      48.341   1.686   5.908  0.00  0.00    +0.000 NA
ATOM     23  C   UNL     1      47.523   2.067   6.631  0.00  0.00    +0.000 C 
ENDBRANCH  16  23
ENDBRANCH  15  19
ENDBRANCH  14  15
ENDBRANCH   1  14
TORSDOF 5
ENDMDL
MODEL 3
REMARK VINA RESULT:    -7.525      1.773      2.287
REMARK INTER + INTRA:         -10.468
REMARK INTER:                  -9.693
REMARK INTRA:                  -0.775
REMARK UNBOUND:                -0.744
REMARK  Name = 
REMARK  5 active torsions:
REMARK  status: ('A' for Active; 'I' for Inactive)
REMARK    1  A    between atoms: C_2  and  C_3
REMARK    2  A    between atoms: C_6  and  O_7
REMARK    3  A    between atoms: O_7  and  C_8
REMARK    4  A    between atoms: C_8  and  C_9
REMARK    5  A    between atoms: C_13  and  C_14
REMARK                            x       y       z     vdW  Elec       q    Type
REMARK                         _______ _______ _______ _____ _____    ______ ____
ROOT
ATOM      1  C   UNL     1      44.874   5.485  11.652  0.00  0.00    +0.000 A 
ATOM      2  C   UNL     1      44.025   6.563  11.452  0.00  0.00    +0.000 A 
ATOM      3  N   UNL     1      44.410   7.846  11.558  0.00  0.00    +0.000 NA
ATOM      4  C   UNL     1      45.709   8.065  11.875  0.00  0.00    +0.000 A 
ATOM      5  C   UNL     1      46.668   7.082  12.131  0.00  0.00    +0.000 A 
ATOM      6  C   UNL     1      46.207   5.762  11.992  0.00  0.00    +0.000 A 
ENDROOT
BRANCH   5   7
ATOM      7  C   UNL     1      48.087   7.398  12.463  0.00  0.00    +0.000 A 
ATOM      8  C   UNL     1      48.877   8.097  11.517  0.00  0.00    +0.000 A 
ATOM      9  C   UNL     1      50.209   8.445  11.763  0.00  0.00    +0.000 A 
ATOM     10  C   UNL     1      50.793   8.132  12.982  0.00  0.00    +0.000 A 
ATOM     11  C   UNL     1      50.053   7.445  13.937  0.00  0.00    +0.000 A 
ATOM     12  C   UNL     1      48.729   7.059  13.679  0.00  0.00    +0.000 A 
ATOM     13 CL   UNL     1      48.008   6.096  14.929  0.00  0.00    +0.000 Cl
ENDBRANCH   5   7
BRANCH   1  14
ATOM     14  C   UNL     1      44.409   4.075  11.417  0.00  0.00    +0.000 C 
BRANCH  14  15
ATOM     15  O   UNL     1      43.859   3.948  10.100  0.00  0.00    +0.000 OA
BRANCH  15  19
ATOM     16  C   UNL     1      46.645   2.498   7.453  0.00  0.00    +0.000 A 
ATOM     17  C   UNL     1      45.994   1.616   8.316  0.00  0.00    +0.000 A 
ATOM     18  C   UNL     1      45.039   2.110   9.205  0.00  0.00    +0.000 A 
ATOM     19  C   UNL     1      44.779   3.471   9.195  0.00  0.00    +0.000 A 
ATOM     20  N   UNL     1      45.386   4.342   8.360  0.00  0.00    +0.000 NA
ATOM     21  C   UNL     1      46.305   3.838   7.508  0.00  0.00    +0.000 A 
BRANCH  16  23
ATOM     22  N   UNL     1      48.453   1.665   5.803  0.00  0.00    +0.000 NA
ATOM     23  C   UNL     1      47.645   2.045   6.538  0.00  0.00    +0.000 C 
ENDBRANCH  16  23
ENDBRANCH  15  19
ENDBRANCH  14  15
ENDBRANCH   1  14
TORSDOF 5
ENDMDL
MODEL 4
REMARK VINA RESULT:    -6.639      3.874      8.033
REMARK INTER + INTRA:          -9.324
REMARK INTER:                  -8.609
REMARK INTRA:                  -0.714
REMARK UNBOUND:                -0.744
REMARK  Name = 
REMARK  5 active torsions:
REMARK  status: ('A' for Active; 'I' for Inactive)
REMARK    1  A    between atoms: C_2  and  C_3
REMARK    2  A    between atoms: C_6  and  O_7
REMARK    3  A    between atoms: O_7  and  C_8
REMARK    4  A    between atoms: C_8  and  C_9
REMARK    5  A    between atoms: C_13  and  C_14
REMARK                            x       y       z     vdW  Elec       q    Type
REMARK                         _______ _______ _______ _____ _____    ______ ____
ROOT
ATOM      1  C   UNL     1      46.715   6.877  12.996  0.00  0.00    +0.000 A 
ATOM      2  C   UNL     1      45.899   7.990  12.869  0.00  0.00    +0.000 A 
ATOM      3  N   UNL     1      44.895   8.083  11.980  0.00  0.00    +0.000 NA
ATOM      4  C   UNL     1      44.694   7.009  11.179  0.00  0.00    +0.000 A 
ATOM      5  C   UNL     1      45.451   5.835  11.176  0.00  0.00    +0.000 A 
ATOM      6  C   UNL     1      46.476   5.795  12.136  0.00  0.00    +0.000 A 
ENDROOT
BRANCH   5   7
ATOM      7  C   UNL     1      45.162   4.685  10.272  0.00  0.00    +0.000 A 
ATOM      8  C   UNL     1      45.548   4.763   8.911  0.00  0.00    +0.000 A 
ATOM      9  C   UNL     1      45.329   3.719   8.007  0.00  0.00    +0.000 A 
ATOM     10  C   UNL     1      44.739   2.540   8.441  0.00  0.00    +0.000 A 
ATOM     11  C   UNL     1      44.344   2.423   9.768  0.00  0.00    +0.000 A 
ATOM     12  C   UNL     1      44.526   3.483  10.669  0.00  0.00    +0.000 A 
ATOM     13 CL   UNL     1      43.853   3.208  12.244  0.00  0.00    +0.000 Cl
ENDBRANCH   5   7
BRANCH   1  14
ATOM     14  C   UNL     1      47.753   6.793  14.080  0.00  0.00    +0.000 C 
BRANCH  14  15
ATOM     15  O   UNL     1      48.037   5.424  14.389  0.00  0.00    +0.000 OA
BRANCH  15  19
ATOM     16  C   UNL     1      48.442   4.831  18.434  0.00  0.00    +0.000 A 
ATOM     17  C   UNL     1      47.457   4.134  17.734  0.00  0.00    +0.000 A 
ATOM     18  C   UNL     1      47.330   4.328  16.358  0.00  0.00    +0.000 A 
ATOM     19  C   UNL     1      48.195   5.217  15.741  0.00  0.00    +0.000 A 
ATOM     20  N   UNL     1      49.165   5.893  16.396  0.00  0.00    +0.000 NA
ATOM     21  C   UNL     1      49.268   5.686  17.726  0.00  0.00    +0.000 A 
BRANCH  16  23
ATOM     22  N   UNL     1      48.742   4.563  20.988  0.00  0.00    +0.000 NA
ATOM     23  C   UNL     1      48.599   4.682  19.846  0.00  0.00    +0.000 C 
ENDBRANCH  16  23
ENDBRANCH  15  19
ENDBRANCH  14  15
ENDBRANCH   1  14
TORSDOF 5
ENDMDL
MODEL 5
REMARK VINA RESULT:    -6.140      4.179      7.881
REMARK INTER + INTRA:          -8.678
REMARK INTER:                  -8.040
REMARK INTRA:                  -0.638
REMARK UNBOUND:                -0.744
REMARK  Name = 
REMARK  5 active torsions:
REMARK  status: ('A' for Active; 'I' for Inactive)
REMARK    1  A    between atoms: C_2  and  C_3
REMARK    2  A    between atoms: C_6  and  O_7
REMARK    3  A    between atoms: O_7  and  C_8
REMARK    4  A    between atoms: C_8  and  C_9
REMARK    5  A    between atoms: C_13  and  C_14
REMARK                            x       y       z     vdW  Elec       q    Type
REMARK                         _______ _______ _______ _____ _____    ______ ____
ROOT
ATOM      1  C   UNL     1      47.325   7.236  12.972  0.00  0.00    +0.000 A 
ATOM      2  C   UNL     1      46.454   8.309  13.074  0.00  0.00    +0.000 A 
ATOM      3  N   UNL     1      45.275   8.378  12.433  0.00  0.00    +0.000 NA
ATOM      4  C   UNL     1      44.946   7.320  11.652  0.00  0.00    +0.000 A 
ATOM      5  C   UNL     1      45.734   6.186  11.434  0.00  0.00    +0.000 A 
ATOM      6  C   UNL     1      46.947   6.170  12.142  0.00  0.00    +0.000 A 
ENDROOT
BRANCH   5   7
ATOM      7  C   UNL     1      45.301   5.051  10.569  0.00  0.00    +0.000 A 
ATOM      8  C   UNL     1      45.648   5.060   9.196  0.00  0.00    +0.000 A 
ATOM      9  C   UNL     1      45.294   4.023   8.326  0.00  0.00    +0.000 A 
ATOM     10  C   UNL     1      44.605   2.920   8.808  0.00  0.00    +0.000 A 
ATOM     11  C   UNL     1      44.245   2.873  10.149  0.00  0.00    +0.000 A 
ATOM     12  C   UNL     1      44.562   3.929  11.017  0.00  0.00    +0.000 A 
ATOM     13 CL   UNL     1      43.918   3.758  12.618  0.00  0.00    +0.000 Cl
ENDBRANCH   5   7
BRANCH   1  14
ATOM     14  C   UNL     1      48.580   7.171  13.797  0.00  0.00    +0.000 C 
BRANCH  14  15
ATOM     15  O   UNL     1      48.257   7.185  15.193  0.00  0.00    +0.000 OA
BRANCH  15  19
ATOM     16  C   UNL     1      50.933   4.944  17.359  0.00  0.00    +0.000 A 
ATOM     17  C   UNL     1      51.366   6.111  16.729  0.00  0.00    +0.000 A 
ATOM     18  C   UNL     1      50.452   6.876  16.005  0.00  0.00    +0.000 A 
ATOM     19  C   UNL     1      49.140   6.437  15.938  0.00  0.00    +0.000 A 
ATOM     20  N   UNL     1      48.694   5.319  16.551  0.00  0.00    +0.000 NA
ATOM     21  C   UNL     1      49.598   4.597  17.248  0.00  0.00    +0.000 A 
BRANCH  16  23
ATOM     22  N   UNL     1      52.551   3.437  18.698  0.00  0.00    +0.000 NA
ATOM     23  C   UNL     1      51.834   4.115  18.096  0.00  0.00    +0.000 C 
ENDBRANCH  16  23
ENDBRANCH  15  19
ENDBRANCH  14  15
ENDBRANCH   1  14
TORSDOF 5
ENDMDL
MODEL 6
REMARK VINA RESULT:    -6.078      4.191      8.345
REMARK INTER + INTRA:          -8.598
REMARK INTER:                  -7.818
REMARK INTRA:                  -0.780
REMARK UNBOUND:                -0.744
REMARK  Name = 
REMARK  5 active torsions:
REMARK  status: ('A' for Active; 'I' for Inactive)
REMARK    1  A    between atoms: C_2  and  C_3
REMARK    2  A    between atoms: C_6  and  O_7
REMARK    3  A    between atoms: O_7  and  C_8
REMARK    4  A    between atoms: C_8  and  C_9
REMARK    5  A    between atoms: C_13  and  C_14
REMARK                            x       y       z     vdW  Elec       q    Type
REMARK                         _______ _______ _______ _____ _____    ______ ____
ROOT
ATOM      1  C   UNL     1      47.435   7.534  13.693  0.00  0.00    +0.000 A 
ATOM      2  C   UNL     1      46.909   8.742  13.261  0.00  0.00    +0.000 A 
ATOM      3  N   UNL     1      45.837   8.845  12.457  0.00  0.00    +0.000 NA
ATOM      4  C   UNL     1      45.259   7.684  12.066  0.00  0.00    +0.000 A 
ATOM      5  C   UNL     1      45.693   6.398  12.399  0.00  0.00    +0.000 A 
ATOM      6  C   UNL     1      46.810   6.359  13.251  0.00  0.00    +0.000 A 
ENDROOT
BRANCH   5   7
ATOM      7  C   UNL     1      44.997   5.161  11.942  0.00  0.00    +0.000 A 
ATOM      8  C   UNL     1      44.276   4.388  12.885  0.00  0.00    +0.000 A 
ATOM      9  C   UNL     1      43.583   3.226  12.529  0.00  0.00    +0.000 A 
ATOM     10  C   UNL     1      43.560   2.811  11.206  0.00  0.00    +0.000 A 
ATOM     11  C   UNL     1      44.256   3.541  10.250  0.00  0.00    +0.000 A 
ATOM     12  C   UNL     1      44.986   4.685  10.608  0.00  0.00    +0.000 A 
ATOM     13 CL   UNL     1      45.898   5.388   9.311  0.00  0.00    +0.000 Cl
ENDBRANCH   5   7
BRANCH   1  14
ATOM     14  C   UNL     1      48.571   7.488  14.676  0.00  0.00    +0.000 C 
BRANCH  14  15
ATOM     15  O   UNL     1      48.947   6.130  14.936  0.00  0.00    +0.000 OA
BRANCH  15  19
ATOM     16  C   UNL     1      48.656   5.191  18.924  0.00  0.00    +0.000 A 
ATOM     17  C   UNL     1      48.670   6.530  18.534  0.00  0.00    +0.000 A 
ATOM     18  C   UNL     1      48.756   6.845  17.177  0.00  0.00    +0.000 A 
ATOM     19  C   UNL     1      48.829   5.804  16.267  0.00  0.00    +0.000 A 
ATOM     20  N   UNL     1      48.803   4.500  16.620  0.00  0.00    +0.000 NA
ATOM     21  C   UNL     1      48.717   4.221  17.939  0.00  0.00    +0.000 A 
BRANCH  16  23
ATOM     22  N   UNL     1      48.522   4.519  21.417  0.00  0.00    +0.000 NA
ATOM     23  C   UNL     1      48.589   4.815  20.301  0.00  0.00    +0.000 C 
ENDBRANCH  16  23
ENDBRANCH  15  19
ENDBRANCH  14  15
ENDBRANCH   1  14
TORSDOF 5
ENDMDL
MODEL 7
REMARK VINA RESULT:    -5.956      3.621      7.352
REMARK INTER + INTRA:          -8.440
REMARK INTER:                  -7.623
REMARK INTRA:                  -0.817
REMARK UNBOUND:                -0.744
REMARK  Name = 
REMARK  5 active torsions:
REMARK  status: ('A' for Active; 'I' for Inactive)
REMARK    1  A    between atoms: C_2  and  C_3
REMARK    2  A    between atoms: C_6  and  O_7
REMARK    3  A    between atoms: O_7  and  C_8
REMARK    4  A    between atoms: C_8  and  C_9
REMARK    5  A    between atoms: C_13  and  C_14
REMARK                            x       y       z     vdW  Elec       q    Type
REMARK                         _______ _______ _______ _____ _____    ______ ____
ROOT
ATOM      1  C   UNL     1      46.821   6.958  13.004  0.00  0.00    +0.000 A 
ATOM      2  C   UNL     1      45.976   8.055  12.939  0.00  0.00    +0.000 A 
ATOM      3  N   UNL     1      44.919   8.136  12.114  0.00  0.00    +0.000 NA
ATOM      4  C   UNL     1      44.690   7.066  11.314  0.00  0.00    +0.000 A 
ATOM      5  C   UNL     1      45.469   5.907  11.252  0.00  0.00    +0.000 A 
ATOM      6  C   UNL     1      46.552   5.880  12.147  0.00  0.00    +0.000 A 
ENDROOT
BRANCH   5   7
ATOM      7  C   UNL     1      45.149   4.760  10.354  0.00  0.00    +0.000 A 
ATOM      8  C   UNL     1      45.524   4.828   8.990  0.00  0.00    +0.000 A 
ATOM      9  C   UNL     1      45.276   3.785   8.091  0.00  0.00    +0.000 A 
ATOM     10  C   UNL     1      44.667   2.619   8.534  0.00  0.00    +0.000 A 
ATOM     11  C   UNL     1      44.282   2.514   9.865  0.00  0.00    +0.000 A 
ATOM     12  C   UNL     1      44.494   3.573  10.761  0.00  0.00    +0.000 A 
ATOM     13 CL   UNL     1      43.830   3.316  12.343  0.00  0.00    +0.000 Cl
ENDBRANCH   5   7
BRANCH   1  14
ATOM     14  C   UNL     1      47.924   6.884  14.023  0.00  0.00    +0.000 C 
BRANCH  14  15
ATOM     15  O   UNL     1      49.150   6.487  13.397  0.00  0.00    +0.000 OA
BRANCH  15  19
ATOM     16  C   UNL     1      51.442   9.667  12.168  0.00  0.00    +0.000 A 
ATOM     17  C   UNL     1      50.789   8.883  11.217  0.00  0.00    +0.000 A 
ATOM     18  C   UNL     1      50.001   7.812  11.638  0.00  0.00    +0.000 A 
ATOM     19  C   UNL     1      49.904   7.567  12.998  0.00  0.00    +0.000 A 
ATOM     20  N   UNL     1      50.516   8.320  13.938  0.00  0.00    +0.000 NA
ATOM     21  C   UNL     1      51.271   9.352  13.505  0.00  0.00    +0.000 A 
BRANCH  16  23
ATOM     22  N   UNL     1      52.946  11.657  11.490  0.00  0.00    +0.000 NA
ATOM     23  C   UNL     1      52.277  10.762  11.787  0.00  0.00    +0.000 C 
ENDBRANCH  16  23
ENDBRANCH  15  19
ENDBRANCH  14  15
ENDBRANCH   1  14
TORSDOF 5
ENDMDL
MODEL 8
REMARK VINA RESULT:    -5.742      4.191      6.910
REMARK INTER + INTRA:          -8.165
REMARK INTER:                  -7.414
REMARK INTRA:                  -0.751
REMARK UNBOUND:                -0.744
REMARK  Name = 
REMARK  5 active torsions:
REMARK  status: ('A' for Active; 'I' for Inactive)
REMARK    1  A    between atoms: C_2  and  C_3
REMARK    2  A    between atoms: C_6  and  O_7
REMARK    3  A    between atoms: O_7  and  C_8
REMARK    4  A    between atoms: C_8  and  C_9
REMARK    5  A    between atoms: C_13  and  C_14
REMARK                            x       y       z     vdW  Elec       q    Type
REMARK                         _______ _______ _______ _____ _____    ______ ____
ROOT
ATOM      1  C   UNL     1      46.600   4.660  13.871  0.00  0.00    +0.000 A 
ATOM      2  C   UNL     1      45.685   4.206  12.934  0.00  0.00    +0.000 A 
ATOM      3  N   UNL     1      45.383   4.867  11.804  0.00  0.00    +0.000 NA
ATOM      4  C   UNL     1      46.029   6.040  11.596  0.00  0.00    +0.000 A 
ATOM      5  C   UNL     1      46.953   6.632  12.461  0.00  0.00    +0.000 A 
ATOM      6  C   UNL     1      47.234   5.886  13.618  0.00  0.00    +0.000 A 
ENDROOT
BRANCH   5   7
ATOM      7  C   UNL     1      47.637   7.922  12.160  0.00  0.00    +0.000 A 
ATOM      8  C   UNL     1      49.025   7.916  11.876  0.00  0.00    +0.000 A 
ATOM      9  C   UNL     1      49.732   9.082  11.567  0.00  0.00    +0.000 A 
ATOM     10  C   UNL     1      49.068  10.298  11.500  0.00  0.00    +0.000 A 
ATOM     11  C   UNL     1      47.706  10.348  11.773  0.00  0.00    +0.000 A 
ATOM     12  C   UNL     1      47.000   9.187  12.123  0.00  0.00    +0.000 A 
ATOM     13 CL   UNL     1      45.344   9.460  12.559  0.00  0.00    +0.000 Cl
ENDBRANCH   5   7
BRANCH   1  14
ATOM     14  C   UNL     1      46.973   3.824  15.063  0.00  0.00    +0.000 C 
BRANCH  14  15
ATOM     15  O   UNL     1      47.451   4.659  16.124  0.00  0.00    +0.000 OA
BRANCH  15  19
ATOM     16  C   UNL     1      51.003   3.319  17.694  0.00  0.00    +0.000 A 
ATOM     17  C   UNL     1      49.989   2.404  17.410  0.00  0.00    +0.000 A 
ATOM     18  C   UNL     1      48.789   2.861  16.865  0.00  0.00    +0.000 A 
ATOM     19  C   UNL     1      48.652   4.219  16.631  0.00  0.00    +0.000 A 
ATOM     20  N   UNL     1      49.624   5.122  16.885  0.00  0.00    +0.000 NA
ATOM     21  C   UNL     1      50.777   4.655  17.410  0.00  0.00    +0.000 A 
BRANCH  16  23
ATOM     22  N   UNL     1      53.239   2.557  18.743  0.00  0.00    +0.000 NA
ATOM     23  C   UNL     1      52.243   2.905  18.271  0.00  0.00    +0.000 C 
ENDBRANCH  16  23
ENDBRANCH  15  19
ENDBRANCH  14  15
ENDBRANCH   1  14
TORSDOF 5
ENDMDL
MODEL 9
REMARK VINA RESULT:    -5.696      3.847      7.055
REMARK INTER + INTRA:          -8.105
REMARK INTER:                  -7.592
REMARK INTRA:                  -0.513
REMARK UNBOUND:                -0.744
REMARK  Name = 
REMARK  5 active torsions:
REMARK  status: ('A' for Active; 'I' for Inactive)
REMARK    1  A    between atoms: C_2  and  C_3
REMARK    2  A    between atoms: C_6  and  O_7
REMARK    3  A    between atoms: O_7  and  C_8
REMARK    4  A    between atoms: C_8  and  C_9
REMARK    5  A    between atoms: C_13  and  C_14
REMARK                            x       y       z     vdW  Elec       q    Type
REMARK                         _______ _______ _______ _____ _____    ______ ____
ROOT
ATOM      1  C   UNL     1      46.153   4.825  13.228  0.00  0.00    +0.000 A 
ATOM      2  C   UNL     1      45.071   4.349  12.504  0.00  0.00    +0.000 A 
ATOM      3  N   UNL     1      44.335   5.109  11.675  0.00  0.00    +0.000 NA
ATOM      4  C   UNL     1      44.699   6.408  11.560  0.00  0.00    +0.000 A 
ATOM      5  C   UNL     1      45.746   7.031  12.244  0.00  0.00    +0.000 A 
ATOM      6  C   UNL     1      46.484   6.181  13.086  0.00  0.00    +0.000 A 
ENDROOT
BRANCH   5   7
ATOM      7  C   UNL     1      46.099   8.467  12.057  0.00  0.00    +0.000 A 
ATOM      8  C   UNL     1      45.063   9.433  12.022  0.00  0.00    +0.000 A 
ATOM      9  C   UNL     1      45.316  10.800  11.869  0.00  0.00    +0.000 A 
ATOM     10  C   UNL     1      46.622  11.256  11.774  0.00  0.00    +0.000 A 
ATOM     11  C   UNL     1      47.668  10.341  11.802  0.00  0.00    +0.000 A 
ATOM     12  C   UNL     1      47.417   8.965  11.916  0.00  0.00    +0.000 A 
ATOM     13 CL   UNL     1      48.831   7.968  11.800  0.00  0.00    +0.000 Cl
ENDBRANCH   5   7
BRANCH   1  14
ATOM     14  C   UNL     1      47.002   3.902  14.057  0.00  0.00    +0.000 C 
BRANCH  14  15
ATOM     15  O   UNL     1      46.535   3.883  15.412  0.00  0.00    +0.000 OA
BRANCH  15  19
ATOM     16  C   UNL     1      49.543   4.388  18.164  0.00  0.00    +0.000 A 
ATOM     17  C   UNL     1      48.651   3.326  18.309  0.00  0.00    +0.000 A 
ATOM     18  C   UNL     1      47.638   3.150  17.365  0.00  0.00    +0.000 A 
ATOM     19  C   UNL     1      47.559   4.050  16.316  0.00  0.00    +0.000 A 
ATOM     20  N   UNL     1      48.419   5.078  16.147  0.00  0.00    +0.000 NA
ATOM     21  C   UNL     1      49.391   5.226  17.073  0.00  0.00    +0.000 A 
BRANCH  16  23
ATOM     22  N   UNL     1      51.423   4.829  19.883  0.00  0.00    +0.000 NA
ATOM     23  C   UNL     1      50.584   4.624  19.114  0.00  0.00    +0.000 C 
ENDBRANCH  16  23
ENDBRANCH  15  19
ENDBRANCH  14  15
ENDBRANCH   1  14
TORSDOF 5
ENDMDL
