MODEL 1
REMARK VINA RESULT:    -6.989      0.000      0.000
REMARK INTER + INTRA:         -12.580
REMARK INTER:                 -10.463
REMARK INTRA:                  -2.117
REMARK UNBOUND:                -2.117
REMARK  Name = 
REMARK  10 active torsions:
REMARK  status: ('A' for Active; 'I' for Inactive)
REMARK    1  A    between atoms: C_1  and  N_2
REMARK    2  A    between atoms: N_2  and  C_3
REMARK    3  A    between atoms: N_2  and  C_24
REMARK    4  A    between atoms: C_3  and  C_4
REMARK    5  A    between atoms: C_7  and  C_8
REMARK    6  A    between atoms: C_8  and  N_9
REMARK    7  A    between atoms: C_10  and  C_12
REMARK    8  A    between atoms: C_24  and  C_25
REMARK    9  A    between atoms: C_24  and  C_27
REMARK   10  A    between atoms: C_25  and  O_26
REMARK                            x       y       z     vdW  Elec       q    Type
REMARK                         _______ _______ _______ _____ _____    ______ ____
ROOT
ATOM      1  C   UNL     1      48.863   7.903  16.362  0.00  0.00    +0.000 A 
ATOM      2  C   UNL     1      48.150   8.965  15.783  0.00  0.00    +0.000 A 
ATOM      3  C   UNL     1      47.751   8.916  14.446  0.00  0.00    +0.000 A 
ATOM      4  C   UNL     1      48.083   7.813  13.649  0.00  0.00    +0.000 A 
ATOM      5  C   UNL     1      48.849   6.781  14.208  0.00  0.00    +0.000 A 
ATOM      6  C   UNL     1      49.222   6.817  15.555  0.00  0.00    +0.000 A 
ENDROOT
BRANCH   1   7
ATOM      7  C   UNL     1      49.194   7.907  17.845  0.00  0.00    +0.000 C 
BRANCH   7   9
ATOM      8  C   UNL     1      47.764   8.526  19.697  0.00  0.00    +0.000 C 
ATOM      9  N   UNL     1      48.069   7.464  18.717  0.00  0.00    +0.000 NA
BRANCH   9  10
ATOM     10  C   UNL     1      48.435   6.199  19.438  0.00  0.00    +0.000 C 
BRANCH  10  11
ATOM     11  C   UNL     1      48.404   4.952  18.547  0.00  0.00    +0.000 A 
ATOM     12  C   UNL     1      47.243   4.632  17.825  0.00  0.00    +0.000 A 
ATOM     13  C   UNL     1      47.235   3.563  16.925  0.00  0.00    +0.000 A 
ATOM     14  C   UNL     1      48.383   2.796  16.738  0.00  0.00    +0.000 A 
ATOM     15  C   UNL     1      49.531   3.077  17.474  0.00  0.00    +0.000 A 
ATOM     16  C   UNL     1      49.538   4.140  18.378  0.00  0.00    +0.000 A 
ENDBRANCH  10  11
BRANCH  10  17
ATOM     17  C   UNL     1      47.534   5.917  20.687  0.00  0.00    +0.000 C 
BRANCH  17  18
ATOM     18  O   UNL     1      47.896   4.718  21.378  0.00  0.00    +0.000 OA
ATOM     19  H   UNL     1      48.110   4.068  20.682  0.00  0.00    +0.000 HD
ENDBRANCH  17  18
ENDBRANCH  10  17
ENDBRANCH   9  10
ENDBRANCH   7   9
ENDBRANCH   1   7
BRANCH   4  20
ATOM     20  C   UNL     1      47.669   7.757  12.203  0.00  0.00    +0.000 C 
BRANCH  20  21
ATOM     21  N   UNL     1      46.959   6.534  11.926  0.00  0.00    +0.000 N 
ATOM     22  C   UNL     1      45.597   6.459  12.036  0.00  0.00    +0.000 C 
ATOM     23  O   UNL     1      44.911   7.432  12.341  0.00  0.00    +0.000 OA
ATOM     24  H   UNL     1      47.510   5.683  11.900  0.00  0.00    +0.000 HD
BRANCH  22  25
ATOM     25  C   UNL     1      44.987   5.161  11.717  0.00  0.00    +0.000 A 
ATOM     26  C   UNL     1      44.295   4.469  12.700  0.00  0.00    +0.000 A 
ATOM     27  S   UNL     1      43.607   3.009  12.151  0.00  0.00    +0.000 S 
ATOM     28  C   UNL     1      44.249   3.230  10.591  0.00  0.00    +0.000 A 
ATOM     29  N   UNL     1      44.047   2.303   9.617  0.00  0.00    +0.000 NA
ATOM     30  C   UNL     1      44.609   2.583   8.487  0.00  0.00    +0.000 A 
ATOM     31  N   UNL     1      45.354   3.706   8.246  0.00  0.00    +0.000 N 
ATOM     32  C   UNL     1      45.563   4.679   9.193  0.00  0.00    +0.000 A 
ATOM     33  O   UNL     1      46.208   5.693   8.929  0.00  0.00    +0.000 OA
ATOM     34  C   UNL     1      44.963   4.408  10.485  0.00  0.00    +0.000 A 
ATOM     35  H   UNL     1      45.760   3.875   7.337  0.00  0.00    +0.000 HD
ENDBRANCH  22  25
ENDBRANCH  20  21
ENDBRANCH   4  20
TORSDOF 9
ENDMDL
MODEL 2
REMARK VINA RESULT:    -6.879      3.912      8.628
REMARK INTER + INTRA:         -12.415
REMARK INTER:                 -10.776
REMARK INTRA:                  -1.638
REMARK UNBOUND:                -2.117
REMARK  Name = 
REMARK  10 active torsions:
REMARK  status: ('A' for Active; 'I' for Inactive)
REMARK    1  A    between atoms: C_1  and  N_2
REMARK    2  A    between atoms: N_2  and  C_3
REMARK    3  A    between atoms: N_2  and  C_24
REMARK    4  A    between atoms: C_3  and  C_4
REMARK    5  A    between atoms: C_7  and  C_8
REMARK    6  A    between atoms: C_8  and  N_9
REMARK    7  A    between atoms: C_10  and  C_12
REMARK    8  A    between atoms: C_24  and  C_25
REMARK    9  A    between atoms: C_24  and  C_27
REMARK   10  A    between atoms: C_25  and  O_26
REMARK                            x       y       z     vdW  Elec       q    Type
REMARK                         _______ _______ _______ _____ _____    ______ ____
ROOT
ATOM      1  C   UNL     1      45.931   6.460  12.702  0.00  0.00    +0.000 A 
ATOM      2  C   UNL     1      47.070   5.696  13.004  0.00  0.00    +0.000 A 
ATOM      3  C   UNL     1      48.346   6.260  12.946  0.00  0.00    +0.000 A 
ATOM      4  C   UNL     1      48.513   7.595  12.557  0.00  0.00    +0.000 A 
ATOM      5  C   UNL     1      47.382   8.340  12.195  0.00  0.00    +0.000 A 
ATOM      6  C   UNL     1      46.103   7.784  12.282  0.00  0.00    +0.000 A 
ENDROOT
BRANCH   1   7
ATOM      7  C   UNL     1      44.538   5.878  12.878  0.00  0.00    +0.000 C 
BRANCH   7   9
ATOM      8  C   UNL     1      42.464   5.414  11.721  0.00  0.00    +0.000 C 
ATOM      9  N   UNL     1      43.936   5.358  11.618  0.00  0.00    +0.000 NA
BRANCH   9  10
ATOM     10  C   UNL     1      44.374   3.942  11.376  0.00  0.00    +0.000 C 
BRANCH  10  11
ATOM     11  C   UNL     1      44.976   3.713   9.985  0.00  0.00    +0.000 A 
ATOM     12  C   UNL     1      45.484   4.798   9.251  0.00  0.00    +0.000 A 
ATOM     13  C   UNL     1      46.134   4.592   8.032  0.00  0.00    +0.000 A 
ATOM     14  C   UNL     1      46.280   3.303   7.525  0.00  0.00    +0.000 A 
ATOM     15  C   UNL     1      45.749   2.221   8.222  0.00  0.00    +0.000 A 
ATOM     16  C   UNL     1      45.094   2.425   9.437  0.00  0.00    +0.000 A 
ENDBRANCH  10  11
BRANCH  10  17
ATOM     17  C   UNL     1      43.226   2.897  11.579  0.00  0.00    +0.000 C 
BRANCH  17  18
ATOM     18  O   UNL     1      43.515   1.941  12.603  0.00  0.00    +0.000 OA
ATOM     19  H   UNL     1      42.666   1.776  13.055  0.00  0.00    +0.000 HD
ENDBRANCH  17  18
ENDBRANCH  10  17
ENDBRANCH   9  10
ENDBRANCH   7   9
ENDBRANCH   1   7
BRANCH   4  20
ATOM     20  C   UNL     1      49.886   8.208  12.480  0.00  0.00    +0.000 C 
BRANCH  20  21
ATOM     21  N   UNL     1      50.766   7.603  13.448  0.00  0.00    +0.000 N 
ATOM     22  C   UNL     1      51.340   8.339  14.449  0.00  0.00    +0.000 C 
ATOM     23  O   UNL     1      51.109   9.538  14.594  0.00  0.00    +0.000 OA
ATOM     24  H   UNL     1      51.143   6.691  13.214  0.00  0.00    +0.000 HD
BRANCH  22  25
ATOM     25  C   UNL     1      52.209   7.607  15.380  0.00  0.00    +0.000 A 
ATOM     26  C   UNL     1      53.566   7.893  15.419  0.00  0.00    +0.000 A 
ATOM     27  S   UNL     1      54.421   6.994  16.588  0.00  0.00    +0.000 S 
ATOM     28  C   UNL     1      53.012   6.158  17.052  0.00  0.00    +0.000 A 
ATOM     29  N   UNL     1      53.058   5.201  18.017  0.00  0.00    +0.000 NA
ATOM     30  C   UNL     1      51.924   4.629  18.255  0.00  0.00    +0.000 A 
ATOM     31  N   UNL     1      50.750   4.929  17.616  0.00  0.00    +0.000 N 
ATOM     32  C   UNL     1      50.655   5.905  16.653  0.00  0.00    +0.000 A 
ATOM     33  O   UNL     1      49.577   6.173  16.126  0.00  0.00    +0.000 OA
ATOM     34  C   UNL     1      51.904   6.571  16.339  0.00  0.00    +0.000 A 
ATOM     35  H   UNL     1      49.892   4.454  17.854  0.00  0.00    +0.000 HD
ENDBRANCH  22  25
ENDBRANCH  20  21
ENDBRANCH   4  20
TORSDOF 9
ENDMDL
MODEL 3
REMARK VINA RESULT:    -6.769      4.047      9.056
REMARK INTER + INTRA:         -12.250
REMARK INTER:                 -11.571
REMARK INTRA:                  -0.680
REMARK UNBOUND:                -2.117
REMARK  Name = 
REMARK  10 active torsions:
REMARK  status: ('A' for Active; 'I' for Inactive)
REMARK    1  A    between atoms: C_1  and  N_2
REMARK    2  A    between atoms: N_2  and  C_3
REMARK    3  A    between atoms: N_2  and  C_24
REMARK    4  A    between atoms: C_3  and  C_4
REMARK    5  A    between atoms: C_7  and  C_8
REMARK    6  A    between atoms: C_8  and  N_9
REMARK    7  A    between atoms: C_10  and  C_12
REMARK    8  A    between atoms: C_24  and  C_25
REMARK    9  A    between atoms: C_24  and  C_27
REMARK   10  A    between atoms: C_25  and  O_26
REMARK                            x       y       z     vdW  Elec       q    Type
REMARK                         _______ _______ _______ _____ _____    ______ ____
ROOT
ATOM      1  C   UNL     1      46.936   4.720  14.080  0.00  0.00    +0.000 A 
ATOM      2  C   UNL     1      47.674   5.902  13.903  0.00  0.00    +0.000 A 
ATOM      3  C   UNL     1      48.441   6.429  14.944  0.00  0.00    +0.000 A 
ATOM      4  C   UNL     1      48.463   5.802  16.196  0.00  0.00    +0.000 A 
ATOM      5  C   UNL     1      47.678   4.658  16.392  0.00  0.00    +0.000 A 
ATOM      6  C   UNL     1      46.935   4.112  15.341  0.00  0.00    +0.000 A 
ENDROOT
BRANCH   1   7
ATOM      7  C   UNL     1      46.197   4.084  12.914  0.00  0.00    +0.000 C 
BRANCH   7   9
ATOM      8  C   UNL     1      44.841   6.087  12.868  0.00  0.00    +0.000 C 
ATOM      9  N   UNL     1      45.500   5.064  12.033  0.00  0.00    +0.000 NA
BRANCH   9  10
ATOM     10  C   UNL     1      44.477   4.366  11.184  0.00  0.00    +0.000 C 
BRANCH  10  11
ATOM     11  C   UNL     1      45.042   3.814   9.870  0.00  0.00    +0.000 A 
ATOM     12  C   UNL     1      45.603   4.687   8.923  0.00  0.00    +0.000 A 
ATOM     13  C   UNL     1      46.219   4.190   7.772  0.00  0.00    +0.000 A 
ATOM     14  C   UNL     1      46.279   2.816   7.547  0.00  0.00    +0.000 A 
ATOM     15  C   UNL     1      45.695   1.940   8.457  0.00  0.00    +0.000 A 
ATOM     16  C   UNL     1      45.073   2.435   9.604  0.00  0.00    +0.000 A 
ENDBRANCH  10  11
BRANCH  10  17
ATOM     17  C   UNL     1      43.246   5.267  10.834  0.00  0.00    +0.000 C 
BRANCH  17  18
ATOM     18  O   UNL     1      42.100   4.985  11.642  0.00  0.00    +0.000 OA
ATOM     19  H   UNL     1      41.698   5.852  11.841  0.00  0.00    +0.000 HD
ENDBRANCH  17  18
ENDBRANCH  10  17
ENDBRANCH   9  10
ENDBRANCH   7   9
ENDBRANCH   1   7
BRANCH   4  20
ATOM     20  C   UNL     1      49.276   6.371  17.327  0.00  0.00    +0.000 C 
BRANCH  20  21
ATOM     21  N   UNL     1      50.258   5.417  17.776  0.00  0.00    +0.000 N 
ATOM     22  C   UNL     1      51.529   5.407  17.269  0.00  0.00    +0.000 C 
ATOM     23  O   UNL     1      51.906   6.228  16.435  0.00  0.00    +0.000 OA
ATOM     24  H   UNL     1      49.910   4.607  18.278  0.00  0.00    +0.000 HD
BRANCH  22  25
ATOM     25  C   UNL     1      52.442   4.393  17.814  0.00  0.00    +0.000 A 
ATOM     26  C   UNL     1      53.615   4.793  18.437  0.00  0.00    +0.000 A 
ATOM     27  S   UNL     1      54.533   3.498  19.060  0.00  0.00    +0.000 S 
ATOM     28  C   UNL     1      53.416   2.355  18.477  0.00  0.00    +0.000 A 
ATOM     29  N   UNL     1      53.624   1.023  18.656  0.00  0.00    +0.000 NA
ATOM     30  C   UNL     1      52.712   0.266  18.144  0.00  0.00    +0.000 A 
ATOM     31  N   UNL     1      51.609   0.721  17.470  0.00  0.00    +0.000 N 
ATOM     32  C   UNL     1      51.348   2.057  17.287  0.00  0.00    +0.000 A 
ATOM     33  O   UNL     1      50.328   2.430  16.708  0.00  0.00    +0.000 OA
ATOM     34  C   UNL     1      52.349   2.952  17.833  0.00  0.00    +0.000 A 
ATOM     35  H   UNL     1      50.924   0.079  17.101  0.00  0.00    +0.000 HD
ENDBRANCH  22  25
ENDBRANCH  20  21
ENDBRANCH   4  20
TORSDOF 9
ENDMDL
MODEL 4
REMARK VINA RESULT:    -6.749      3.007      7.854
REMARK INTER + INTRA:         -12.219
REMARK INTER:                 -11.088
REMARK INTRA:                  -1.131
REMARK UNBOUND:                -2.117
REMARK  Name = 
REMARK  10 active torsions:
REMARK  status: ('A' for Active; 'I' for Inactive)
REMARK    1  A    between atoms: C_1  and  N_2
REMARK    2  A    between atoms: N_2  and  C_3
REMARK    3  A    between atoms: N_2  and  C_24
REMARK    4  A    between atoms: C_3  and  C_4
REMARK    5  A    between atoms: C_7  and  C_8
REMARK    6  A    between atoms: C_8  and  N_9
REMARK    7  A    between atoms: C_10  and  C_12
REMARK    8  A    between atoms: C_24  and  C_25
REMARK    9  A    between atoms: C_24  and  C_27
REMARK   10  A    between atoms: C_25  and  O_26
REMARK                            x       y       z     vdW  Elec       q    Type
REMARK                         _______ _______ _______ _____ _____    ______ ____
ROOT
ATOM      1  C   UNL     1      45.097   7.275  11.491  0.00  0.00    +0.000 A 
ATOM      2  C   UNL     1      46.366   6.675  11.542  0.00  0.00    +0.000 A 
ATOM      3  C   UNL     1      47.330   7.117  12.450  0.00  0.00    +0.000 A 
ATOM      4  C   UNL     1      47.056   8.189  13.308  0.00  0.00    +0.000 A 
ATOM      5  C   UNL     1      45.812   8.829  13.214  0.00  0.00    +0.000 A 
ATOM      6  C   UNL     1      44.836   8.367  12.326  0.00  0.00    +0.000 A 
ENDROOT
BRANCH   1   7
ATOM      7  C   UNL     1      44.011   6.717  10.584  0.00  0.00    +0.000 C 
BRANCH   7   9
ATOM      8  C   UNL     1      42.807   5.390  12.210  0.00  0.00    +0.000 C 
ATOM      9  N   UNL     1      43.569   5.341  10.947  0.00  0.00    +0.000 NA
BRANCH   9  10
ATOM     10  C   UNL     1      44.757   4.436  11.106  0.00  0.00    +0.000 C 
BRANCH  10  11
ATOM     11  C   UNL     1      45.172   3.731   9.810  0.00  0.00    +0.000 A 
ATOM     12  C   UNL     1      45.722   4.472   8.751  0.00  0.00    +0.000 A 
ATOM     13  C   UNL     1      46.205   3.831   7.607  0.00  0.00    +0.000 A 
ATOM     14  C   UNL     1      46.142   2.444   7.503  0.00  0.00    +0.000 A 
ATOM     15  C   UNL     1      45.566   1.698   8.528  0.00  0.00    +0.000 A 
ATOM     16  C   UNL     1      45.077   2.337   9.667  0.00  0.00    +0.000 A 
ENDBRANCH  10  11
BRANCH  10  17
ATOM     17  C   UNL     1      44.555   3.339  12.205  0.00  0.00    +0.000 C 
BRANCH  17  18
ATOM     18  O   UNL     1      45.692   3.188  13.059  0.00  0.00    +0.000 OA
ATOM     19  H   UNL     1      46.252   2.510  12.634  0.00  0.00    +0.000 HD
ENDBRANCH  17  18
ENDBRANCH  10  17
ENDBRANCH   9  10
ENDBRANCH   7   9
ENDBRANCH   1   7
BRANCH   4  20
ATOM     20  C   UNL     1      48.094   8.681  14.280  0.00  0.00    +0.000 C 
BRANCH  20  21
ATOM     21  N   UNL     1      48.263   7.741  15.359  0.00  0.00    +0.000 N 
ATOM     22  C   UNL     1      49.398   6.985  15.477  0.00  0.00    +0.000 C 
ATOM     23  O   UNL     1      50.340   7.094  14.695  0.00  0.00    +0.000 OA
ATOM     24  H   UNL     1      47.426   7.475  15.867  0.00  0.00    +0.000 HD
BRANCH  22  25
ATOM     25  C   UNL     1      49.457   6.071  16.626  0.00  0.00    +0.000 A 
ATOM     26  C   UNL     1      50.413   6.270  17.611  0.00  0.00    +0.000 A 
ATOM     27  S   UNL     1      50.312   5.155  18.897  0.00  0.00    +0.000 S 
ATOM     28  C   UNL     1      49.013   4.340  18.158  0.00  0.00    +0.000 A 
ATOM     29  N   UNL     1      48.456   3.245  18.742  0.00  0.00    +0.000 NA
ATOM     30  C   UNL     1      47.496   2.709  18.064  0.00  0.00    +0.000 A 
ATOM     31  N   UNL     1      47.042   3.170  16.857  0.00  0.00    +0.000 N 
ATOM     32  C   UNL     1      47.560   4.285  16.244  0.00  0.00    +0.000 A 
ATOM     33  O   UNL     1      47.103   4.692  15.177  0.00  0.00    +0.000 OA
ATOM     34  C   UNL     1      48.651   4.919  16.958  0.00  0.00    +0.000 A 
ATOM     35  H   UNL     1      46.279   2.714  16.380  0.00  0.00    +0.000 HD
ENDBRANCH  22  25
ENDBRANCH  20  21
ENDBRANCH   4  20
TORSDOF 9
ENDMDL
MODEL 5
REMARK VINA RESULT:    -6.680      5.143      8.360
REMARK INTER + INTRA:         -12.116
REMARK INTER:                 -10.773
REMARK INTRA:                  -1.343
REMARK UNBOUND:                -2.117
REMARK  Name = 
REMARK  10 active torsions:
REMARK  status: ('A' for Active; 'I' for Inactive)
REMARK    1  A    between atoms: C_1  and  N_2
REMARK    2  A    between atoms: N_2  and  C_3
REMARK    3  A    between atoms: N_2  and  C_24
REMARK    4  A    between atoms: C_3  and  C_4
REMARK    5  A    between atoms: C_7  and  C_8
REMARK    6  A    between atoms: C_8  and  N_9
REMARK    7  A    between atoms: C_10  and  C_12
REMARK    8  A    between atoms: C_24  and  C_25
REMARK    9  A    between atoms: C_24  and  C_27
REMARK   10  A    between atoms: C_25  and  O_26
REMARK                            x       y       z     vdW  Elec       q    Type
REMARK                         _______ _______ _______ _____ _____    ______ ____
ROOT
ATOM      1  C   UNL     1      46.610   6.252  12.783  0.00  0.00    +0.000 A 
ATOM      2  C   UNL     1      46.930   6.896  11.577  0.00  0.00    +0.000 A 
ATOM      3  C   UNL     1      48.199   7.440  11.370  0.00  0.00    +0.000 A 
ATOM      4  C   UNL     1      49.169   7.376  12.379  0.00  0.00    +0.000 A 
ATOM      5  C   UNL     1      48.831   6.789  13.605  0.00  0.00    +0.000 A 
ATOM      6  C   UNL     1      47.570   6.218  13.801  0.00  0.00    +0.000 A 
ENDROOT
BRANCH   1   7
ATOM      7  C   UNL     1      45.269   5.559  12.960  0.00  0.00    +0.000 C 
BRANCH   7   9
ATOM      8  C   UNL     1      43.150   5.695  11.800  0.00  0.00    +0.000 C 
ATOM      9  N   UNL     1      44.560   5.275  11.680  0.00  0.00    +0.000 NA
BRANCH   9  10
ATOM     10  C   UNL     1      44.628   3.810  11.360  0.00  0.00    +0.000 C 
BRANCH  10  11
ATOM     11  C   UNL     1      45.118   3.512   9.938  0.00  0.00    +0.000 A 
ATOM     12  C   UNL     1      45.497   4.566   9.091  0.00  0.00    +0.000 A 
ATOM     13  C   UNL     1      46.048   4.305   7.833  0.00  0.00    +0.000 A 
ATOM     14  C   UNL     1      46.222   2.992   7.403  0.00  0.00    +0.000 A 
ATOM     15  C   UNL     1      45.817   1.937   8.217  0.00  0.00    +0.000 A 
ATOM     16  C   UNL     1      45.260   2.195   9.470  0.00  0.00    +0.000 A 
ENDBRANCH  10  11
BRANCH  10  17
ATOM     17  C   UNL     1      43.263   3.069  11.562  0.00  0.00    +0.000 C 
BRANCH  17  18
ATOM     18  O   UNL     1      43.354   1.964  12.465  0.00  0.00    +0.000 OA
ATOM     19  H   UNL     1      43.560   1.188  11.911  0.00  0.00    +0.000 HD
ENDBRANCH  17  18
ENDBRANCH  10  17
ENDBRANCH   9  10
ENDBRANCH   7   9
ENDBRANCH   1   7
BRANCH   4  20
ATOM     20  C   UNL     1      50.536   7.972  12.170  0.00  0.00    +0.000 C 
BRANCH  20  21
ATOM     21  N   UNL     1      51.120   7.483  10.947  0.00  0.00    +0.000 N 
ATOM     22  C   UNL     1      52.457   7.620  10.688  0.00  0.00    +0.000 C 
ATOM     23  O   UNL     1      53.229   8.133  11.496  0.00  0.00    +0.000 OA
ATOM     24  H   UNL     1      50.480   7.272  10.188  0.00  0.00    +0.000 HD
BRANCH  22  25
ATOM     25  C   UNL     1      52.935   7.071   9.413  0.00  0.00    +0.000 A 
ATOM     26  C   UNL     1      53.312   5.738   9.340  0.00  0.00    +0.000 A 
ATOM     27  S   UNL     1      53.791   5.248   7.778  0.00  0.00    +0.000 S 
ATOM     28  C   UNL     1      53.555   6.814   7.156  0.00  0.00    +0.000 A 
ATOM     29  N   UNL     1      53.815   7.091   5.850  0.00  0.00    +0.000 NA
ATOM     30  C   UNL     1      53.616   8.323   5.516  0.00  0.00    +0.000 A 
ATOM     31  N   UNL     1      53.179   9.301   6.369  0.00  0.00    +0.000 N 
ATOM     32  C   UNL     1      52.882   9.060   7.688  0.00  0.00    +0.000 A 
ATOM     33  O   UNL     1      52.457   9.956   8.416  0.00  0.00    +0.000 OA
ATOM     34  C   UNL     1      53.100   7.693   8.120  0.00  0.00    +0.000 A 
ATOM     35  H   UNL     1      53.032  10.245   6.045  0.00  0.00    +0.000 HD
ENDBRANCH  22  25
ENDBRANCH  20  21
ENDBRANCH   4  20
TORSDOF 9
ENDMDL
MODEL 6
REMARK VINA RESULT:    -6.499      3.575      8.940
REMARK INTER + INTRA:         -11.846
REMARK INTER:                 -11.277
REMARK INTRA:                  -0.569
REMARK UNBOUND:                -2.117
REMARK  Name = 
REMARK  10 active torsions:
REMARK  status: ('A' for Active; 'I' for Inactive)
REMARK    1  A    between atoms: C_1  and  N_2
REMARK    2  A    between atoms: N_2  and  C_3
REMARK    3  A    between atoms: N_2  and  C_24
REMARK    4  A    between atoms: C_3  and  C_4
REMARK    5  A    between atoms: C_7  and  C_8
REMARK    6  A    between atoms: C_8  and  N_9
REMARK    7  A    between atoms: C_10  and  C_12
REMARK    8  A    between atoms: C_24  and  C_25
REMARK    9  A    between atoms: C_24  and  C_27
REMARK   10  A    between atoms: C_25  and  O_26
REMARK                            x       y       z     vdW  Elec       q    Type
REMARK                         _______ _______ _______ _____ _____    ______ ____
ROOT
ATOM      1  C   UNL     1      47.244   5.618  13.340  0.00  0.00    +0.000 A 
ATOM      2  C   UNL     1      47.708   6.206  14.528  0.00  0.00    +0.000 A 
ATOM      3  C   UNL     1      47.816   5.457  15.702  0.00  0.00    +0.000 A 
ATOM      4  C   UNL     1      47.436   4.109  15.719  0.00  0.00    +0.000 A 
ATOM      5  C   UNL     1      46.914   3.539  14.551  0.00  0.00    +0.000 A 
ATOM      6  C   UNL     1      46.834   4.280  13.368  0.00  0.00    +0.000 A 
ENDROOT
BRANCH   1   7
ATOM      7  C   UNL     1      47.237   6.403  12.038  0.00  0.00    +0.000 C 
BRANCH   7   9
ATOM      8  C   UNL     1      45.309   7.830  12.352  0.00  0.00    +0.000 C 
ATOM      9  N   UNL     1      45.873   6.735  11.539  0.00  0.00    +0.000 NA
BRANCH   9  10
ATOM     10  C   UNL     1      44.980   5.531  11.621  0.00  0.00    +0.000 C 
BRANCH  10  11
ATOM     11  C   UNL     1      45.046   4.629  10.383  0.00  0.00    +0.000 A 
ATOM     12  C   UNL     1      45.659   5.093   9.207  0.00  0.00    +0.000 A 
ATOM     13  C   UNL     1      45.824   4.247   8.108  0.00  0.00    +0.000 A 
ATOM     14  C   UNL     1      45.375   2.929   8.165  0.00  0.00    +0.000 A 
ATOM     15  C   UNL     1      44.732   2.465   9.309  0.00  0.00    +0.000 A 
ATOM     16  C   UNL     1      44.560   3.311  10.405  0.00  0.00    +0.000 A 
ENDBRANCH  10  11
BRANCH  10  17
ATOM     17  C   UNL     1      43.477   5.891  11.872  0.00  0.00    +0.000 C 
BRANCH  17  18
ATOM     18  O   UNL     1      42.775   6.226  10.671  0.00  0.00    +0.000 OA
ATOM     19  H   UNL     1      42.019   5.611  10.628  0.00  0.00    +0.000 HD
ENDBRANCH  17  18
ENDBRANCH  10  17
ENDBRANCH   9  10
ENDBRANCH   7   9
ENDBRANCH   1   7
BRANCH   4  20
ATOM     20  C   UNL     1      47.537   3.298  16.984  0.00  0.00    +0.000 C 
BRANCH  20  21
ATOM     21  N   UNL     1      48.909   3.195  17.411  0.00  0.00    +0.000 N 
ATOM     22  C   UNL     1      49.763   2.280  16.858  0.00  0.00    +0.000 C 
ATOM     23  O   UNL     1      49.416   1.528  15.950  0.00  0.00    +0.000 OA
ATOM     24  H   UNL     1      49.145   3.634  18.295  0.00  0.00    +0.000 HD
BRANCH  22  25
ATOM     25  C   UNL     1      51.140   2.280  17.370  0.00  0.00    +0.000 A 
ATOM     26  C   UNL     1      51.791   1.074  17.585  0.00  0.00    +0.000 A 
ATOM     27  S   UNL     1      53.397   1.251  18.129  0.00  0.00    +0.000 S 
ATOM     28  C   UNL     1      53.262   2.948  18.141  0.00  0.00    +0.000 A 
ATOM     29  N   UNL     1      54.303   3.726  18.541  0.00  0.00    +0.000 NA
ATOM     30  C   UNL     1      54.058   4.995  18.525  0.00  0.00    +0.000 A 
ATOM     31  N   UNL     1      52.868   5.554  18.142  0.00  0.00    +0.000 N 
ATOM     32  C   UNL     1      51.800   4.807  17.708  0.00  0.00    +0.000 A 
ATOM     33  O   UNL     1      50.758   5.346  17.336  0.00  0.00    +0.000 OA
ATOM     34  C   UNL     1      52.017   3.373  17.719  0.00  0.00    +0.000 A 
ATOM     35  H   UNL     1      52.741   6.555  18.140  0.00  0.00    +0.000 HD
ENDBRANCH  22  25
ENDBRANCH  20  21
ENDBRANCH   4  20
TORSDOF 9
ENDMDL
MODEL 7
REMARK VINA RESULT:    -6.459      5.384      8.591
REMARK INTER + INTRA:         -11.786
REMARK INTER:                 -10.267
REMARK INTRA:                  -1.519
REMARK UNBOUND:                -2.117
REMARK  Name = 
REMARK  10 active torsions:
REMARK  status: ('A' for Active; 'I' for Inactive)
REMARK    1  A    between atoms: C_1  and  N_2
REMARK    2  A    between atoms: N_2  and  C_3
REMARK    3  A    between atoms: N_2  and  C_24
REMARK    4  A    between atoms: C_3  and  C_4
REMARK    5  A    between atoms: C_7  and  C_8
REMARK    6  A    between atoms: C_8  and  N_9
REMARK    7  A    between atoms: C_10  and  C_12
REMARK    8  A    between atoms: C_24  and  C_25
REMARK    9  A    between atoms: C_24  and  C_27
REMARK   10  A    between atoms: C_25  and  O_26
REMARK                            x       y       z     vdW  Elec       q    Type
REMARK                         _______ _______ _______ _____ _____    ______ ____
ROOT
ATOM      1  C   UNL     1      45.729   7.000  12.577  0.00  0.00    +0.000 A 
ATOM      2  C   UNL     1      45.485   8.381  12.646  0.00  0.00    +0.000 A 
ATOM      3  C   UNL     1      46.471   9.301  12.285  0.00  0.00    +0.000 A 
ATOM      4  C   UNL     1      47.735   8.859  11.874  0.00  0.00    +0.000 A 
ATOM      5  C   UNL     1      48.000   7.483  11.864  0.00  0.00    +0.000 A 
ATOM      6  C   UNL     1      47.003   6.561  12.197  0.00  0.00    +0.000 A 
ENDROOT
BRANCH   1   7
ATOM      7  C   UNL     1      44.618   6.001  12.858  0.00  0.00    +0.000 C 
BRANCH   7   9
ATOM      8  C   UNL     1      42.515   5.498  11.773  0.00  0.00    +0.000 C 
ATOM      9  N   UNL     1      43.983   5.442  11.631  0.00  0.00    +0.000 NA
BRANCH   9  10
ATOM     10  C   UNL     1      44.417   4.020  11.420  0.00  0.00    +0.000 C 
BRANCH  10  11
ATOM     11  C   UNL     1      45.083   3.775  10.061  0.00  0.00    +0.000 A 
ATOM     12  C   UNL     1      45.125   2.478   9.522  0.00  0.00    +0.000 A 
ATOM     13  C   UNL     1      45.630   2.256   8.239  0.00  0.00    +0.000 A 
ATOM     14  C   UNL     1      46.105   3.322   7.478  0.00  0.00    +0.000 A 
ATOM     15  C   UNL     1      46.104   4.608   8.013  0.00  0.00    +0.000 A 
ATOM     16  C   UNL     1      45.607   4.831   9.297  0.00  0.00    +0.000 A 
ENDBRANCH  10  11
BRANCH  10  17
ATOM     17  C   UNL     1      43.250   2.987  11.575  0.00  0.00    +0.000 C 
BRANCH  17  18
ATOM     18  O   UNL     1      43.487   2.027  12.607  0.00  0.00    +0.000 OA
ATOM     19  H   UNL     1      44.448   1.858  12.594  0.00  0.00    +0.000 HD
ENDBRANCH  17  18
ENDBRANCH  10  17
ENDBRANCH   9  10
ENDBRANCH   7   9
ENDBRANCH   1   7
BRANCH   4  20
ATOM     20  C   UNL     1      48.809   9.844  11.495  0.00  0.00    +0.000 C 
BRANCH  20  21
ATOM     21  N   UNL     1      50.094   9.194  11.434  0.00  0.00    +0.000 N 
ATOM     22  C   UNL     1      51.181   9.812  10.878  0.00  0.00    +0.000 C 
ATOM     23  O   UNL     1      51.126  10.958  10.438  0.00  0.00    +0.000 OA
ATOM     24  H   UNL     1      50.104   8.190  11.576  0.00  0.00    +0.000 HD
BRANCH  22  25
ATOM     25  C   UNL     1      52.438   9.052  10.885  0.00  0.00    +0.000 A 
ATOM     26  C   UNL     1      53.140   8.880   9.701  0.00  0.00    +0.000 A 
ATOM     27  S   UNL     1      54.601   8.021   9.892  0.00  0.00    +0.000 S 
ATOM     28  C   UNL     1      54.320   7.808  11.557  0.00  0.00    +0.000 A 
ATOM     29  N   UNL     1      55.201   7.116  12.328  0.00  0.00    +0.000 NA
ATOM     30  C   UNL     1      54.855   7.010  13.569  0.00  0.00    +0.000 A 
ATOM     31  N   UNL     1      53.710   7.534  14.106  0.00  0.00    +0.000 N 
ATOM     32  C   UNL     1      52.806   8.260  13.369  0.00  0.00    +0.000 A 
ATOM     33  O   UNL     1      51.806   8.747  13.893  0.00  0.00    +0.000 OA
ATOM     34  C   UNL     1      53.140   8.399  11.965  0.00  0.00    +0.000 A 
ATOM     35  H   UNL     1      53.500   7.427  15.087  0.00  0.00    +0.000 HD
ENDBRANCH  22  25
ENDBRANCH  20  21
ENDBRANCH   4  20
TORSDOF 9
ENDMDL
MODEL 8
REMARK VINA RESULT:    -6.313      5.040      8.235
REMARK INTER + INTRA:         -11.567
REMARK INTER:                 -10.190
REMARK INTRA:                  -1.378
REMARK UNBOUND:                -2.117
REMARK  Name = 
REMARK  10 active torsions:
REMARK  status: ('A' for Active; 'I' for Inactive)
REMARK    1  A    between atoms: C_1  and  N_2
REMARK    2  A    between atoms: N_2  and  C_3
REMARK    3  A    between atoms: N_2  and  C_24
REMARK    4  A    between atoms: C_3  and  C_4
REMARK    5  A    between atoms: C_7  and  C_8
REMARK    6  A    between atoms: C_8  and  N_9
REMARK    7  A    between atoms: C_10  and  C_12
REMARK    8  A    between atoms: C_24  and  C_25
REMARK    9  A    between atoms: C_24  and  C_27
REMARK   10  A    between atoms: C_25  and  O_26
REMARK                            x       y       z     vdW  Elec       q    Type
REMARK                         _______ _______ _______ _____ _____    ______ ____
ROOT
ATOM      1  C   UNL     1      45.676   6.839  12.808  0.00  0.00    +0.000 A 
ATOM      2  C   UNL     1      45.103   8.023  12.317  0.00  0.00    +0.000 A 
ATOM      3  C   UNL     1      45.857   9.195  12.217  0.00  0.00    +0.000 A 
ATOM      4  C   UNL     1      47.194   9.214  12.632  0.00  0.00    +0.000 A 
ATOM      5  C   UNL     1      47.749   8.050  13.180  0.00  0.00    +0.000 A 
ATOM      6  C   UNL     1      47.003   6.869  13.253  0.00  0.00    +0.000 A 
ENDROOT
BRANCH   1   7
ATOM      7  C   UNL     1      44.890   5.538  12.807  0.00  0.00    +0.000 C 
BRANCH   7   9
ATOM      8  C   UNL     1      42.884   5.418  11.459  0.00  0.00    +0.000 C 
ATOM      9  N   UNL     1      44.338   5.166  11.473  0.00  0.00    +0.000 NA
BRANCH   9  10
ATOM     10  C   UNL     1      44.604   3.716  11.185  0.00  0.00    +0.000 C 
BRANCH  10  11
ATOM     11  C   UNL     1      45.157   3.460   9.778  0.00  0.00    +0.000 A 
ATOM     12  C   UNL     1      45.567   4.538   8.977  0.00  0.00    +0.000 A 
ATOM     13  C   UNL     1      46.173   4.315   7.738  0.00  0.00    +0.000 A 
ATOM     14  C   UNL     1      46.373   3.015   7.279  0.00  0.00    +0.000 A 
ATOM     15  C   UNL     1      45.938   1.936   8.045  0.00  0.00    +0.000 A 
ATOM     16  C   UNL     1      45.327   2.158   9.280  0.00  0.00    +0.000 A 
ENDBRANCH  10  11
BRANCH  10  17
ATOM     17  C   UNL     1      43.345   2.806  11.378  0.00  0.00    +0.000 C 
BRANCH  17  18
ATOM     18  O   UNL     1      43.442   1.955  12.524  0.00  0.00    +0.000 OA
ATOM     19  H   UNL     1      43.190   1.065  12.213  0.00  0.00    +0.000 HD
ENDBRANCH  17  18
ENDBRANCH  10  17
ENDBRANCH   9  10
ENDBRANCH   7   9
ENDBRANCH   1   7
BRANCH   4  20
ATOM     20  C   UNL     1      48.010  10.476  12.540  0.00  0.00    +0.000 C 
BRANCH  20  21
ATOM     21  N   UNL     1      49.364  10.176  12.149  0.00  0.00    +0.000 N 
ATOM     22  C   UNL     1      49.897  10.662  10.986  0.00  0.00    +0.000 C 
ATOM     23  O   UNL     1      49.263  11.403  10.237  0.00  0.00    +0.000 OA
ATOM     24  H   UNL     1      49.814   9.400  12.623  0.00  0.00    +0.000 HD
BRANCH  22  25
ATOM     25  C   UNL     1      51.291  10.296  10.704  0.00  0.00    +0.000 A 
ATOM     26  C   UNL     1      52.223  11.292  10.455  0.00  0.00    +0.000 A 
ATOM     27  S   UNL     1      53.802  10.702  10.198  0.00  0.00    +0.000 S 
ATOM     28  C   UNL     1      53.284   9.090  10.367  0.00  0.00    +0.000 A 
ATOM     29  N   UNL     1      54.162   8.060  10.232  0.00  0.00    +0.000 NA
ATOM     30  C   UNL     1      53.632   6.888  10.360  0.00  0.00    +0.000 A 
ATOM     31  N   UNL     1      52.307   6.655  10.612  0.00  0.00    +0.000 N 
ATOM     32  C   UNL     1      51.392   7.666  10.778  0.00  0.00    +0.000 A 
ATOM     33  O   UNL     1      50.215   7.420  11.040  0.00  0.00    +0.000 OA
ATOM     34  C   UNL     1      51.932   9.004  10.632  0.00  0.00    +0.000 A 
ATOM     35  H   UNL     1      51.954   5.715  10.713  0.00  0.00    +0.000 HD
ENDBRANCH  22  25
ENDBRANCH  20  21
ENDBRANCH   4  20
TORSDOF 9
ENDMDL
MODEL 9
REMARK VINA RESULT:    -6.156      3.169      9.255
REMARK INTER + INTRA:         -11.333
REMARK INTER:                 -10.752
REMARK INTRA:                  -0.581
REMARK UNBOUND:                -2.117
REMARK  Name = 
REMARK  10 active torsions:
REMARK  status: ('A' for Active; 'I' for Inactive)
REMARK    1  A    between atoms: C_1  and  N_2
REMARK    2  A    between atoms: N_2  and  C_3
REMARK    3  A    between atoms: N_2  and  C_24
REMARK    4  A    between atoms: C_3  and  C_4
REMARK    5  A    between atoms: C_7  and  C_8
REMARK    6  A    between atoms: C_8  and  N_9
REMARK    7  A    between atoms: C_10  and  C_12
REMARK    8  A    between atoms: C_24  and  C_25
REMARK    9  A    between atoms: C_24  and  C_27
REMARK   10  A    between atoms: C_25  and  O_26
REMARK                            x       y       z     vdW  Elec       q    Type
REMARK                         _______ _______ _______ _____ _____    ______ ____
ROOT
ATOM      1  C   UNL     1      45.918   5.120  12.706  0.00  0.00    +0.000 A 
ATOM      2  C   UNL     1      46.408   6.283  12.089  0.00  0.00    +0.000 A 
ATOM      3  C   UNL     1      47.496   6.974  12.626  0.00  0.00    +0.000 A 
ATOM      4  C   UNL     1      48.100   6.532  13.810  0.00  0.00    +0.000 A 
ATOM      5  C   UNL     1      47.572   5.409  14.460  0.00  0.00    +0.000 A 
ATOM      6  C   UNL     1      46.503   4.699  13.906  0.00  0.00    +0.000 A 
ENDROOT
BRANCH   1   7
ATOM      7  C   UNL     1      44.811   4.305  12.057  0.00  0.00    +0.000 C 
BRANCH   7   9
ATOM      8  C   UNL     1      43.692   4.793   9.968  0.00  0.00    +0.000 C 
ATOM      9  N   UNL     1      44.911   4.222  10.572  0.00  0.00    +0.000 NA
BRANCH   9  10
ATOM     10  C   UNL     1      45.071   2.793  10.139  0.00  0.00    +0.000 C 
BRANCH  10  11
ATOM     11  C   UNL     1      45.729   2.637   8.763  0.00  0.00    +0.000 A 
ATOM     12  C   UNL     1      45.940   3.765   7.952  0.00  0.00    +0.000 A 
ATOM     13  C   UNL     1      46.636   3.655   6.746  0.00  0.00    +0.000 A 
ATOM     14  C   UNL     1      47.126   2.419   6.330  0.00  0.00    +0.000 A 
ATOM     15  C   UNL     1      46.893   1.285   7.105  0.00  0.00    +0.000 A 
ATOM     16  C   UNL     1      46.192   1.392   8.306  0.00  0.00    +0.000 A 
ENDBRANCH  10  11
BRANCH  10  17
ATOM     17  C   UNL     1      43.721   2.000  10.117  0.00  0.00    +0.000 C 
BRANCH  17  18
ATOM     18  O   UNL     1      43.261   1.644  11.423  0.00  0.00    +0.000 OA
ATOM     19  H   UNL     1      42.705   0.852  11.299  0.00  0.00    +0.000 HD
ENDBRANCH  17  18
ENDBRANCH  10  17
ENDBRANCH   9  10
ENDBRANCH   7   9
ENDBRANCH   1   7
BRANCH   4  20
ATOM     20  C   UNL     1      49.264   7.279  14.404  0.00  0.00    +0.000 C 
BRANCH  20  21
ATOM     21  N   UNL     1      49.141   7.353  15.838  0.00  0.00    +0.000 N 
ATOM     22  C   UNL     1      50.024   6.714  16.665  0.00  0.00    +0.000 C 
ATOM     23  O   UNL     1      50.982   6.077  16.230  0.00  0.00    +0.000 OA
ATOM     24  H   UNL     1      48.250   7.671  16.203  0.00  0.00    +0.000 HD
BRANCH  22  25
ATOM     25  C   UNL     1      49.800   6.874  18.107  0.00  0.00    +0.000 A 
ATOM     26  C   UNL     1      50.074   8.092  18.712  0.00  0.00    +0.000 A 
ATOM     27  S   UNL     1      49.710   8.126  20.377  0.00  0.00    +0.000 S 
ATOM     28  C   UNL     1      49.218   6.497  20.357  0.00  0.00    +0.000 A 
ATOM     29  N   UNL     1      48.801   5.881  21.496  0.00  0.00    +0.000 NA
ATOM     30  C   UNL     1      48.478   4.639  21.344  0.00  0.00    +0.000 A 
ATOM     31  N   UNL     1      48.535   3.959  20.157  0.00  0.00    +0.000 N 
ATOM     32  C   UNL     1      48.927   4.548  18.980  0.00  0.00    +0.000 A 
ATOM     33  O   UNL     1      48.930   3.915  17.924  0.00  0.00    +0.000 OA
ATOM     34  C   UNL     1      49.312   5.941  19.096  0.00  0.00    +0.000 A 
ATOM     35  H   UNL     1      48.259   2.990  20.100  0.00  0.00    +0.000 HD
ENDBRANCH  22  25
ENDBRANCH  20  21
ENDBRANCH   4  20
TORSDOF 9
ENDMDL
