MODEL 1
REMARK VINA RESULT:    -8.516      0.000      0.000
REMARK INTER + INTRA:         -12.555
REMARK INTER:                 -11.503
REMARK INTRA:                  -1.052
REMARK UNBOUND:                -1.052
REMARK  Name = 
REMARK  7 active torsions:
REMARK  status: ('A' for Active; 'I' for Inactive)
REMARK    1  A    between atoms: C_1  and  N_2
REMARK    2  A    between atoms: N_2  and  C_3
REMARK    3  A    between atoms: C_3  and  C_4
REMARK    4  A    between atoms: C_7  and  C_8
REMARK    5  A    between atoms: C_8  and  N_9
REMARK    6  A    between atoms: C_10  and  C_12
REMARK    7  A    between atoms: C_24  and  C_26
REMARK                            x       y       z     vdW  Elec       q    Type
REMARK                         _______ _______ _______ _____ _____    ______ ____
ROOT
ATOM      1  C   UNL     1      46.401   4.309  13.455  0.00  0.00    +0.000 A 
ATOM      2  C   UNL     1      47.005   5.488  12.985  0.00  0.00    +0.000 A 
ATOM      3  C   UNL     1      47.834   6.244  13.816  0.00  0.00    +0.000 A 
ATOM      4  C   UNL     1      48.084   5.828  15.130  0.00  0.00    +0.000 A 
ATOM      5  C   UNL     1      47.456   4.669  15.606  0.00  0.00    +0.000 A 
ATOM      6  C   UNL     1      46.630   3.910  14.774  0.00  0.00    +0.000 A 
ENDROOT
BRANCH   1   7
ATOM      7  C   UNL     1      45.483   3.520  12.556  0.00  0.00    +0.000 C 
BRANCH   7   9
ATOM      8  C   UNL     1      43.411   4.920  12.938  0.00  0.00    +0.000 C 
ATOM      9  N   UNL     1      44.274   4.169  12.035  0.00  0.00    +0.000 N 
ATOM     10  C   UNL     1      44.043   4.385  10.661  0.00  0.00    +0.000 C 
ATOM     11  O   UNL     1      43.181   5.175  10.269  0.00  0.00    +0.000 OA
BRANCH  10  12
ATOM     12  C   UNL     1      44.851   3.698   9.605  0.00  0.00    +0.000 A 
ATOM     13  C   UNL     1      44.883   2.309   9.436  0.00  0.00    +0.000 A 
ATOM     14  C   UNL     1      45.687   1.725   8.454  0.00  0.00    +0.000 A 
ATOM     15  C   UNL     1      46.398   2.528   7.568  0.00  0.00    +0.000 A 
ATOM     16  C   UNL     1      46.305   3.915   7.662  0.00  0.00    +0.000 A 
ATOM     17  C   UNL     1      45.543   4.497   8.682  0.00  0.00    +0.000 A 
ENDBRANCH  10  12
ENDBRANCH   7   9
ENDBRANCH   1   7
BRANCH   4  18
ATOM     18  C   UNL     1      48.995   6.621  16.024  0.00  0.00    +0.000 C 
BRANCH  18  19
ATOM     19  N   UNL     1      50.093   5.824  16.507  0.00  0.00    +0.000 N 
ATOM     20  C   UNL     1      50.142   5.429  17.817  0.00  0.00    +0.000 C 
ATOM     21  O   UNL     1      49.246   5.699  18.613  0.00  0.00    +0.000 OA
ATOM     22  H   UNL     1      50.934   5.791  15.938  0.00  0.00    +0.000 HD
BRANCH  20  23
ATOM     23  C   UNL     1      51.294   4.610  18.220  0.00  0.00    +0.000 A 
ATOM     24  C   UNL     1      52.323   5.189  18.951  0.00  0.00    +0.000 A 
ATOM     25  S   UNL     1      53.557   4.093  19.382  0.00  0.00    +0.000 S 
ATOM     26  C   UNL     1      52.785   2.817  18.560  0.00  0.00    +0.000 A 
ATOM     27  N   UNL     1      53.341   1.579  18.512  0.00  0.00    +0.000 NA
ATOM     28  C   UNL     1      52.671   0.718  17.826  0.00  0.00    +0.000 A 
ATOM     29  N   UNL     1      51.485   0.979  17.186  0.00  0.00    +0.000 N 
ATOM     30  C   UNL     1      50.872   2.204  17.236  0.00  0.00    +0.000 A 
ATOM     31  O   UNL     1      49.785   2.396  16.695  0.00  0.00    +0.000 OA
ATOM     32  C   UNL     1      51.593   3.217  17.982  0.00  0.00    +0.000 A 
ATOM     33  H   UNL     1      51.006   0.258  16.668  0.00  0.00    +0.000 HD
ENDBRANCH  20  23
ENDBRANCH  18  19
ENDBRANCH   4  18
TORSDOF 6
ENDMDL
MODEL 2
REMARK VINA RESULT:    -7.969      2.725      3.492
REMARK INTER + INTRA:         -11.817
REMARK INTER:                 -11.175
REMARK INTRA:                  -0.642
REMARK UNBOUND:                -1.052
REMARK  Name = 
REMARK  7 active torsions:
REMARK  status: ('A' for Active; 'I' for Inactive)
REMARK    1  A    between atoms: C_1  and  N_2
REMARK    2  A    between atoms: N_2  and  C_3
REMARK    3  A    between atoms: C_3  and  C_4
REMARK    4  A    between atoms: C_7  and  C_8
REMARK    5  A    between atoms: C_8  and  N_9
REMARK    6  A    between atoms: C_10  and  C_12
REMARK    7  A    between atoms: C_24  and  C_26
REMARK                            x       y       z     vdW  Elec       q    Type
REMARK                         _______ _______ _______ _____ _____    ______ ____
ROOT
ATOM      1  C   UNL     1      45.449   6.184  11.030  0.00  0.00    +0.000 A 
ATOM      2  C   UNL     1      46.716   5.853  11.540  0.00  0.00    +0.000 A 
ATOM      3  C   UNL     1      47.358   6.691  12.454  0.00  0.00    +0.000 A 
ATOM      4  C   UNL     1      46.738   7.871  12.884  0.00  0.00    +0.000 A 
ATOM      5  C   UNL     1      45.488   8.215  12.351  0.00  0.00    +0.000 A 
ATOM      6  C   UNL     1      44.844   7.374  11.441  0.00  0.00    +0.000 A 
ENDROOT
BRANCH   1   7
ATOM      7  C   UNL     1      44.782   5.284  10.020  0.00  0.00    +0.000 C 
BRANCH   7   9
ATOM      8  C   UNL     1      43.283   3.914  11.529  0.00  0.00    +0.000 C 
ATOM      9  N   UNL     1      44.274   3.980  10.462  0.00  0.00    +0.000 N 
ATOM     10  C   UNL     1      44.440   2.794   9.719  0.00  0.00    +0.000 C 
ATOM     11  O   UNL     1      43.769   1.786   9.955  0.00  0.00    +0.000 OA
BRANCH  10  12
ATOM     12  C   UNL     1      45.410   2.700   8.583  0.00  0.00    +0.000 A 
ATOM     13  C   UNL     1      45.746   3.782   7.761  0.00  0.00    +0.000 A 
ATOM     14  C   UNL     1      46.631   3.622   6.693  0.00  0.00    +0.000 A 
ATOM     15  C   UNL     1      47.263   2.399   6.488  0.00  0.00    +0.000 A 
ATOM     16  C   UNL     1      47.011   1.336   7.353  0.00  0.00    +0.000 A 
ATOM     17  C   UNL     1      46.081   1.483   8.389  0.00  0.00    +0.000 A 
ENDBRANCH  10  12
ENDBRANCH   7   9
ENDBRANCH   1   7
BRANCH   4  18
ATOM     18  C   UNL     1      47.410   8.767  13.887  0.00  0.00    +0.000 C 
BRANCH  18  19
ATOM     19  N   UNL     1      47.729   8.062  15.101  0.00  0.00    +0.000 N 
ATOM     20  C   UNL     1      49.030   7.779  15.419  0.00  0.00    +0.000 C 
ATOM     21  O   UNL     1      49.968   8.144  14.713  0.00  0.00    +0.000 OA
ATOM     22  H   UNL     1      46.975   7.562  15.565  0.00  0.00    +0.000 HD
BRANCH  20  23
ATOM     23  C   UNL     1      49.264   7.065  16.683  0.00  0.00    +0.000 A 
ATOM     24  C   UNL     1      49.981   7.687  17.697  0.00  0.00    +0.000 A 
ATOM     25  S   UNL     1      50.119   6.747  19.112  0.00  0.00    +0.000 S 
ATOM     26  C   UNL     1      49.272   5.452  18.401  0.00  0.00    +0.000 A 
ATOM     27  N   UNL     1      49.060   4.296  19.081  0.00  0.00    +0.000 NA
ATOM     28  C   UNL     1      48.440   3.387  18.411  0.00  0.00    +0.000 A 
ATOM     29  N   UNL     1      48.001   3.529  17.118  0.00  0.00    +0.000 N 
ATOM     30  C   UNL     1      48.163   4.689  16.406  0.00  0.00    +0.000 A 
ATOM     31  O   UNL     1      47.716   4.806  15.268  0.00  0.00    +0.000 OA
ATOM     32  C   UNL     1      48.871   5.742  17.108  0.00  0.00    +0.000 A 
ATOM     33  H   UNL     1      47.515   2.779  16.651  0.00  0.00    +0.000 HD
ENDBRANCH  20  23
ENDBRANCH  18  19
ENDBRANCH   4  18
TORSDOF 6
ENDMDL
MODEL 3
REMARK VINA RESULT:    -7.617      2.511      3.069
REMARK INTER + INTRA:         -11.341
REMARK INTER:                 -10.227
REMARK INTRA:                  -1.114
REMARK UNBOUND:                -1.052
REMARK  Name = 
REMARK  7 active torsions:
REMARK  status: ('A' for Active; 'I' for Inactive)
REMARK    1  A    between atoms: C_1  and  N_2
REMARK    2  A    between atoms: N_2  and  C_3
REMARK    3  A    between atoms: C_3  and  C_4
REMARK    4  A    between atoms: C_7  and  C_8
REMARK    5  A    between atoms: C_8  and  N_9
REMARK    6  A    between atoms: C_10  and  C_12
REMARK    7  A    between atoms: C_24  and  C_26
REMARK                            x       y       z     vdW  Elec       q    Type
REMARK                         _______ _______ _______ _____ _____    ______ ____
ROOT
ATOM      1  C   UNL     1      46.319   4.708  13.184  0.00  0.00    +0.000 A 
ATOM      2  C   UNL     1      46.846   4.471  14.465  0.00  0.00    +0.000 A 
ATOM      3  C   UNL     1      47.780   5.344  15.025  0.00  0.00    +0.000 A 
ATOM      4  C   UNL     1      48.197   6.478  14.317  0.00  0.00    +0.000 A 
ATOM      5  C   UNL     1      47.694   6.697  13.027  0.00  0.00    +0.000 A 
ATOM      6  C   UNL     1      46.755   5.826  12.469  0.00  0.00    +0.000 A 
ENDROOT
BRANCH   1   7
ATOM      7  C   UNL     1      45.334   3.739  12.580  0.00  0.00    +0.000 C 
BRANCH   7   9
ATOM      8  C   UNL     1      43.135   4.936  12.949  0.00  0.00    +0.000 C 
ATOM      9  N   UNL     1      44.065   4.257  12.054  0.00  0.00    +0.000 N 
ATOM     10  C   UNL     1      43.809   4.425  10.679  0.00  0.00    +0.000 C 
ATOM     11  O   UNL     1      42.873   5.120  10.277  0.00  0.00    +0.000 OA
BRANCH  10  12
ATOM     12  C   UNL     1      44.677   3.802   9.630  0.00  0.00    +0.000 A 
ATOM     13  C   UNL     1      45.507   4.537   8.776  0.00  0.00    +0.000 A 
ATOM     14  C   UNL     1      46.267   3.900   7.792  0.00  0.00    +0.000 A 
ATOM     15  C   UNL     1      46.277   2.510   7.710  0.00  0.00    +0.000 A 
ATOM     16  C   UNL     1      45.529   1.759   8.613  0.00  0.00    +0.000 A 
ATOM     17  C   UNL     1      44.725   2.401   9.562  0.00  0.00    +0.000 A 
ENDBRANCH  10  12
ENDBRANCH   7   9
ENDBRANCH   1   7
BRANCH   4  18
ATOM     18  C   UNL     1      49.184   7.438  14.921  0.00  0.00    +0.000 C 
BRANCH  18  19
ATOM     19  N   UNL     1      49.176   7.375  16.359  0.00  0.00    +0.000 N 
ATOM     20  C   UNL     1      50.324   7.091  17.049  0.00  0.00    +0.000 C 
ATOM     21  O   UNL     1      51.401   6.921  16.481  0.00  0.00    +0.000 OA
ATOM     22  H   UNL     1      48.274   7.284  16.820  0.00  0.00    +0.000 HD
BRANCH  20  23
ATOM     23  C   UNL     1      50.226   7.057  18.515  0.00  0.00    +0.000 A 
ATOM     24  C   UNL     1      50.768   8.097  19.261  0.00  0.00    +0.000 A 
ATOM     25  S   UNL     1      50.525   7.932  20.941  0.00  0.00    +0.000 S 
ATOM     26  C   UNL     1      49.733   6.438  20.735  0.00  0.00    +0.000 A 
ATOM     27  N   UNL     1      49.283   5.732  21.804  0.00  0.00    +0.000 NA
ATOM     28  C   UNL     1      48.737   4.603  21.508  0.00  0.00    +0.000 A 
ATOM     29  N   UNL     1      48.591   4.114  20.234  0.00  0.00    +0.000 N 
ATOM     30  C   UNL     1      49.000   4.808  19.124  0.00  0.00    +0.000 A 
ATOM     31  O   UNL     1      48.811   4.369  17.992  0.00  0.00    +0.000 OA
ATOM     32  C   UNL     1      49.637   6.080  19.402  0.00  0.00    +0.000 A 
ATOM     33  H   UNL     1      48.149   3.223  20.068  0.00  0.00    +0.000 HD
ENDBRANCH  20  23
ENDBRANCH  18  19
ENDBRANCH   4  18
TORSDOF 6
ENDMDL
MODEL 4
REMARK VINA RESULT:    -7.607      1.922      3.141
REMARK INTER + INTRA:         -11.327
REMARK INTER:                  -9.934
REMARK INTRA:                  -1.393
REMARK UNBOUND:                -1.052
REMARK  Name = 
REMARK  7 active torsions:
REMARK  status: ('A' for Active; 'I' for Inactive)
REMARK    1  A    between atoms: C_1  and  N_2
REMARK    2  A    between atoms: N_2  and  C_3
REMARK    3  A    between atoms: C_3  and  C_4
REMARK    4  A    between atoms: C_7  and  C_8
REMARK    5  A    between atoms: C_8  and  N_9
REMARK    6  A    between atoms: C_10  and  C_12
REMARK    7  A    between atoms: C_24  and  C_26
REMARK                            x       y       z     vdW  Elec       q    Type
REMARK                         _______ _______ _______ _____ _____    ______ ____
ROOT
ATOM      1  C   UNL     1      47.418   5.721  13.645  0.00  0.00    +0.000 A 
ATOM      2  C   UNL     1      48.025   6.198  14.819  0.00  0.00    +0.000 A 
ATOM      3  C   UNL     1      48.105   5.394  15.957  0.00  0.00    +0.000 A 
ATOM      4  C   UNL     1      47.590   4.093  15.939  0.00  0.00    +0.000 A 
ATOM      5  C   UNL     1      46.958   3.629  14.777  0.00  0.00    +0.000 A 
ATOM      6  C   UNL     1      46.882   4.431  13.636  0.00  0.00    +0.000 A 
ENDROOT
BRANCH   1   7
ATOM      7  C   UNL     1      47.311   6.612  12.432  0.00  0.00    +0.000 C 
BRANCH   7   9
ATOM      8  C   UNL     1      46.267   8.896  12.740  0.00  0.00    +0.000 C 
ATOM      9  N   UNL     1      46.154   7.507  12.313  0.00  0.00    +0.000 N 
ATOM     10  C   UNL     1      45.024   7.208  11.526  0.00  0.00    +0.000 C 
ATOM     11  O   UNL     1      44.209   8.079  11.210  0.00  0.00    +0.000 OA
BRANCH  10  12
ATOM     12  C   UNL     1      44.767   5.831  10.999  0.00  0.00    +0.000 A 
ATOM     13  C   UNL     1      43.848   4.943  11.569  0.00  0.00    +0.000 A 
ATOM     14  C   UNL     1      43.680   3.656  11.053  0.00  0.00    +0.000 A 
ATOM     15  C   UNL     1      44.363   3.272   9.902  0.00  0.00    +0.000 A 
ATOM     16  C   UNL     1      45.213   4.176   9.268  0.00  0.00    +0.000 A 
ATOM     17  C   UNL     1      45.422   5.445   9.818  0.00  0.00    +0.000 A 
ENDBRANCH  10  12
ENDBRANCH   7   9
ENDBRANCH   1   7
BRANCH   4  18
ATOM     18  C   UNL     1      47.694   3.210  17.151  0.00  0.00    +0.000 C 
BRANCH  18  19
ATOM     19  N   UNL     1      49.058   3.063  17.587  0.00  0.00    +0.000 N 
ATOM     20  C   UNL     1      49.917   2.236  16.915  0.00  0.00    +0.000 C 
ATOM     21  O   UNL     1      49.578   1.626  15.904  0.00  0.00    +0.000 OA
ATOM     22  H   UNL     1      49.284   3.368  18.530  0.00  0.00    +0.000 HD
BRANCH  20  23
ATOM     23  C   UNL     1      51.294   2.154  17.425  0.00  0.00    +0.000 A 
ATOM     24  C   UNL     1      51.878   0.909  17.621  0.00  0.00    +0.000 A 
ATOM     25  S   UNL     1      53.492   0.989  18.165  0.00  0.00    +0.000 S 
ATOM     26  C   UNL     1      53.450   2.691  18.209  0.00  0.00    +0.000 A 
ATOM     27  N   UNL     1      54.527   3.407  18.624  0.00  0.00    +0.000 NA
ATOM     28  C   UNL     1      54.347   4.683  18.644  0.00  0.00    +0.000 A 
ATOM     29  N   UNL     1      53.184   5.314  18.278  0.00  0.00    +0.000 N 
ATOM     30  C   UNL     1      52.085   4.634  17.822  0.00  0.00    +0.000 A 
ATOM     31  O   UNL     1      51.075   5.229  17.453  0.00  0.00    +0.000 OA
ATOM     32  C   UNL     1      52.228   3.192  17.795  0.00  0.00    +0.000 A 
ATOM     33  H   UNL     1      53.109   6.319  18.311  0.00  0.00    +0.000 HD
ENDBRANCH  20  23
ENDBRANCH  18  19
ENDBRANCH   4  18
TORSDOF 6
ENDMDL
MODEL 5
REMARK VINA RESULT:    -7.576      3.675      8.917
REMARK INTER + INTRA:         -11.285
REMARK INTER:                  -9.518
REMARK INTRA:                  -1.767
REMARK UNBOUND:                -1.052
REMARK  Name = 
REMARK  7 active torsions:
REMARK  status: ('A' for Active; 'I' for Inactive)
REMARK    1  A    between atoms: C_1  and  N_2
REMARK    2  A    between atoms: N_2  and  C_3
REMARK    3  A    between atoms: C_3  and  C_4
REMARK    4  A    between atoms: C_7  and  C_8
REMARK    5  A    between atoms: C_8  and  N_9
REMARK    6  A    between atoms: C_10  and  C_12
REMARK    7  A    between atoms: C_24  and  C_26
REMARK                            x       y       z     vdW  Elec       q    Type
REMARK                         _______ _______ _______ _____ _____    ______ ____
ROOT
ATOM      1  C   UNL     1      49.238   7.854  16.145  0.00  0.00    +0.000 A 
ATOM      2  C   UNL     1      48.392   8.895  15.729  0.00  0.00    +0.000 A 
ATOM      3  C   UNL     1      47.839   8.895  14.447  0.00  0.00    +0.000 A 
ATOM      4  C   UNL     1      48.113   7.847  13.561  0.00  0.00    +0.000 A 
ATOM      5  C   UNL     1      48.982   6.824  13.966  0.00  0.00    +0.000 A 
ATOM      6  C   UNL     1      49.532   6.821  15.251  0.00  0.00    +0.000 A 
ENDROOT
BRANCH   1   7
ATOM      7  C   UNL     1      49.853   7.883  17.522  0.00  0.00    +0.000 C 
BRANCH   7   9
ATOM      8  C   UNL     1      48.599   8.990  19.420  0.00  0.00    +0.000 C 
ATOM      9  N   UNL     1      48.971   7.784  18.691  0.00  0.00    +0.000 N 
ATOM     10  C   UNL     1      48.201   6.640  18.984  0.00  0.00    +0.000 C 
ATOM     11  O   UNL     1      47.266   6.680  19.787  0.00  0.00    +0.000 OA
BRANCH  10  12
ATOM     12  C   UNL     1      48.449   5.326  18.313  0.00  0.00    +0.000 A 
ATOM     13  C   UNL     1      49.645   4.608  18.434  0.00  0.00    +0.000 A 
ATOM     14  C   UNL     1      49.830   3.403  17.752  0.00  0.00    +0.000 A 
ATOM     15  C   UNL     1      48.786   2.853  17.014  0.00  0.00    +0.000 A 
ATOM     16  C   UNL     1      47.558   3.508  16.958  0.00  0.00    +0.000 A 
ATOM     17  C   UNL     1      47.393   4.742  17.595  0.00  0.00    +0.000 A 
ENDBRANCH  10  12
ENDBRANCH   7   9
ENDBRANCH   1   7
BRANCH   4  18
ATOM     18  C   UNL     1      47.503   7.824  12.187  0.00  0.00    +0.000 C 
BRANCH  18  19
ATOM     19  N   UNL     1      46.856   6.568  11.913  0.00  0.00    +0.000 N 
ATOM     20  C   UNL     1      45.496   6.448  12.020  0.00  0.00    +0.000 C 
ATOM     21  O   UNL     1      44.778   7.403  12.310  0.00  0.00    +0.000 OA
ATOM     22  H   UNL     1      47.437   5.734  11.900  0.00  0.00    +0.000 HD
BRANCH  20  23
ATOM     23  C   UNL     1      44.920   5.131  11.712  0.00  0.00    +0.000 A 
ATOM     24  C   UNL     1      44.237   4.435  12.701  0.00  0.00    +0.000 A 
ATOM     25  S   UNL     1      43.587   2.951  12.168  0.00  0.00    +0.000 S 
ATOM     26  C   UNL     1      44.241   3.162  10.610  0.00  0.00    +0.000 A 
ATOM     27  N   UNL     1      44.074   2.218   9.647  0.00  0.00    +0.000 NA
ATOM     28  C   UNL     1      44.652   2.488   8.527  0.00  0.00    +0.000 A 
ATOM     29  N   UNL     1      45.380   3.624   8.276  0.00  0.00    +0.000 N 
ATOM     30  C   UNL     1      45.545   4.618   9.206  0.00  0.00    +0.000 A 
ATOM     31  O   UNL     1      46.160   5.647   8.937  0.00  0.00    +0.000 OA
ATOM     32  C   UNL     1      44.928   4.357  10.492  0.00  0.00    +0.000 A 
ATOM     33  H   UNL     1      45.804   3.778   7.374  0.00  0.00    +0.000 HD
ENDBRANCH  20  23
ENDBRANCH  18  19
ENDBRANCH   4  18
TORSDOF 6
ENDMDL
MODEL 6
REMARK VINA RESULT:    -7.459      3.548     10.179
REMARK INTER + INTRA:         -11.128
REMARK INTER:                  -9.400
REMARK INTRA:                  -1.727
REMARK UNBOUND:                -1.052
REMARK  Name = 
REMARK  7 active torsions:
REMARK  status: ('A' for Active; 'I' for Inactive)
REMARK    1  A    between atoms: C_1  and  N_2
REMARK    2  A    between atoms: N_2  and  C_3
REMARK    3  A    between atoms: C_3  and  C_4
REMARK    4  A    between atoms: C_7  and  C_8
REMARK    5  A    between atoms: C_8  and  N_9
REMARK    6  A    between atoms: C_10  and  C_12
REMARK    7  A    between atoms: C_24  and  C_26
REMARK                            x       y       z     vdW  Elec       q    Type
REMARK                         _______ _______ _______ _____ _____    ______ ____
ROOT
ATOM      1  C   UNL     1      51.455   4.280  17.733  0.00  0.00    +0.000 A 
ATOM      2  C   UNL     1      50.964   2.963  17.727  0.00  0.00    +0.000 A 
ATOM      3  C   UNL     1      49.632   2.701  17.404  0.00  0.00    +0.000 A 
ATOM      4  C   UNL     1      48.767   3.749  17.070  0.00  0.00    +0.000 A 
ATOM      5  C   UNL     1      49.250   5.065  17.106  0.00  0.00    +0.000 A 
ATOM      6  C   UNL     1      50.584   5.328  17.424  0.00  0.00    +0.000 A 
ENDROOT
BRANCH   1   7
ATOM      7  C   UNL     1      52.889   4.552  18.114  0.00  0.00    +0.000 C 
BRANCH   7   9
ATOM      8  C   UNL     1      54.582   3.166  19.383  0.00  0.00    +0.000 C 
ATOM      9  N   UNL     1      53.397   4.014  19.381  0.00  0.00    +0.000 N 
ATOM     10  C   UNL     1      53.007   4.508  20.642  0.00  0.00    +0.000 C 
ATOM     11  O   UNL     1      53.649   4.249  21.663  0.00  0.00    +0.000 OA
BRANCH  10  12
ATOM     12  C   UNL     1      51.818   5.401  20.810  0.00  0.00    +0.000 A 
ATOM     13  C   UNL     1      51.856   6.786  20.612  0.00  0.00    +0.000 A 
ATOM     14  C   UNL     1      50.720   7.571  20.820  0.00  0.00    +0.000 A 
ATOM     15  C   UNL     1      49.506   6.970  21.140  0.00  0.00    +0.000 A 
ATOM     16  C   UNL     1      49.429   5.583  21.250  0.00  0.00    +0.000 A 
ATOM     17  C   UNL     1      50.581   4.803  21.096  0.00  0.00    +0.000 A 
ENDBRANCH  10  12
ENDBRANCH   7   9
ENDBRANCH   1   7
BRANCH   4  18
ATOM     18  C   UNL     1      47.338   3.475  16.696  0.00  0.00    +0.000 C 
BRANCH  18  19
ATOM     19  N   UNL     1      46.828   4.460  15.778  0.00  0.00    +0.000 N 
ATOM     20  C   UNL     1      46.838   4.226  14.430  0.00  0.00    +0.000 C 
ATOM     21  O   UNL     1      47.238   3.165  13.955  0.00  0.00    +0.000 OA
ATOM     22  H   UNL     1      46.715   5.409  16.125  0.00  0.00    +0.000 HD
BRANCH  20  23
ATOM     23  C   UNL     1      46.290   5.283  13.568  0.00  0.00    +0.000 A 
ATOM     24  C   UNL     1      47.026   6.442  13.353  0.00  0.00    +0.000 A 
ATOM     25  S   UNL     1      46.274   7.543  12.292  0.00  0.00    +0.000 S 
ATOM     26  C   UNL     1      44.912   6.535  12.123  0.00  0.00    +0.000 A 
ATOM     27  N   UNL     1      43.856   6.908  11.354  0.00  0.00    +0.000 NA
ATOM     28  C   UNL     1      42.878   6.068  11.345  0.00  0.00    +0.000 A 
ATOM     29  N   UNL     1      42.860   4.880  12.032  0.00  0.00    +0.000 N 
ATOM     30  C   UNL     1      43.915   4.449  12.793  0.00  0.00    +0.000 A 
ATOM     31  O   UNL     1      43.892   3.358  13.357  0.00  0.00    +0.000 OA
ATOM     32  C   UNL     1      45.038   5.365  12.851  0.00  0.00    +0.000 A 
ATOM     33  H   UNL     1      42.063   4.264  11.979  0.00  0.00    +0.000 HD
ENDBRANCH  20  23
ENDBRANCH  18  19
ENDBRANCH   4  18
TORSDOF 6
ENDMDL
MODEL 7
REMARK VINA RESULT:    -7.302      3.940      8.517
REMARK INTER + INTRA:         -10.916
REMARK INTER:                  -8.833
REMARK INTRA:                  -2.082
REMARK UNBOUND:                -1.052
REMARK  Name = 
REMARK  7 active torsions:
REMARK  status: ('A' for Active; 'I' for Inactive)
REMARK    1  A    between atoms: C_1  and  N_2
REMARK    2  A    between atoms: N_2  and  C_3
REMARK    3  A    between atoms: C_3  and  C_4
REMARK    4  A    between atoms: C_7  and  C_8
REMARK    5  A    between atoms: C_8  and  N_9
REMARK    6  A    between atoms: C_10  and  C_12
REMARK    7  A    between atoms: C_24  and  C_26
REMARK                            x       y       z     vdW  Elec       q    Type
REMARK                         _______ _______ _______ _____ _____    ______ ____
ROOT
ATOM      1  C   UNL     1      50.097   7.059  17.572  0.00  0.00    +0.000 A 
ATOM      2  C   UNL     1      50.275   6.532  16.282  0.00  0.00    +0.000 A 
ATOM      3  C   UNL     1      49.619   7.094  15.186  0.00  0.00    +0.000 A 
ATOM      4  C   UNL     1      48.781   8.202  15.357  0.00  0.00    +0.000 A 
ATOM      5  C   UNL     1      48.580   8.708  16.649  0.00  0.00    +0.000 A 
ATOM      6  C   UNL     1      49.240   8.149  17.746  0.00  0.00    +0.000 A 
ENDROOT
BRANCH   1   7
ATOM      7  C   UNL     1      50.787   6.422  18.752  0.00  0.00    +0.000 C 
BRANCH   7   9
ATOM      8  C   UNL     1      50.115   6.780  21.165  0.00  0.00    +0.000 C 
ATOM      9  N   UNL     1      49.983   6.036  19.918  0.00  0.00    +0.000 N 
ATOM     10  C   UNL     1      48.858   5.192  19.836  0.00  0.00    +0.000 C 
ATOM     11  O   UNL     1      48.039   5.116  20.755  0.00  0.00    +0.000 OA
BRANCH  10  12
ATOM     12  C   UNL     1      48.573   4.369  18.618  0.00  0.00    +0.000 A 
ATOM     13  C   UNL     1      49.354   3.277  18.221  0.00  0.00    +0.000 A 
ATOM     14  C   UNL     1      49.058   2.571  17.053  0.00  0.00    +0.000 A 
ATOM     15  C   UNL     1      47.922   2.890  16.315  0.00  0.00    +0.000 A 
ATOM     16  C   UNL     1      47.081   3.914  16.746  0.00  0.00    +0.000 A 
ATOM     17  C   UNL     1      47.411   4.657  17.886  0.00  0.00    +0.000 A 
ENDBRANCH  10  12
ENDBRANCH   7   9
ENDBRANCH   1   7
BRANCH   4  18
ATOM     18  C   UNL     1      48.090   8.830  14.179  0.00  0.00    +0.000 C 
BRANCH  18  19
ATOM     19  N   UNL     1      46.937   8.071  13.771  0.00  0.00    +0.000 N 
ATOM     20  C   UNL     1      46.897   7.473  12.540  0.00  0.00    +0.000 C 
ATOM     21  O   UNL     1      47.846   7.524  11.760  0.00  0.00    +0.000 OA
ATOM     22  H   UNL     1      46.076   8.210  14.293  0.00  0.00    +0.000 HD
BRANCH  20  23
ATOM     23  C   UNL     1      45.685   6.710  12.212  0.00  0.00    +0.000 A 
ATOM     24  C   UNL     1      44.584   7.370  11.681  0.00  0.00    +0.000 A 
ATOM     25  S   UNL     1      43.281   6.335  11.308  0.00  0.00    +0.000 S 
ATOM     26  C   UNL     1      44.122   4.975  11.894  0.00  0.00    +0.000 A 
ATOM     27  N   UNL     1      43.549   3.744  11.892  0.00  0.00    +0.000 NA
ATOM     28  C   UNL     1      44.281   2.812  12.398  0.00  0.00    +0.000 A 
ATOM     29  N   UNL     1      45.545   2.996  12.901  0.00  0.00    +0.000 N 
ATOM     30  C   UNL     1      46.175   4.214  12.892  0.00  0.00    +0.000 A 
ATOM     31  O   UNL     1      47.326   4.339  13.304  0.00  0.00    +0.000 OA
ATOM     32  C   UNL     1      45.387   5.303  12.348  0.00  0.00    +0.000 A 
ATOM     33  H   UNL     1      46.069   2.222  13.279  0.00  0.00    +0.000 HD
ENDBRANCH  20  23
ENDBRANCH  18  19
ENDBRANCH   4  18
TORSDOF 6
ENDMDL
MODEL 8
REMARK VINA RESULT:    -7.014      3.857      9.923
REMARK INTER + INTRA:         -10.527
REMARK INTER:                  -8.782
REMARK INTRA:                  -1.744
REMARK UNBOUND:                -1.052
REMARK  Name = 
REMARK  7 active torsions:
REMARK  status: ('A' for Active; 'I' for Inactive)
REMARK    1  A    between atoms: C_1  and  N_2
REMARK    2  A    between atoms: N_2  and  C_3
REMARK    3  A    between atoms: C_3  and  C_4
REMARK    4  A    between atoms: C_7  and  C_8
REMARK    5  A    between atoms: C_8  and  N_9
REMARK    6  A    between atoms: C_10  and  C_12
REMARK    7  A    between atoms: C_24  and  C_26
REMARK                            x       y       z     vdW  Elec       q    Type
REMARK                         _______ _______ _______ _____ _____    ______ ____
ROOT
ATOM      1  C   UNL     1      50.744   5.508  18.336  0.00  0.00    +0.000 A 
ATOM      2  C   UNL     1      50.299   4.241  18.748  0.00  0.00    +0.000 A 
ATOM      3  C   UNL     1      49.203   3.635  18.130  0.00  0.00    +0.000 A 
ATOM      4  C   UNL     1      48.539   4.281  17.081  0.00  0.00    +0.000 A 
ATOM      5  C   UNL     1      48.965   5.559  16.692  0.00  0.00    +0.000 A 
ATOM      6  C   UNL     1      50.064   6.163  17.306  0.00  0.00    +0.000 A 
ENDROOT
BRANCH   1   7
ATOM      7  C   UNL     1      51.910   6.163  19.033  0.00  0.00    +0.000 C 
BRANCH   7   9
ATOM      8  C   UNL     1      52.914   5.822  21.330  0.00  0.00    +0.000 C 
ATOM      9  N   UNL     1      51.849   6.351  20.487  0.00  0.00    +0.000 N 
ATOM     10  C   UNL     1      50.992   7.279  21.111  0.00  0.00    +0.000 C 
ATOM     11  O   UNL     1      51.159   7.625  22.283  0.00  0.00    +0.000 OA
BRANCH  10  12
ATOM     12  C   UNL     1      49.855   7.923  20.380  0.00  0.00    +0.000 A 
ATOM     13  C   UNL     1      49.998   9.059  19.574  0.00  0.00    +0.000 A 
ATOM     14  C   UNL     1      48.891   9.636  18.947  0.00  0.00    +0.000 A 
ATOM     15  C   UNL     1      47.642   9.030  19.042  0.00  0.00    +0.000 A 
ATOM     16  C   UNL     1      47.499   7.847  19.765  0.00  0.00    +0.000 A 
ATOM     17  C   UNL     1      48.598   7.302  20.438  0.00  0.00    +0.000 A 
ENDBRANCH  10  12
ENDBRANCH   7   9
ENDBRANCH   1   7
BRANCH   4  18
ATOM     18  C   UNL     1      47.373   3.627  16.393  0.00  0.00    +0.000 C 
BRANCH  18  19
ATOM     19  N   UNL     1      46.702   4.537  15.502  0.00  0.00    +0.000 N 
ATOM     20  C   UNL     1      46.825   4.400  14.145  0.00  0.00    +0.000 C 
ATOM     21  O   UNL     1      47.471   3.485  13.639  0.00  0.00    +0.000 OA
ATOM     22  H   UNL     1      46.366   5.413  15.893  0.00  0.00    +0.000 HD
BRANCH  20  23
ATOM     23  C   UNL     1      46.097   5.368  13.312  0.00  0.00    +0.000 A 
ATOM     24  C   UNL     1      46.698   6.577  12.984  0.00  0.00    +0.000 A 
ATOM     25  S   UNL     1      45.744   7.562  11.971  0.00  0.00    +0.000 S 
ATOM     26  C   UNL     1      44.471   6.431  11.979  0.00  0.00    +0.000 A 
ATOM     27  N   UNL     1      43.313   6.676  11.312  0.00  0.00    +0.000 NA
ATOM     28  C   UNL     1      42.420   5.754  11.433  0.00  0.00    +0.000 A 
ATOM     29  N   UNL     1      42.582   4.599  12.157  0.00  0.00    +0.000 N 
ATOM     30  C   UNL     1      43.744   4.295  12.816  0.00  0.00    +0.000 A 
ATOM     31  O   UNL     1      43.878   3.230  13.415  0.00  0.00    +0.000 OA
ATOM     32  C   UNL     1      44.778   5.308  12.727  0.00  0.00    +0.000 A 
ATOM     33  H   UNL     1      41.844   3.912  12.207  0.00  0.00    +0.000 HD
ENDBRANCH  20  23
ENDBRANCH  18  19
ENDBRANCH   4  18
TORSDOF 6
ENDMDL
MODEL 9
REMARK VINA RESULT:    -6.973      3.254      9.193
REMARK INTER + INTRA:         -10.471
REMARK INTER:                  -8.893
REMARK INTRA:                  -1.578
REMARK UNBOUND:                -1.052
REMARK  Name = 
REMARK  7 active torsions:
REMARK  status: ('A' for Active; 'I' for Inactive)
REMARK    1  A    between atoms: C_1  and  N_2
REMARK    2  A    between atoms: N_2  and  C_3
REMARK    3  A    between atoms: C_3  and  C_4
REMARK    4  A    between atoms: C_7  and  C_8
REMARK    5  A    between atoms: C_8  and  N_9
REMARK    6  A    between atoms: C_10  and  C_12
REMARK    7  A    between atoms: C_24  and  C_26
REMARK                            x       y       z     vdW  Elec       q    Type
REMARK                         _______ _______ _______ _____ _____    ______ ____
ROOT
ATOM      1  C   UNL     1      50.306   7.271  15.565  0.00  0.00    +0.000 A 
ATOM      2  C   UNL     1      48.942   6.943  15.634  0.00  0.00    +0.000 A 
ATOM      3  C   UNL     1      48.113   7.101  14.522  0.00  0.00    +0.000 A 
ATOM      4  C   UNL     1      48.637   7.578  13.315  0.00  0.00    +0.000 A 
ATOM      5  C   UNL     1      49.992   7.934  13.256  0.00  0.00    +0.000 A 
ATOM      6  C   UNL     1      50.822   7.772  14.367  0.00  0.00    +0.000 A 
ENDROOT
BRANCH   1   7
ATOM      7  C   UNL     1      51.182   7.125  16.784  0.00  0.00    +0.000 C 
BRANCH   7   9
ATOM      8  C   UNL     1      53.512   6.147  16.663  0.00  0.00    +0.000 C 
ATOM      9  N   UNL     1      52.081   5.968  16.874  0.00  0.00    +0.000 N 
ATOM     10  C   UNL     1      51.706   4.741  17.456  0.00  0.00    +0.000 C 
ATOM     11  O   UNL     1      52.545   3.898  17.781  0.00  0.00    +0.000 OA
BRANCH  10  12
ATOM     12  C   UNL     1      50.276   4.407  17.748  0.00  0.00    +0.000 A 
ATOM     13  C   UNL     1      49.520   5.042  18.740  0.00  0.00    +0.000 A 
ATOM     14  C   UNL     1      48.200   4.660  18.989  0.00  0.00    +0.000 A 
ATOM     15  C   UNL     1      47.589   3.701  18.187  0.00  0.00    +0.000 A 
ATOM     16  C   UNL     1      48.298   3.125  17.135  0.00  0.00    +0.000 A 
ATOM     17  C   UNL     1      49.637   3.469  16.923  0.00  0.00    +0.000 A 
ENDBRANCH  10  12
ENDBRANCH   7   9
ENDBRANCH   1   7
BRANCH   4  18
ATOM     18  C   UNL     1      47.759   7.728  12.104  0.00  0.00    +0.000 C 
BRANCH  18  19
ATOM     19  N   UNL     1      47.041   6.514  11.814  0.00  0.00    +0.000 N 
ATOM     20  C   UNL     1      45.704   6.413  12.091  0.00  0.00    +0.000 C 
ATOM     21  O   UNL     1      45.062   7.354  12.554  0.00  0.00    +0.000 OA
ATOM     22  H   UNL     1      47.588   5.672  11.654  0.00  0.00    +0.000 HD
BRANCH  20  23
ATOM     23  C   UNL     1      45.050   5.141  11.753  0.00  0.00    +0.000 A 
ATOM     24  C   UNL     1      44.352   4.449  12.735  0.00  0.00    +0.000 A 
ATOM     25  S   UNL     1      43.610   3.022  12.168  0.00  0.00    +0.000 S 
ATOM     26  C   UNL     1      44.241   3.250  10.603  0.00  0.00    +0.000 A 
ATOM     27  N   UNL     1      44.002   2.350   9.614  0.00  0.00    +0.000 NA
ATOM     28  C   UNL     1      44.570   2.626   8.491  0.00  0.00    +0.000 A 
ATOM     29  N   UNL     1      45.353   3.729   8.260  0.00  0.00    +0.000 N 
ATOM     30  C   UNL     1      45.593   4.680   9.218  0.00  0.00    +0.000 A 
ATOM     31  O   UNL     1      46.257   5.683   8.969  0.00  0.00    +0.000 OA
ATOM     32  C   UNL     1      44.990   4.410  10.509  0.00  0.00    +0.000 A 
ATOM     33  H   UNL     1      45.766   3.891   7.354  0.00  0.00    +0.000 HD
ENDBRANCH  20  23
ENDBRANCH  18  19
ENDBRANCH   4  18
TORSDOF 6
ENDMDL
