MODEL 1
REMARK VINA RESULT:    -8.170      0.000      0.000
REMARK INTER + INTRA:         -12.029
REMARK INTER:                 -11.036
REMARK INTRA:                  -0.993
REMARK UNBOUND:                -0.993
REMARK  Name = 
REMARK  6 active torsions:
REMARK  status: ('A' for Active; 'I' for Inactive)
REMARK    1  A    between atoms: C_2  and  C_4
REMARK    2  A    between atoms: C_7  and  O_8
REMARK    3  A    between atoms: O_8  and  C_9
REMARK    4  A    between atoms: C_9  and  C_10
REMARK    5  A    between atoms: C_10  and  C_11
REMARK    6  A    between atoms: C_15  and  C_16
REMARK                            x       y       z     vdW  Elec       q    Type
REMARK                         _______ _______ _______ _____ _____    ______ ____
ROOT
ATOM      1  C   UNL     1      43.269   5.179  12.277  0.00  0.00    +0.000 C 
ENDROOT
BRANCH   1   2
ATOM      2  C   UNL     1      44.684   5.195  12.793  0.00  0.00    +0.000 A 
ATOM      3  C   UNL     1      45.336   3.987  13.053  0.00  0.00    +0.000 A 
ATOM      4  C   UNL     1      46.667   3.988  13.448  0.00  0.00    +0.000 A 
ATOM      5  C   UNL     1      47.352   5.194  13.594  0.00  0.00    +0.000 A 
ATOM      6  C   UNL     1      46.738   6.429  13.335  0.00  0.00    +0.000 A 
ATOM      7  C   UNL     1      45.387   6.406  12.935  0.00  0.00    +0.000 A 
BRANCH   6   8
ATOM      8  C   UNL     1      47.448   7.774  13.520  0.00  0.00    +0.000 C 
ATOM      9  C   UNL     1      47.737   8.513  12.203  0.00  0.00    +0.000 C 
ATOM     10  C   UNL     1      48.878   7.851  11.439  0.00  0.00    +0.000 C 
ATOM     11  C   UNL     1      50.135   7.691  12.295  0.00  0.00    +0.000 C 
ATOM     12  N   UNL     1      49.923   7.161  13.640  0.00  0.00    +0.000 NA
ATOM     13  C   UNL     1      48.767   7.748  14.334  0.00  0.00    +0.000 C 
ATOM     14  H   UNL     1      49.820   6.151  13.580  0.00  0.00    +0.000 HD
ENDBRANCH   6   8
ENDBRANCH   1   2
BRANCH   1  15
ATOM     15  C   UNL     1      43.140   4.134  11.168  0.00  0.00    +0.000 C 
BRANCH  15  16
ATOM     16  O   UNL     1      43.654   4.667   9.947  0.00  0.00    +0.000 OA
BRANCH  16  20
ATOM     17  C   UNL     1      46.388   2.505   7.777  0.00  0.00    +0.000 A 
ATOM     18  C   UNL     1      45.568   1.780   8.631  0.00  0.00    +0.000 A 
ATOM     19  C   UNL     1      44.625   2.473   9.391  0.00  0.00    +0.000 A 
ATOM     20  C   UNL     1      44.526   3.859   9.270  0.00  0.00    +0.000 A 
ATOM     21  C   UNL     1      45.390   4.492   8.382  0.00  0.00    +0.000 A 
ATOM     22  N   UNL     1      46.324   3.857   7.630  0.00  0.00    +0.000 NA
BRANCH  17  24
ATOM     23  N   UNL     1      48.418   2.574   6.459  0.00  0.00    +0.000 N 
ATOM     24  C   UNL     1      47.414   1.785   6.959  0.00  0.00    +0.000 C 
ATOM     25  O   UNL     1      47.373   0.583   6.751  0.00  0.00    +0.000 OA
ATOM     26  H   UNL     1      49.153   2.157   5.906  0.00  0.00    +0.000 HD
ATOM     27  H   UNL     1      48.422   3.565   6.669  0.00  0.00    +0.000 HD
ENDBRANCH  17  24
ENDBRANCH  16  20
ENDBRANCH  15  16
ENDBRANCH   1  15
TORSDOF 6
ENDMDL
MODEL 2
REMARK VINA RESULT:    -7.623      1.360      2.186
REMARK INTER + INTRA:         -11.290
REMARK INTER:                 -10.389
REMARK INTRA:                  -0.901
REMARK UNBOUND:                -0.993
REMARK  Name = 
REMARK  6 active torsions:
REMARK  status: ('A' for Active; 'I' for Inactive)
REMARK    1  A    between atoms: C_2  and  C_4
REMARK    2  A    between atoms: C_7  and  O_8
REMARK    3  A    between atoms: O_8  and  C_9
REMARK    4  A    between atoms: C_9  and  C_10
REMARK    5  A    between atoms: C_10  and  C_11
REMARK    6  A    between atoms: C_15  and  C_16
REMARK                            x       y       z     vdW  Elec       q    Type
REMARK                         _______ _______ _______ _____ _____    ______ ____
ROOT
ATOM      1  C   UNL     1      43.680   3.919  12.746  0.00  0.00    +0.000 C 
ENDROOT
BRANCH   1   2
ATOM      2  C   UNL     1      44.488   5.134  12.373  0.00  0.00    +0.000 A 
ATOM      3  C   UNL     1      43.863   6.206  11.729  0.00  0.00    +0.000 A 
ATOM      4  C   UNL     1      44.578   7.363  11.457  0.00  0.00    +0.000 A 
ATOM      5  C   UNL     1      45.922   7.456  11.817  0.00  0.00    +0.000 A 
ATOM      6  C   UNL     1      46.585   6.408  12.473  0.00  0.00    +0.000 A 
ATOM      7  C   UNL     1      45.841   5.242  12.740  0.00  0.00    +0.000 A 
BRANCH   6   8
ATOM      8  C   UNL     1      48.069   6.460  12.850  0.00  0.00    +0.000 C 
ATOM      9  C   UNL     1      48.329   6.900  14.301  0.00  0.00    +0.000 C 
ATOM     10  C   UNL     1      48.082   8.394  14.475  0.00  0.00    +0.000 C 
ATOM     11  C   UNL     1      48.871   9.235  13.471  0.00  0.00    +0.000 C 
ATOM     12  N   UNL     1      48.826   8.775  12.085  0.00  0.00    +0.000 NA
ATOM     13  C   UNL     1      48.980   7.321  11.937  0.00  0.00    +0.000 C 
ATOM     14  H   UNL     1      47.948   9.078  11.669  0.00  0.00    +0.000 HD
ENDBRANCH   6   8
ENDBRANCH   1   2
BRANCH   1  15
ATOM     15  C   UNL     1      43.947   2.797  11.742  0.00  0.00    +0.000 C 
BRANCH  15  16
ATOM     16  O   UNL     1      43.557   3.223  10.436  0.00  0.00    +0.000 OA
BRANCH  16  20
ATOM     17  C   UNL     1      46.459   2.683   7.582  0.00  0.00    +0.000 A 
ATOM     18  C   UNL     1      46.089   3.995   7.843  0.00  0.00    +0.000 A 
ATOM     19  C   UNL     1      45.104   4.227   8.804  0.00  0.00    +0.000 A 
ATOM     20  C   UNL     1      44.528   3.148   9.475  0.00  0.00    +0.000 A 
ATOM     21  C   UNL     1      44.972   1.872   9.144  0.00  0.00    +0.000 A 
ATOM     22  N   UNL     1      45.921   1.602   8.213  0.00  0.00    +0.000 NA
BRANCH  17  24
ATOM     23  N   UNL     1      47.366   3.110   5.378  0.00  0.00    +0.000 N 
ATOM     24  C   UNL     1      47.506   2.408   6.548  0.00  0.00    +0.000 C 
ATOM     25  O   UNL     1      48.423   1.622   6.724  0.00  0.00    +0.000 OA
ATOM     26  H   UNL     1      48.041   2.984   4.637  0.00  0.00    +0.000 HD
ATOM     27  H   UNL     1      46.599   3.763   5.279  0.00  0.00    +0.000 HD
ENDBRANCH  17  24
ENDBRANCH  16  20
ENDBRANCH  15  16
ENDBRANCH   1  15
TORSDOF 6
ENDMDL
MODEL 3
REMARK VINA RESULT:    -7.535      1.361      2.074
REMARK INTER + INTRA:         -11.171
REMARK INTER:                 -10.233
REMARK INTRA:                  -0.938
REMARK UNBOUND:                -0.993
REMARK  Name = 
REMARK  6 active torsions:
REMARK  status: ('A' for Active; 'I' for Inactive)
REMARK    1  A    between atoms: C_2  and  C_4
REMARK    2  A    between atoms: C_7  and  O_8
REMARK    3  A    between atoms: O_8  and  C_9
REMARK    4  A    between atoms: C_9  and  C_10
REMARK    5  A    between atoms: C_10  and  C_11
REMARK    6  A    between atoms: C_15  and  C_16
REMARK                            x       y       z     vdW  Elec       q    Type
REMARK                         _______ _______ _______ _____ _____    ______ ____
ROOT
ATOM      1  C   UNL     1      44.780   4.438  12.035  0.00  0.00    +0.000 C 
ENDROOT
BRANCH   1   2
ATOM      2  C   UNL     1      45.123   5.905  12.049  0.00  0.00    +0.000 A 
ATOM      3  C   UNL     1      44.298   6.811  11.377  0.00  0.00    +0.000 A 
ATOM      4  C   UNL     1      44.557   8.172  11.454  0.00  0.00    +0.000 A 
ATOM      5  C   UNL     1      45.644   8.637  12.194  0.00  0.00    +0.000 A 
ATOM      6  C   UNL     1      46.491   7.763  12.890  0.00  0.00    +0.000 A 
ATOM      7  C   UNL     1      46.211   6.385  12.800  0.00  0.00    +0.000 A 
BRANCH   6   8
ATOM      8  C   UNL     1      47.715   8.234  13.682  0.00  0.00    +0.000 C 
ATOM      9  C   UNL     1      48.426   9.451  13.066  0.00  0.00    +0.000 C 
ATOM     10  C   UNL     1      49.204   9.059  11.815  0.00  0.00    +0.000 C 
ATOM     11  C   UNL     1      50.168   7.900  12.069  0.00  0.00    +0.000 C 
ATOM     12  N   UNL     1      49.619   6.771  12.816  0.00  0.00    +0.000 NA
ATOM     13  C   UNL     1      48.800   7.165  13.971  0.00  0.00    +0.000 C 
ATOM     14  H   UNL     1      49.074   6.194  12.180  0.00  0.00    +0.000 HD
ENDBRANCH   6   8
ENDBRANCH   1   2
BRANCH   1  15
ATOM     15  C   UNL     1      43.546   4.208  11.162  0.00  0.00    +0.000 C 
BRANCH  15  16
ATOM     16  O   UNL     1      43.690   2.981  10.445  0.00  0.00    +0.000 OA
BRANCH  16  20
ATOM     17  C   UNL     1      46.389   2.742   7.362  0.00  0.00    +0.000 A 
ATOM     18  C   UNL     1      45.816   3.987   7.583  0.00  0.00    +0.000 A 
ATOM     19  C   UNL     1      44.890   4.115   8.619  0.00  0.00    +0.000 A 
ATOM     20  C   UNL     1      44.573   3.005   9.402  0.00  0.00    +0.000 A 
ATOM     21  C   UNL     1      45.208   1.804   9.102  0.00  0.00    +0.000 A 
ATOM     22  N   UNL     1      46.107   1.634   8.101  0.00  0.00    +0.000 NA
BRANCH  17  24
ATOM     23  N   UNL     1      48.578   2.024   6.615  0.00  0.00    +0.000 N 
ATOM     24  C   UNL     1      47.377   2.577   6.250  0.00  0.00    +0.000 C 
ATOM     25  O   UNL     1      47.140   2.903   5.098  0.00  0.00    +0.000 OA
ATOM     26  H   UNL     1      49.291   1.872   5.915  0.00  0.00    +0.000 HD
ATOM     27  H   UNL     1      48.728   1.754   7.579  0.00  0.00    +0.000 HD
ENDBRANCH  17  24
ENDBRANCH  16  20
ENDBRANCH  15  16
ENDBRANCH   1  15
TORSDOF 6
ENDMDL
MODEL 4
REMARK VINA RESULT:    -7.346      2.426      3.330
REMARK INTER + INTRA:         -10.916
REMARK INTER:                 -10.464
REMARK INTRA:                  -0.452
REMARK UNBOUND:                -0.993
REMARK  Name = 
REMARK  6 active torsions:
REMARK  status: ('A' for Active; 'I' for Inactive)
REMARK    1  A    between atoms: C_2  and  C_4
REMARK    2  A    between atoms: C_7  and  O_8
REMARK    3  A    between atoms: O_8  and  C_9
REMARK    4  A    between atoms: C_9  and  C_10
REMARK    5  A    between atoms: C_10  and  C_11
REMARK    6  A    between atoms: C_15  and  C_16
REMARK                            x       y       z     vdW  Elec       q    Type
REMARK                         _______ _______ _______ _____ _____    ______ ____
ROOT
ATOM      1  C   UNL     1      45.317   3.567  12.382  0.00  0.00    +0.000 C 
ENDROOT
BRANCH   1   2
ATOM      2  C   UNL     1      46.281   4.321  13.259  0.00  0.00    +0.000 A 
ATOM      3  C   UNL     1      46.922   5.459  12.760  0.00  0.00    +0.000 A 
ATOM      4  C   UNL     1      47.747   6.208  13.587  0.00  0.00    +0.000 A 
ATOM      5  C   UNL     1      47.944   5.824  14.913  0.00  0.00    +0.000 A 
ATOM      6  C   UNL     1      47.314   4.695  15.456  0.00  0.00    +0.000 A 
ATOM      7  C   UNL     1      46.480   3.948  14.601  0.00  0.00    +0.000 A 
BRANCH   6   8
ATOM      8  C   UNL     1      47.536   4.222  16.897  0.00  0.00    +0.000 C 
ATOM      9  C   UNL     1      48.386   5.183  17.744  0.00  0.00    +0.000 C 
ATOM     10  C   UNL     1      49.855   5.119  17.342  0.00  0.00    +0.000 C 
ATOM     11  C   UNL     1      50.404   3.692  17.369  0.00  0.00    +0.000 C 
ATOM     12  N   UNL     1      49.562   2.677  16.740  0.00  0.00    +0.000 NA
ATOM     13  C   UNL     1      48.135   2.802  17.069  0.00  0.00    +0.000 C 
ATOM     14  H   UNL     1      49.694   2.723  15.733  0.00  0.00    +0.000 HD
ENDBRANCH   6   8
ENDBRANCH   1   2
BRANCH   1  15
ATOM     15  C   UNL     1      44.579   4.548  11.470  0.00  0.00    +0.000 C 
BRANCH  15  16
ATOM     16  O   UNL     1      43.973   3.834  10.392  0.00  0.00    +0.000 OA
BRANCH  16  20
ATOM     17  C   UNL     1      46.603   2.738   7.437  0.00  0.00    +0.000 A 
ATOM     18  C   UNL     1      46.045   1.706   8.178  0.00  0.00    +0.000 A 
ATOM     19  C   UNL     1      45.147   2.031   9.195  0.00  0.00    +0.000 A 
ATOM     20  C   UNL     1      44.831   3.368   9.435  0.00  0.00    +0.000 A 
ATOM     21  C   UNL     1      45.441   4.327   8.632  0.00  0.00    +0.000 A 
ATOM     22  N   UNL     1      46.323   4.055   7.638  0.00  0.00    +0.000 NA
BRANCH  17  24
ATOM     23  N   UNL     1      47.390   3.103   5.176  0.00  0.00    +0.000 N 
ATOM     24  C   UNL     1      47.577   2.415   6.347  0.00  0.00    +0.000 C 
ATOM     25  O   UNL     1      48.479   1.604   6.482  0.00  0.00    +0.000 OA
ATOM     26  H   UNL     1      48.015   2.945   4.398  0.00  0.00    +0.000 HD
ATOM     27  H   UNL     1      46.638   3.779   5.111  0.00  0.00    +0.000 HD
ENDBRANCH  17  24
ENDBRANCH  16  20
ENDBRANCH  15  16
ENDBRANCH   1  15
TORSDOF 6
ENDMDL
MODEL 5
REMARK VINA RESULT:    -7.267      2.705      3.455
REMARK INTER + INTRA:         -10.809
REMARK INTER:                 -10.034
REMARK INTRA:                  -0.775
REMARK UNBOUND:                -0.993
REMARK  Name = 
REMARK  6 active torsions:
REMARK  status: ('A' for Active; 'I' for Inactive)
REMARK    1  A    between atoms: C_2  and  C_4
REMARK    2  A    between atoms: C_7  and  O_8
REMARK    3  A    between atoms: O_8  and  C_9
REMARK    4  A    between atoms: C_9  and  C_10
REMARK    5  A    between atoms: C_10  and  C_11
REMARK    6  A    between atoms: C_15  and  C_16
REMARK                            x       y       z     vdW  Elec       q    Type
REMARK                         _______ _______ _______ _____ _____    ______ ____
ROOT
ATOM      1  C   UNL     1      44.855   5.263  11.964  0.00  0.00    +0.000 C 
ENDROOT
BRANCH   1   2
ATOM      2  C   UNL     1      45.560   6.592  12.035  0.00  0.00    +0.000 A 
ATOM      3  C   UNL     1      46.957   6.632  12.023  0.00  0.00    +0.000 A 
ATOM      4  C   UNL     1      47.616   7.853  12.003  0.00  0.00    +0.000 A 
ATOM      5  C   UNL     1      46.886   9.041  12.003  0.00  0.00    +0.000 A 
ATOM      6  C   UNL     1      45.483   9.047  12.007  0.00  0.00    +0.000 A 
ATOM      7  C   UNL     1      44.834   7.797  12.027  0.00  0.00    +0.000 A 
BRANCH   6   8
ATOM      8  C   UNL     1      44.649  10.331  12.045  0.00  0.00    +0.000 C 
ATOM      9  C   UNL     1      43.406  10.295  11.141  0.00  0.00    +0.000 C 
ATOM     10  C   UNL     1      43.790  10.415   9.671  0.00  0.00    +0.000 C 
ATOM     11  C   UNL     1      44.663  11.640   9.396  0.00  0.00    +0.000 C 
ATOM     12  N   UNL     1      45.769  11.852  10.327  0.00  0.00    +0.000 NA
ATOM     13  C   UNL     1      45.404  11.650  11.737  0.00  0.00    +0.000 C 
ATOM     14  H   UNL     1      46.534  11.233  10.070  0.00  0.00    +0.000 HD
ENDBRANCH   6   8
ENDBRANCH   1   2
BRANCH   1  15
ATOM     15  C   UNL     1      43.933   5.237  10.745  0.00  0.00    +0.000 C 
BRANCH  15  16
ATOM     16  O   UNL     1      43.730   3.885  10.328  0.00  0.00    +0.000 OA
BRANCH  16  20
ATOM     17  C   UNL     1      46.496   2.726   7.525  0.00  0.00    +0.000 A 
ATOM     18  C   UNL     1      46.007   1.728   8.356  0.00  0.00    +0.000 A 
ATOM     19  C   UNL     1      45.067   2.076   9.326  0.00  0.00    +0.000 A 
ATOM     20  C   UNL     1      44.641   3.400   9.431  0.00  0.00    +0.000 A 
ATOM     21  C   UNL     1      45.188   4.324   8.546  0.00  0.00    +0.000 A 
ATOM     22  N   UNL     1      46.109   4.030   7.594  0.00  0.00    +0.000 NA
BRANCH  17  24
ATOM     23  N   UNL     1      47.506   3.184   5.372  0.00  0.00    +0.000 N 
ATOM     24  C   UNL     1      47.514   2.380   6.483  0.00  0.00    +0.000 C 
ATOM     25  O   UNL     1      48.301   1.455   6.606  0.00  0.00    +0.000 OA
ATOM     26  H   UNL     1      48.172   3.018   4.631  0.00  0.00    +0.000 HD
ATOM     27  H   UNL     1      46.847   3.951   5.318  0.00  0.00    +0.000 HD
ENDBRANCH  17  24
ENDBRANCH  16  20
ENDBRANCH  15  16
ENDBRANCH   1  15
TORSDOF 6
ENDMDL
MODEL 6
REMARK VINA RESULT:    -6.678      4.031      7.368
REMARK INTER + INTRA:         -10.014
REMARK INTER:                  -8.962
REMARK INTRA:                  -1.052
REMARK UNBOUND:                -0.993
REMARK  Name = 
REMARK  6 active torsions:
REMARK  status: ('A' for Active; 'I' for Inactive)
REMARK    1  A    between atoms: C_2  and  C_4
REMARK    2  A    between atoms: C_7  and  O_8
REMARK    3  A    between atoms: O_8  and  C_9
REMARK    4  A    between atoms: C_9  and  C_10
REMARK    5  A    between atoms: C_10  and  C_11
REMARK    6  A    between atoms: C_15  and  C_16
REMARK                            x       y       z     vdW  Elec       q    Type
REMARK                         _______ _______ _______ _____ _____    ______ ____
ROOT
ATOM      1  C   UNL     1      48.872   8.274  12.047  0.00  0.00    +0.000 C 
ENDROOT
BRANCH   1   2
ATOM      2  C   UNL     1      47.391   8.028  11.928  0.00  0.00    +0.000 A 
ATOM      3  C   UNL     1      46.498   9.083  12.136  0.00  0.00    +0.000 A 
ATOM      4  C   UNL     1      45.138   8.888  11.947  0.00  0.00    +0.000 A 
ATOM      5  C   UNL     1      44.658   7.638  11.557  0.00  0.00    +0.000 A 
ATOM      6  C   UNL     1      45.519   6.554  11.329  0.00  0.00    +0.000 A 
ATOM      7  C   UNL     1      46.897   6.773  11.527  0.00  0.00    +0.000 A 
BRANCH   6   8
ATOM      8  C   UNL     1      45.025   5.158  10.937  0.00  0.00    +0.000 C 
ATOM      9  C   UNL     1      43.506   5.075  10.710  0.00  0.00    +0.000 C 
ATOM     10  C   UNL     1      42.749   5.131  12.031  0.00  0.00    +0.000 C 
ATOM     11  C   UNL     1      43.238   4.080  13.028  0.00  0.00    +0.000 C 
ATOM     12  N   UNL     1      44.688   3.966  13.169  0.00  0.00    +0.000 NA
ATOM     13  C   UNL     1      45.413   3.999  11.891  0.00  0.00    +0.000 C 
ATOM     14  H   UNL     1      45.015   4.713  13.777  0.00  0.00    +0.000 HD
ENDBRANCH   6   8
ENDBRANCH   1   2
BRANCH   1  15
ATOM     15  C   UNL     1      49.483   7.265  13.020  0.00  0.00    +0.000 C 
BRANCH  15  16
ATOM     16  O   UNL     1      49.055   7.564  14.350  0.00  0.00    +0.000 OA
BRANCH  16  20
ATOM     17  C   UNL     1      47.901   4.466  16.784  0.00  0.00    +0.000 A 
ATOM     18  C   UNL     1      47.311   4.515  15.528  0.00  0.00    +0.000 A 
ATOM     19  C   UNL     1      47.671   5.552  14.667  0.00  0.00    +0.000 A 
ATOM     20  C   UNL     1      48.608   6.499  15.081  0.00  0.00    +0.000 A 
ATOM     21  C   UNL     1      49.144   6.358  16.358  0.00  0.00    +0.000 A 
ATOM     22  N   UNL     1      48.817   5.370  17.228  0.00  0.00    +0.000 NA
BRANCH  17  24
ATOM     23  N   UNL     1      48.368   3.204  18.797  0.00  0.00    +0.000 N 
ATOM     24  C   UNL     1      47.523   3.369  17.730  0.00  0.00    +0.000 C 
ATOM     25  O   UNL     1      46.535   2.670  17.574  0.00  0.00    +0.000 OA
ATOM     26  H   UNL     1      48.172   2.490  19.484  0.00  0.00    +0.000 HD
ATOM     27  H   UNL     1      49.168   3.817  18.897  0.00  0.00    +0.000 HD
ENDBRANCH  17  24
ENDBRANCH  16  20
ENDBRANCH  15  16
ENDBRANCH   1  15
TORSDOF 6
ENDMDL
MODEL 7
REMARK VINA RESULT:    -6.501      3.547      4.570
REMARK INTER + INTRA:          -9.775
REMARK INTER:                  -9.191
REMARK INTRA:                  -0.584
REMARK UNBOUND:                -0.993
REMARK  Name = 
REMARK  6 active torsions:
REMARK  status: ('A' for Active; 'I' for Inactive)
REMARK    1  A    between atoms: C_2  and  C_4
REMARK    2  A    between atoms: C_7  and  O_8
REMARK    3  A    between atoms: O_8  and  C_9
REMARK    4  A    between atoms: C_9  and  C_10
REMARK    5  A    between atoms: C_10  and  C_11
REMARK    6  A    between atoms: C_15  and  C_16
REMARK                            x       y       z     vdW  Elec       q    Type
REMARK                         _______ _______ _______ _____ _____    ______ ____
ROOT
ATOM      1  C   UNL     1      44.883   6.109  12.823  0.00  0.00    +0.000 C 
ENDROOT
BRANCH   1   2
ATOM      2  C   UNL     1      45.074   7.550  12.432  0.00  0.00    +0.000 A 
ATOM      3  C   UNL     1      46.203   8.242  12.882  0.00  0.00    +0.000 A 
ATOM      4  C   UNL     1      46.431   9.544  12.459  0.00  0.00    +0.000 A 
ATOM      5  C   UNL     1      45.533  10.167  11.593  0.00  0.00    +0.000 A 
ATOM      6  C   UNL     1      44.393   9.506  11.111  0.00  0.00    +0.000 A 
ATOM      7  C   UNL     1      44.179   8.185  11.552  0.00  0.00    +0.000 A 
BRANCH   6   8
ATOM      8  C   UNL     1      43.365  10.170  10.189  0.00  0.00    +0.000 C 
ATOM      9  C   UNL     1      43.544  11.691  10.051  0.00  0.00    +0.000 C 
ATOM     10  C   UNL     1      43.095  12.416  11.314  0.00  0.00    +0.000 C 
ATOM     11  C   UNL     1      41.671  12.041  11.725  0.00  0.00    +0.000 C 
ATOM     12  N   UNL     1      41.361  10.613  11.707  0.00  0.00    +0.000 NA
ATOM     13  C   UNL     1      41.874   9.910  10.522  0.00  0.00    +0.000 C 
ATOM     14  H   UNL     1      41.731  10.189  12.554  0.00  0.00    +0.000 HD
ENDBRANCH   6   8
ENDBRANCH   1   2
BRANCH   1  15
ATOM     15  C   UNL     1      45.584   5.205  11.808  0.00  0.00    +0.000 C 
BRANCH  15  16
ATOM     16  O   UNL     1      44.638   4.749  10.840  0.00  0.00    +0.000 OA
BRANCH  16  20
ATOM     17  C   UNL     1      46.298   2.890   7.579  0.00  0.00    +0.000 A 
ATOM     18  C   UNL     1      45.689   2.064   8.514  0.00  0.00    +0.000 A 
ATOM     19  C   UNL     1      45.113   2.652   9.641  0.00  0.00    +0.000 A 
ATOM     20  C   UNL     1      45.157   4.038   9.795  0.00  0.00    +0.000 A 
ATOM     21  C   UNL     1      45.786   4.776   8.797  0.00  0.00    +0.000 A 
ATOM     22  N   UNL     1      46.363   4.245   7.691  0.00  0.00    +0.000 NA
BRANCH  17  24
ATOM     23  N   UNL     1      47.138   3.146   5.322  0.00  0.00    +0.000 N 
ATOM     24  C   UNL     1      46.932   2.282   6.367  0.00  0.00    +0.000 C 
ATOM     25  O   UNL     1      47.251   1.105   6.304  0.00  0.00    +0.000 OA
ATOM     26  H   UNL     1      47.571   2.810   4.474  0.00  0.00    +0.000 HD
ATOM     27  H   UNL     1      46.872   4.118   5.422  0.00  0.00    +0.000 HD
ENDBRANCH  17  24
ENDBRANCH  16  20
ENDBRANCH  15  16
ENDBRANCH   1  15
TORSDOF 6
ENDMDL
MODEL 8
REMARK VINA RESULT:    -6.434      3.742      6.325
REMARK INTER + INTRA:          -9.684
REMARK INTER:                  -8.999
REMARK INTRA:                  -0.685
REMARK UNBOUND:                -0.993
REMARK  Name = 
REMARK  6 active torsions:
REMARK  status: ('A' for Active; 'I' for Inactive)
REMARK    1  A    between atoms: C_2  and  C_4
REMARK    2  A    between atoms: C_7  and  O_8
REMARK    3  A    between atoms: O_8  and  C_9
REMARK    4  A    between atoms: C_9  and  C_10
REMARK    5  A    between atoms: C_10  and  C_11
REMARK    6  A    between atoms: C_15  and  C_16
REMARK                            x       y       z     vdW  Elec       q    Type
REMARK                         _______ _______ _______ _____ _____    ______ ____
ROOT
ATOM      1  C   UNL     1      48.699   8.037  15.051  0.00  0.00    +0.000 C 
ENDROOT
BRANCH   1   2
ATOM      2  C   UNL     1      49.682   7.142  15.759  0.00  0.00    +0.000 A 
ATOM      3  C   UNL     1      51.053   7.333  15.562  0.00  0.00    +0.000 A 
ATOM      4  C   UNL     1      51.968   6.570  16.273  0.00  0.00    +0.000 A 
ATOM      5  C   UNL     1      51.523   5.607  17.178  0.00  0.00    +0.000 A 
ATOM      6  C   UNL     1      50.157   5.389  17.412  0.00  0.00    +0.000 A 
ATOM      7  C   UNL     1      49.244   6.174  16.681  0.00  0.00    +0.000 A 
BRANCH   6   8
ATOM      8  C   UNL     1      49.631   4.316  18.371  0.00  0.00    +0.000 C 
ATOM      9  C   UNL     1      49.624   2.898  17.775  0.00  0.00    +0.000 C 
ATOM     10  C   UNL     1      48.508   2.736  16.750  0.00  0.00    +0.000 C 
ATOM     11  C   UNL     1      47.141   3.129  17.311  0.00  0.00    +0.000 C 
ATOM     12  N   UNL     1      47.099   4.385  18.055  0.00  0.00    +0.000 NA
ATOM     13  C   UNL     1      48.227   4.566  18.979  0.00  0.00    +0.000 C 
ATOM     14  H   UNL     1      47.062   5.156  17.392  0.00  0.00    +0.000 HD
ENDBRANCH   6   8
ENDBRANCH   1   2
BRANCH   1  15
ATOM     15  C   UNL     1      48.604   7.632  13.580  0.00  0.00    +0.000 C 
BRANCH  15  16
ATOM     16  O   UNL     1      48.572   6.208  13.478  0.00  0.00    +0.000 OA
BRANCH  16  20
ATOM     17  C   UNL     1      45.042   4.384  12.445  0.00  0.00    +0.000 A 
ATOM     18  C   UNL     1      45.418   5.478  11.677  0.00  0.00    +0.000 A 
ATOM     19  C   UNL     1      46.609   6.131  11.993  0.00  0.00    +0.000 A 
ATOM     20  C   UNL     1      47.388   5.671  13.055  0.00  0.00    +0.000 A 
ATOM     21  C   UNL     1      46.926   4.563  13.759  0.00  0.00    +0.000 A 
ATOM     22  N   UNL     1      45.772   3.904  13.490  0.00  0.00    +0.000 NA
BRANCH  17  24
ATOM     23  N   UNL     1      43.732   2.348  12.484  0.00  0.00    +0.000 N 
ATOM     24  C   UNL     1      43.763   3.673  12.133  0.00  0.00    +0.000 C 
ATOM     25  O   UNL     1      42.809   4.224  11.608  0.00  0.00    +0.000 OA
ATOM     26  H   UNL     1      42.898   1.805  12.314  0.00  0.00    +0.000 HD
ATOM     27  H   UNL     1      44.541   1.934  12.932  0.00  0.00    +0.000 HD
ENDBRANCH  17  24
ENDBRANCH  16  20
ENDBRANCH  15  16
ENDBRANCH   1  15
TORSDOF 6
ENDMDL
MODEL 9
REMARK VINA RESULT:    -6.332      3.167      5.621
REMARK INTER + INTRA:          -9.547
REMARK INTER:                  -8.390
REMARK INTRA:                  -1.157
REMARK UNBOUND:                -0.993
REMARK  Name = 
REMARK  6 active torsions:
REMARK  status: ('A' for Active; 'I' for Inactive)
REMARK    1  A    between atoms: C_2  and  C_4
REMARK    2  A    between atoms: C_7  and  O_8
REMARK    3  A    between atoms: O_8  and  C_9
REMARK    4  A    between atoms: C_9  and  C_10
REMARK    5  A    between atoms: C_10  and  C_11
REMARK    6  A    between atoms: C_15  and  C_16
REMARK                            x       y       z     vdW  Elec       q    Type
REMARK                         _______ _______ _______ _____ _____    ______ ____
ROOT
ATOM      1  C   UNL     1      49.057   7.921  13.407  0.00  0.00    +0.000 C 
ENDROOT
BRANCH   1   2
ATOM      2  C   UNL     1      49.594   7.285  14.662  0.00  0.00    +0.000 A 
ATOM      3  C   UNL     1      50.880   7.610  15.102  0.00  0.00    +0.000 A 
ATOM      4  C   UNL     1      51.353   7.095  16.301  0.00  0.00    +0.000 A 
ATOM      5  C   UNL     1      50.550   6.246  17.063  0.00  0.00    +0.000 A 
ATOM      6  C   UNL     1      49.250   5.902  16.662  0.00  0.00    +0.000 A 
ATOM      7  C   UNL     1      48.789   6.436  15.442  0.00  0.00    +0.000 A 
BRANCH   6   8
ATOM      8  C   UNL     1      48.354   4.944  17.454  0.00  0.00    +0.000 C 
ATOM      9  C   UNL     1      49.130   3.894  18.267  0.00  0.00    +0.000 C 
ATOM     10  C   UNL     1      49.720   2.822  17.359  0.00  0.00    +0.000 C 
ATOM     11  C   UNL     1      48.668   2.183  16.451  0.00  0.00    +0.000 C 
ATOM     12  N   UNL     1      47.764   3.112  15.777  0.00  0.00    +0.000 NA
ATOM     13  C   UNL     1      47.268   4.191  16.644  0.00  0.00    +0.000 C 
ATOM     14  H   UNL     1      48.242   3.504  14.969  0.00  0.00    +0.000 HD
ENDBRANCH   6   8
ENDBRANCH   1   2
BRANCH   1  15
ATOM     15  C   UNL     1      47.531   7.993  13.481  0.00  0.00    +0.000 C 
BRANCH  15  16
ATOM     16  O   UNL     1      46.974   7.657  12.210  0.00  0.00    +0.000 OA
BRANCH  16  20
ATOM     17  C   UNL     1      44.822   4.190  11.759  0.00  0.00    +0.000 A 
ATOM     18  C   UNL     1      45.206   4.513  13.054  0.00  0.00    +0.000 A 
ATOM     19  C   UNL     1      45.941   5.681  13.255  0.00  0.00    +0.000 A 
ATOM     20  C   UNL     1      46.263   6.490  12.165  0.00  0.00    +0.000 A 
ATOM     21  C   UNL     1      45.827   6.081  10.909  0.00  0.00    +0.000 A 
ATOM     22  N   UNL     1      45.117   4.950  10.668  0.00  0.00    +0.000 NA
BRANCH  17  24
ATOM     23  N   UNL     1      44.275   2.330  10.309  0.00  0.00    +0.000 N 
ATOM     24  C   UNL     1      44.042   2.936  11.516  0.00  0.00    +0.000 C 
ATOM     25  O   UNL     1      43.256   2.476  12.329  0.00  0.00    +0.000 OA
ATOM     26  H   UNL     1      43.792   1.473  10.078  0.00  0.00    +0.000 HD
ATOM     27  H   UNL     1      44.947   2.737   9.670  0.00  0.00    +0.000 HD
ENDBRANCH  17  24
ENDBRANCH  16  20
ENDBRANCH  15  16
ENDBRANCH   1  15
TORSDOF 6
ENDMDL
