MODEL 1
REMARK VINA RESULT:    -7.987      0.000      0.000
REMARK INTER + INTRA:         -11.967
REMARK INTER:                 -11.256
REMARK INTRA:                  -0.711
REMARK UNBOUND:                -0.711
REMARK  Name = 
REMARK  7 active torsions:
REMARK  status: ('A' for Active; 'I' for Inactive)
REMARK    1  A    between atoms: C_2  and  C_3
REMARK    2  A    between atoms: C_3  and  C_4
REMARK    3  A    between atoms: C_4  and  C_5
REMARK    4  A    between atoms: C_8  and  C_9
REMARK    5  A    between atoms: C_9  and  O_10
REMARK    6  A    between atoms: O_10  and  C_11
REMARK    7  A    between atoms: C_11  and  C_12
REMARK                            x       y       z     vdW  Elec       q    Type
REMARK                         _______ _______ _______ _____ _____    ______ ____
ROOT
ATOM      1  C   UNL     1      48.542   6.463  13.771  0.00  0.00    +0.000 C 
ENDROOT
BRANCH   1   2
ATOM      2  C   UNL     1      47.311   6.023  13.026  0.00  0.00    +0.000 A 
ATOM      3  C   UNL     1      46.435   5.086  13.586  0.00  0.00    +0.000 A 
ATOM      4  C   UNL     1      45.289   4.701  12.898  0.00  0.00    +0.000 A 
ATOM      5  C   UNL     1      44.989   5.264  11.650  0.00  0.00    +0.000 A 
ATOM      6  C   UNL     1      45.864   6.201  11.090  0.00  0.00    +0.000 A 
ATOM      7  C   UNL     1      47.017   6.577  11.775  0.00  0.00    +0.000 A 
BRANCH   5   8
ATOM      8  C   UNL     1      43.697   4.917  10.959  0.00  0.00    +0.000 C 
BRANCH   8   9
ATOM      9  O   UNL     1      43.943   4.330   9.681  0.00  0.00    +0.000 OA
BRANCH   9  10
ATOM     10  C   UNL     1      44.402   2.977   9.781  0.00  0.00    +0.000 C 
BRANCH  10  11
ATOM     11  C   UNL     1      45.401   2.694   8.688  0.00  0.00    +0.000 A 
ATOM     12  C   UNL     1      45.832   3.727   7.854  0.00  0.00    +0.000 A 
ATOM     13  C   UNL     1      46.774   3.448   6.870  0.00  0.00    +0.000 A 
ATOM     14  C   UNL     1      47.261   2.153   6.745  0.00  0.00    +0.000 A 
ATOM     15  C   UNL     1      46.787   1.188   7.618  0.00  0.00    +0.000 A 
ATOM     16  N   UNL     1      45.878   1.428   8.584  0.00  0.00    +0.000 NA
ENDBRANCH  10  11
ENDBRANCH   9  10
ENDBRANCH   8   9
ENDBRANCH   5   8
ENDBRANCH   1   2
BRANCH   1  17
ATOM     17  C   UNL     1      48.216   7.050  15.146  0.00  0.00    +0.000 C 
BRANCH  17  19
ATOM     18  O   UNL     1      48.724   4.860  15.918  0.00  0.00    +0.000 OA
ATOM     19  C   UNL     1      48.513   6.028  16.226  0.00  0.00    +0.000 C 
ATOM     20  N   UNL     1      48.481   6.504  17.523  0.00  0.00    +0.000 N 
ATOM     21  C   UNL     1      48.192   7.897  17.914  0.00  0.00    +0.000 C 
ATOM     22  C   UNL     1      48.078   7.894  19.441  0.00  0.00    +0.000 C 
ATOM     23  C   UNL     1      48.368   6.467  19.774  0.00  0.00    +0.000 A 
ATOM     24  N   UNL     1      48.334   6.009  21.062  0.00  0.00    +0.000 NA
ATOM     25  C   UNL     1      48.506   4.737  21.193  0.00  0.00    +0.000 A 
ATOM     26  N   UNL     1      48.740   3.879  20.154  0.00  0.00    +0.000 N 
ATOM     27  C   UNL     1      48.929   4.311  18.865  0.00  0.00    +0.000 A 
ATOM     28  O   UNL     1      49.393   3.544  18.033  0.00  0.00    +0.000 OA
ATOM     29  C   UNL     1      48.606   5.749  18.668  0.00  0.00    +0.000 A 
ATOM     30  H   UNL     1      48.959   2.909  20.317  0.00  0.00    +0.000 HD
ENDBRANCH  17  19
ENDBRANCH   1  17
TORSDOF 7
ENDMDL
MODEL 2
REMARK VINA RESULT:    -7.844      2.081      2.632
REMARK INTER + INTRA:         -11.764
REMARK INTER:                 -10.725
REMARK INTRA:                  -1.039
REMARK UNBOUND:                -0.711
REMARK  Name = 
REMARK  7 active torsions:
REMARK  status: ('A' for Active; 'I' for Inactive)
REMARK    1  A    between atoms: C_2  and  C_3
REMARK    2  A    between atoms: C_3  and  C_4
REMARK    3  A    between atoms: C_4  and  C_5
REMARK    4  A    between atoms: C_8  and  C_9
REMARK    5  A    between atoms: C_9  and  O_10
REMARK    6  A    between atoms: O_10  and  C_11
REMARK    7  A    between atoms: C_11  and  C_12
REMARK                            x       y       z     vdW  Elec       q    Type
REMARK                         _______ _______ _______ _____ _____    ______ ____
ROOT
ATOM      1  C   UNL     1      48.431   6.775  12.905  0.00  0.00    +0.000 C 
ENDROOT
BRANCH   1   2
ATOM      2  C   UNL     1      47.160   6.084  12.492  0.00  0.00    +0.000 A 
ATOM      3  C   UNL     1      46.510   6.435  11.304  0.00  0.00    +0.000 A 
ATOM      4  C   UNL     1      45.346   5.776  10.921  0.00  0.00    +0.000 A 
ATOM      5  C   UNL     1      44.827   4.739  11.708  0.00  0.00    +0.000 A 
ATOM      6  C   UNL     1      45.477   4.387  12.896  0.00  0.00    +0.000 A 
ATOM      7  C   UNL     1      46.636   5.055  13.284  0.00  0.00    +0.000 A 
BRANCH   5   8
ATOM      8  C   UNL     1      43.625   3.965  11.236  0.00  0.00    +0.000 C 
BRANCH   8   9
ATOM      9  O   UNL     1      43.779   3.563   9.876  0.00  0.00    +0.000 OA
BRANCH   9  10
ATOM     10  C   UNL     1      44.401   2.279   9.752  0.00  0.00    +0.000 C 
BRANCH  10  11
ATOM     11  C   UNL     1      45.399   2.301   8.622  0.00  0.00    +0.000 A 
ATOM     12  C   UNL     1      45.620   3.480   7.911  0.00  0.00    +0.000 A 
ATOM     13  C   UNL     1      46.563   3.483   6.889  0.00  0.00    +0.000 A 
ATOM     14  C   UNL     1      47.260   2.315   6.607  0.00  0.00    +0.000 A 
ATOM     15  C   UNL     1      46.987   1.189   7.365  0.00  0.00    +0.000 A 
ATOM     16  N   UNL     1      46.081   1.156   8.364  0.00  0.00    +0.000 NA
ENDBRANCH  10  11
ENDBRANCH   9  10
ENDBRANCH   8   9
ENDBRANCH   5   8
ENDBRANCH   1   2
BRANCH   1  17
ATOM     17  C   UNL     1      48.330   7.405  14.295  0.00  0.00    +0.000 C 
BRANCH  17  19
ATOM     18  O   UNL     1      50.640   7.775  14.712  0.00  0.00    +0.000 OA
ATOM     19  C   UNL     1      49.622   7.184  15.056  0.00  0.00    +0.000 C 
ATOM     20  N   UNL     1      49.558   6.269  16.089  0.00  0.00    +0.000 N 
ATOM     21  C   UNL     1      48.353   5.519  16.492  0.00  0.00    +0.000 C 
ATOM     22  C   UNL     1      48.817   4.500  17.537  0.00  0.00    +0.000 C 
ATOM     23  C   UNL     1      50.272   4.814  17.658  0.00  0.00    +0.000 A 
ATOM     24  N   UNL     1      51.096   4.097  18.480  0.00  0.00    +0.000 NA
ATOM     25  C   UNL     1      52.345   4.414  18.410  0.00  0.00    +0.000 A 
ATOM     26  N   UNL     1      52.846   5.405  17.613  0.00  0.00    +0.000 N 
ATOM     27  C   UNL     1      52.044   6.247  16.884  0.00  0.00    +0.000 A 
ATOM     28  O   UNL     1      52.517   7.268  16.407  0.00  0.00    +0.000 OA
ATOM     29  C   UNL     1      50.620   5.822  16.845  0.00  0.00    +0.000 A 
ATOM     30  H   UNL     1      53.817   5.674  17.663  0.00  0.00    +0.000 HD
ENDBRANCH  17  19
ENDBRANCH   1  17
TORSDOF 7
ENDMDL
MODEL 3
REMARK VINA RESULT:    -7.827      1.264      1.682
REMARK INTER + INTRA:         -11.741
REMARK INTER:                 -10.979
REMARK INTRA:                  -0.762
REMARK UNBOUND:                -0.711
REMARK  Name = 
REMARK  7 active torsions:
REMARK  status: ('A' for Active; 'I' for Inactive)
REMARK    1  A    between atoms: C_2  and  C_3
REMARK    2  A    between atoms: C_3  and  C_4
REMARK    3  A    between atoms: C_4  and  C_5
REMARK    4  A    between atoms: C_8  and  C_9
REMARK    5  A    between atoms: C_9  and  O_10
REMARK    6  A    between atoms: O_10  and  C_11
REMARK    7  A    between atoms: C_11  and  C_12
REMARK                            x       y       z     vdW  Elec       q    Type
REMARK                         _______ _______ _______ _____ _____    ______ ____
ROOT
ATOM      1  C   UNL     1      46.936   8.110  13.368  0.00  0.00    +0.000 C 
ENDROOT
BRANCH   1   2
ATOM      2  C   UNL     1      46.144   7.104  12.579  0.00  0.00    +0.000 A 
ATOM      3  C   UNL     1      46.585   6.677  11.321  0.00  0.00    +0.000 A 
ATOM      4  C   UNL     1      45.855   5.731  10.608  0.00  0.00    +0.000 A 
ATOM      5  C   UNL     1      44.686   5.181  11.150  0.00  0.00    +0.000 A 
ATOM      6  C   UNL     1      44.245   5.607  12.407  0.00  0.00    +0.000 A 
ATOM      7  C   UNL     1      44.970   6.561  13.116  0.00  0.00    +0.000 A 
BRANCH   5   8
ATOM      8  C   UNL     1      43.959   4.086  10.416  0.00  0.00    +0.000 C 
BRANCH   8   9
ATOM      9  O   UNL     1      44.738   2.891  10.377  0.00  0.00    +0.000 OA
BRANCH   9  10
ATOM     10  C   UNL     1      44.447   2.086   9.229  0.00  0.00    +0.000 C 
BRANCH  10  11
ATOM     11  C   UNL     1      45.602   2.140   8.261  0.00  0.00    +0.000 A 
ATOM     12  C   UNL     1      45.890   3.326   7.586  0.00  0.00    +0.000 A 
ATOM     13  C   UNL     1      46.976   3.360   6.718  0.00  0.00    +0.000 A 
ATOM     14  C   UNL     1      47.744   2.215   6.549  0.00  0.00    +0.000 A 
ATOM     15  C   UNL     1      47.396   1.081   7.263  0.00  0.00    +0.000 A 
ATOM     16  N   UNL     1      46.352   1.018   8.115  0.00  0.00    +0.000 NA
ENDBRANCH  10  11
ENDBRANCH   9  10
ENDBRANCH   8   9
ENDBRANCH   5   8
ENDBRANCH   1   2
BRANCH   1  17
ATOM     17  C   UNL     1      48.381   7.665  13.600  0.00  0.00    +0.000 C 
BRANCH  17  19
ATOM     18  O   UNL     1      48.142   5.397  14.271  0.00  0.00    +0.000 OA
ATOM     19  C   UNL     1      48.418   6.541  14.617  0.00  0.00    +0.000 C 
ATOM     20  N   UNL     1      48.731   6.915  15.910  0.00  0.00    +0.000 N 
ATOM     21  C   UNL     1      49.028   8.290  16.352  0.00  0.00    +0.000 C 
ATOM     22  C   UNL     1      49.120   8.235  17.880  0.00  0.00    +0.000 C 
ATOM     23  C   UNL     1      48.904   6.782  18.154  0.00  0.00    +0.000 A 
ATOM     24  N   UNL     1      48.871   6.289  19.429  0.00  0.00    +0.000 NA
ATOM     25  C   UNL     1      48.578   5.036  19.521  0.00  0.00    +0.000 A 
ATOM     26  N   UNL     1      48.344   4.218  18.450  0.00  0.00    +0.000 N 
ATOM     27  C   UNL     1      48.510   4.630  17.152  0.00  0.00    +0.000 A 
ATOM     28  O   UNL     1      48.547   3.800  16.255  0.00  0.00    +0.000 OA
ATOM     29  C   UNL     1      48.717   6.097  17.017  0.00  0.00    +0.000 A 
ATOM     30  H   UNL     1      48.209   3.226  18.571  0.00  0.00    +0.000 HD
ENDBRANCH  17  19
ENDBRANCH   1  17
TORSDOF 7
ENDMDL
MODEL 4
REMARK VINA RESULT:    -7.774      1.370      2.085
REMARK INTER + INTRA:         -11.666
REMARK INTER:                 -10.883
REMARK INTRA:                  -0.783
REMARK UNBOUND:                -0.711
REMARK  Name = 
REMARK  7 active torsions:
REMARK  status: ('A' for Active; 'I' for Inactive)
REMARK    1  A    between atoms: C_2  and  C_3
REMARK    2  A    between atoms: C_3  and  C_4
REMARK    3  A    between atoms: C_4  and  C_5
REMARK    4  A    between atoms: C_8  and  C_9
REMARK    5  A    between atoms: C_9  and  O_10
REMARK    6  A    between atoms: O_10  and  C_11
REMARK    7  A    between atoms: C_11  and  C_12
REMARK                            x       y       z     vdW  Elec       q    Type
REMARK                         _______ _______ _______ _____ _____    ______ ____
ROOT
ATOM      1  C   UNL     1      47.379   7.308  13.684  0.00  0.00    +0.000 C 
ENDROOT
BRANCH   1   2
ATOM      2  C   UNL     1      46.333   6.509  12.956  0.00  0.00    +0.000 A 
ATOM      3  C   UNL     1      45.899   6.895  11.683  0.00  0.00    +0.000 A 
ATOM      4  C   UNL     1      44.946   6.138  11.008  0.00  0.00    +0.000 A 
ATOM      5  C   UNL     1      44.429   4.971  11.587  0.00  0.00    +0.000 A 
ATOM      6  C   UNL     1      44.864   4.584  12.860  0.00  0.00    +0.000 A 
ATOM      7  C   UNL     1      45.810   5.348  13.538  0.00  0.00    +0.000 A 
BRANCH   5   8
ATOM      8  C   UNL     1      43.474   4.104  10.809  0.00  0.00    +0.000 C 
BRANCH   8   9
ATOM      9  O   UNL     1      44.024   3.749   9.542  0.00  0.00    +0.000 OA
BRANCH   9  10
ATOM     10  C   UNL     1      44.608   2.441   9.547  0.00  0.00    +0.000 C 
BRANCH  10  11
ATOM     11  C   UNL     1      45.600   2.320   8.417  0.00  0.00    +0.000 A 
ATOM     12  C   UNL     1      45.843   3.412   7.584  0.00  0.00    +0.000 A 
ATOM     13  C   UNL     1      46.781   3.285   6.565  0.00  0.00    +0.000 A 
ATOM     14  C   UNL     1      47.449   2.078   6.406  0.00  0.00    +0.000 A 
ATOM     15  C   UNL     1      47.155   1.045   7.280  0.00  0.00    +0.000 A 
ATOM     16  N   UNL     1      46.254   1.139   8.280  0.00  0.00    +0.000 NA
ENDBRANCH  10  11
ENDBRANCH   9  10
ENDBRANCH   8   9
ENDBRANCH   5   8
ENDBRANCH   1   2
BRANCH   1  17
ATOM     17  C   UNL     1      48.557   6.449  14.146  0.00  0.00    +0.000 C 
BRANCH  17  19
ATOM     18  O   UNL     1      49.488   7.766  15.891  0.00  0.00    +0.000 OA
ATOM     19  C   UNL     1      48.874   6.746  15.599  0.00  0.00    +0.000 C 
ATOM     20  N   UNL     1      48.467   5.788  16.507  0.00  0.00    +0.000 N 
ATOM     21  C   UNL     1      47.762   4.536  16.170  0.00  0.00    +0.000 C 
ATOM     22  C   UNL     1      47.700   3.722  17.465  0.00  0.00    +0.000 C 
ATOM     23  C   UNL     1      48.356   4.640  18.445  0.00  0.00    +0.000 A 
ATOM     24  N   UNL     1      48.547   4.280  19.750  0.00  0.00    +0.000 NA
ATOM     25  C   UNL     1      49.213   5.129  20.457  0.00  0.00    +0.000 A 
ATOM     26  N   UNL     1      49.683   6.324  19.987  0.00  0.00    +0.000 N 
ATOM     27  C   UNL     1      49.391   6.793  18.731  0.00  0.00    +0.000 A 
ATOM     28  O   UNL     1      49.607   7.965  18.460  0.00  0.00    +0.000 OA
ATOM     29  C   UNL     1      48.740   5.782  17.857  0.00  0.00    +0.000 A 
ATOM     30  H   UNL     1      50.119   6.992  20.604  0.00  0.00    +0.000 HD
ENDBRANCH  17  19
ENDBRANCH   1  17
TORSDOF 7
ENDMDL
MODEL 5
REMARK VINA RESULT:    -7.715      4.346      6.327
REMARK INTER + INTRA:         -11.582
REMARK INTER:                 -10.985
REMARK INTRA:                  -0.597
REMARK UNBOUND:                -0.711
REMARK  Name = 
REMARK  7 active torsions:
REMARK  status: ('A' for Active; 'I' for Inactive)
REMARK    1  A    between atoms: C_2  and  C_3
REMARK    2  A    between atoms: C_3  and  C_4
REMARK    3  A    between atoms: C_4  and  C_5
REMARK    4  A    between atoms: C_8  and  C_9
REMARK    5  A    between atoms: C_9  and  O_10
REMARK    6  A    between atoms: O_10  and  C_11
REMARK    7  A    between atoms: C_11  and  C_12
REMARK                            x       y       z     vdW  Elec       q    Type
REMARK                         _______ _______ _______ _____ _____    ______ ____
ROOT
ATOM      1  C   UNL     1      48.302   6.877  13.042  0.00  0.00    +0.000 C 
ENDROOT
BRANCH   1   2
ATOM      2  C   UNL     1      47.121   6.114  12.508  0.00  0.00    +0.000 A 
ATOM      3  C   UNL     1      46.488   5.140  13.290  0.00  0.00    +0.000 A 
ATOM      4  C   UNL     1      45.384   4.454  12.795  0.00  0.00    +0.000 A 
ATOM      5  C   UNL     1      44.882   4.746  11.520  0.00  0.00    +0.000 A 
ATOM      6  C   UNL     1      45.514   5.719  10.738  0.00  0.00    +0.000 A 
ATOM      7  C   UNL     1      46.625   6.398  11.231  0.00  0.00    +0.000 A 
BRANCH   5   8
ATOM      8  C   UNL     1      43.628   4.070  11.032  0.00  0.00    +0.000 C 
BRANCH   8   9
ATOM      9  O   UNL     1      43.804   3.559   9.711  0.00  0.00    +0.000 OA
BRANCH   9  10
ATOM     10  C   UNL     1      44.494   2.304   9.698  0.00  0.00    +0.000 C 
BRANCH  10  11
ATOM     11  C   UNL     1      45.480   2.275   8.558  0.00  0.00    +0.000 A 
ATOM     12  C   UNL     1      45.708   3.427   7.804  0.00  0.00    +0.000 A 
ATOM     13  C   UNL     1      46.640   3.383   6.774  0.00  0.00    +0.000 A 
ATOM     14  C   UNL     1      47.321   2.198   6.525  0.00  0.00    +0.000 A 
ATOM     15  C   UNL     1      47.042   1.102   7.324  0.00  0.00    +0.000 A 
ATOM     16  N   UNL     1      46.147   1.114   8.333  0.00  0.00    +0.000 NA
ENDBRANCH  10  11
ENDBRANCH   9  10
ENDBRANCH   8   9
ENDBRANCH   5   8
ENDBRANCH   1   2
BRANCH   1  17
ATOM     17  C   UNL     1      47.889   8.029  13.960  0.00  0.00    +0.000 C 
BRANCH  17  19
ATOM     18  O   UNL     1      45.690   8.729  13.389  0.00  0.00    +0.000 OA
ATOM     19  C   UNL     1      46.893   8.924  13.248  0.00  0.00    +0.000 C 
ATOM     20  N   UNL     1      47.440   9.896  12.433  0.00  0.00    +0.000 N 
ATOM     21  C   UNL     1      48.882  10.120  12.221  0.00  0.00    +0.000 C 
ATOM     22  C   UNL     1      48.991  11.161  11.103  0.00  0.00    +0.000 C 
ATOM     23  C   UNL     1      47.556  11.465  10.818  0.00  0.00    +0.000 A 
ATOM     24  N   UNL     1      47.189  12.342   9.835  0.00  0.00    +0.000 NA
ATOM     25  C   UNL     1      45.918  12.433   9.632  0.00  0.00    +0.000 A 
ATOM     26  N   UNL     1      44.973  11.748  10.345  0.00  0.00    +0.000 N 
ATOM     27  C   UNL     1      45.283  10.973  11.434  0.00  0.00    +0.000 A 
ATOM     28  O   UNL     1      44.392  10.604  12.185  0.00  0.00    +0.000 OA
ATOM     29  C   UNL     1      46.743  10.747  11.605  0.00  0.00    +0.000 A 
ATOM     30  H   UNL     1      43.989  11.924  10.209  0.00  0.00    +0.000 HD
ENDBRANCH  17  19
ENDBRANCH   1  17
TORSDOF 7
ENDMDL
MODEL 6
REMARK VINA RESULT:    -7.663      2.351      3.323
REMARK INTER + INTRA:         -11.510
REMARK INTER:                 -10.892
REMARK INTRA:                  -0.617
REMARK UNBOUND:                -0.711
REMARK  Name = 
REMARK  7 active torsions:
REMARK  status: ('A' for Active; 'I' for Inactive)
REMARK    1  A    between atoms: C_2  and  C_3
REMARK    2  A    between atoms: C_3  and  C_4
REMARK    3  A    between atoms: C_4  and  C_5
REMARK    4  A    between atoms: C_8  and  C_9
REMARK    5  A    between atoms: C_9  and  O_10
REMARK    6  A    between atoms: O_10  and  C_11
REMARK    7  A    between atoms: C_11  and  C_12
REMARK                            x       y       z     vdW  Elec       q    Type
REMARK                         _______ _______ _______ _____ _____    ______ ____
ROOT
ATOM      1  C   UNL     1      48.809   6.801  15.010  0.00  0.00    +0.000 C 
ENDROOT
BRANCH   1   2
ATOM      2  C   UNL     1      47.769   6.250  14.073  0.00  0.00    +0.000 A 
ATOM      3  C   UNL     1      47.540   6.851  12.830  0.00  0.00    +0.000 A 
ATOM      4  C   UNL     1      46.590   6.322  11.962  0.00  0.00    +0.000 A 
ATOM      5  C   UNL     1      45.871   5.172  12.313  0.00  0.00    +0.000 A 
ATOM      6  C   UNL     1      46.100   4.571  13.556  0.00  0.00    +0.000 A 
ATOM      7  C   UNL     1      47.043   5.107  14.428  0.00  0.00    +0.000 A 
BRANCH   5   8
ATOM      8  C   UNL     1      44.918   4.549  11.328  0.00  0.00    +0.000 C 
BRANCH   8   9
ATOM      9  O   UNL     1      45.148   5.047  10.011  0.00  0.00    +0.000 OA
BRANCH   9  10
ATOM     10  C   UNL     1      44.489   4.265   9.008  0.00  0.00    +0.000 C 
BRANCH  10  11
ATOM     11  C   UNL     1      45.491   3.379   8.311  0.00  0.00    +0.000 A 
ATOM     12  C   UNL     1      45.566   2.024   8.633  0.00  0.00    +0.000 A 
ATOM     13  C   UNL     1      46.480   1.222   7.960  0.00  0.00    +0.000 A 
ATOM     14  C   UNL     1      47.289   1.789   6.983  0.00  0.00    +0.000 A 
ATOM     15  C   UNL     1      47.146   3.140   6.717  0.00  0.00    +0.000 A 
ATOM     16  N   UNL     1      46.267   3.943   7.351  0.00  0.00    +0.000 NA
ENDBRANCH  10  11
ENDBRANCH   9  10
ENDBRANCH   8   9
ENDBRANCH   5   8
ENDBRANCH   1   2
BRANCH   1  17
ATOM     17  C   UNL     1      48.598   6.341  16.454  0.00  0.00    +0.000 C 
BRANCH  17  19
ATOM     18  O   UNL     1      50.857   6.301  17.194  0.00  0.00    +0.000 OA
ATOM     19  C   UNL     1      49.847   5.645  16.961  0.00  0.00    +0.000 C 
ATOM     20  N   UNL     1      49.756   4.273  17.086  0.00  0.00    +0.000 N 
ATOM     21  C   UNL     1      48.562   3.464  16.774  0.00  0.00    +0.000 C 
ATOM     22  C   UNL     1      49.001   2.001  16.880  0.00  0.00    +0.000 C 
ATOM     23  C   UNL     1      50.430   2.131  17.297  0.00  0.00    +0.000 A 
ATOM     24  N   UNL     1      51.230   1.036  17.474  0.00  0.00    +0.000 NA
ATOM     25  C   UNL     1      52.465   1.301  17.737  0.00  0.00    +0.000 A 
ATOM     26  N   UNL     1      52.972   2.564  17.871  0.00  0.00    +0.000 N 
ATOM     27  C   UNL     1      52.182   3.686  17.848  0.00  0.00    +0.000 A 
ATOM     28  O   UNL     1      52.638   4.752  18.233  0.00  0.00    +0.000 OA
ATOM     29  C   UNL     1      50.784   3.418  17.417  0.00  0.00    +0.000 A 
ATOM     30  H   UNL     1      53.924   2.715  18.167  0.00  0.00    +0.000 HD
ENDBRANCH  17  19
ENDBRANCH   1  17
TORSDOF 7
ENDMDL
MODEL 7
REMARK VINA RESULT:    -7.574      1.929      2.284
REMARK INTER + INTRA:         -11.384
REMARK INTER:                 -10.601
REMARK INTRA:                  -0.784
REMARK UNBOUND:                -0.711
REMARK  Name = 
REMARK  7 active torsions:
REMARK  status: ('A' for Active; 'I' for Inactive)
REMARK    1  A    between atoms: C_2  and  C_3
REMARK    2  A    between atoms: C_3  and  C_4
REMARK    3  A    between atoms: C_4  and  C_5
REMARK    4  A    between atoms: C_8  and  C_9
REMARK    5  A    between atoms: C_9  and  O_10
REMARK    6  A    between atoms: O_10  and  C_11
REMARK    7  A    between atoms: C_11  and  C_12
REMARK                            x       y       z     vdW  Elec       q    Type
REMARK                         _______ _______ _______ _____ _____    ______ ____
ROOT
ATOM      1  C   UNL     1      48.292   6.590  13.568  0.00  0.00    +0.000 C 
ENDROOT
BRANCH   1   2
ATOM      2  C   UNL     1      47.039   6.176  12.847  0.00  0.00    +0.000 A 
ATOM      3  C   UNL     1      46.783   6.624  11.546  0.00  0.00    +0.000 A 
ATOM      4  C   UNL     1      45.631   6.218  10.880  0.00  0.00    +0.000 A 
ATOM      5  C   UNL     1      44.728   5.341  11.495  0.00  0.00    +0.000 A 
ATOM      6  C   UNL     1      44.983   4.893  12.796  0.00  0.00    +0.000 A 
ATOM      7  C   UNL     1      46.132   5.308  13.465  0.00  0.00    +0.000 A 
BRANCH   5   8
ATOM      8  C   UNL     1      43.536   4.829  10.731  0.00  0.00    +0.000 C 
BRANCH   8   9
ATOM      9  O   UNL     1      43.924   4.338   9.449  0.00  0.00    +0.000 OA
BRANCH   9  10
ATOM     10  C   UNL     1      44.398   2.987   9.501  0.00  0.00    +0.000 C 
BRANCH  10  11
ATOM     11  C   UNL     1      45.460   2.777   8.452  0.00  0.00    +0.000 A 
ATOM     12  C   UNL     1      46.063   1.527   8.311  0.00  0.00    +0.000 A 
ATOM     13  C   UNL     1      47.021   1.350   7.319  0.00  0.00    +0.000 A 
ATOM     14  C   UNL     1      47.349   2.419   6.496  0.00  0.00    +0.000 A 
ATOM     15  C   UNL     1      46.699   3.625   6.696  0.00  0.00    +0.000 A 
ATOM     16  N   UNL     1      45.763   3.827   7.646  0.00  0.00    +0.000 NA
ENDBRANCH  10  11
ENDBRANCH   9  10
ENDBRANCH   8   9
ENDBRANCH   5   8
ENDBRANCH   1   2
BRANCH   1  17
ATOM     17  C   UNL     1      48.070   6.775  15.070  0.00  0.00    +0.000 C 
BRANCH  17  19
ATOM     18  O   UNL     1      48.426   4.559  15.852  0.00  0.00    +0.000 OA
ATOM     19  C   UNL     1      48.835   5.715  15.839  0.00  0.00    +0.000 C 
ATOM     20  N   UNL     1      49.949   6.161  16.522  0.00  0.00    +0.000 N 
ATOM     21  C   UNL     1      50.434   7.554  16.550  0.00  0.00    +0.000 C 
ATOM     22  C   UNL     1      51.565   7.590  17.581  0.00  0.00    +0.000 C 
ATOM     23  C   UNL     1      51.640   6.163  18.015  0.00  0.00    +0.000 A 
ATOM     24  N   UNL     1      52.517   5.750  18.979  0.00  0.00    +0.000 NA
ATOM     25  C   UNL     1      52.404   4.512  19.324  0.00  0.00    +0.000 A 
ATOM     26  N   UNL     1      51.512   3.635  18.771  0.00  0.00    +0.000 N 
ATOM     27  C   UNL     1      50.717   3.963  17.702  0.00  0.00    +0.000 A 
ATOM     28  O   UNL     1      50.141   3.078  17.085  0.00  0.00    +0.000 OA
ATOM     29  C   UNL     1      50.732   5.413  17.374  0.00  0.00    +0.000 A 
ATOM     30  H   UNL     1      51.527   2.655  19.011  0.00  0.00    +0.000 HD
ENDBRANCH  17  19
ENDBRANCH   1  17
TORSDOF 7
ENDMDL
MODEL 8
REMARK VINA RESULT:    -7.289      1.628      2.030
REMARK INTER + INTRA:         -10.983
REMARK INTER:                 -10.190
REMARK INTRA:                  -0.793
REMARK UNBOUND:                -0.711
REMARK  Name = 
REMARK  7 active torsions:
REMARK  status: ('A' for Active; 'I' for Inactive)
REMARK    1  A    between atoms: C_2  and  C_3
REMARK    2  A    between atoms: C_3  and  C_4
REMARK    3  A    between atoms: C_4  and  C_5
REMARK    4  A    between atoms: C_8  and  C_9
REMARK    5  A    between atoms: C_9  and  O_10
REMARK    6  A    between atoms: O_10  and  C_11
REMARK    7  A    between atoms: C_11  and  C_12
REMARK                            x       y       z     vdW  Elec       q    Type
REMARK                         _______ _______ _______ _____ _____    ______ ____
ROOT
ATOM      1  C   UNL     1      49.118   8.940  13.425  0.00  0.00    +0.000 C 
ENDROOT
BRANCH   1   2
ATOM      2  C   UNL     1      47.895   8.264  12.869  0.00  0.00    +0.000 A 
ATOM      3  C   UNL     1      48.016   7.196  11.972  0.00  0.00    +0.000 A 
ATOM      4  C   UNL     1      46.879   6.564  11.479  0.00  0.00    +0.000 A 
ATOM      5  C   UNL     1      45.605   6.975  11.891  0.00  0.00    +0.000 A 
ATOM      6  C   UNL     1      45.483   8.043  12.787  0.00  0.00    +0.000 A 
ATOM      7  C   UNL     1      46.622   8.682  13.272  0.00  0.00    +0.000 A 
BRANCH   5   8
ATOM      8  C   UNL     1      44.385   6.222  11.430  0.00  0.00    +0.000 C 
BRANCH   8   9
ATOM      9  O   UNL     1      44.709   4.868  11.118  0.00  0.00    +0.000 OA
BRANCH   9  10
ATOM     10  C   UNL     1      44.030   4.399   9.947  0.00  0.00    +0.000 C 
BRANCH  10  11
ATOM     11  C   UNL     1      44.997   3.663   9.056  0.00  0.00    +0.000 A 
ATOM     12  C   UNL     1      45.143   2.281   9.177  0.00  0.00    +0.000 A 
ATOM     13  C   UNL     1      46.023   1.620   8.327  0.00  0.00    +0.000 A 
ATOM     14  C   UNL     1      46.728   2.352   7.380  0.00  0.00    +0.000 A 
ATOM     15  C   UNL     1      46.520   3.719   7.320  0.00  0.00    +0.000 A 
ATOM     16  N   UNL     1      45.672   4.388   8.127  0.00  0.00    +0.000 NA
ENDBRANCH  10  11
ENDBRANCH   9  10
ENDBRANCH   8   9
ENDBRANCH   5   8
ENDBRANCH   1   2
BRANCH   1  17
ATOM     17  C   UNL     1      49.038   9.142  14.939  0.00  0.00    +0.000 C 
BRANCH  17  19
ATOM     18  O   UNL     1      49.969   6.959  15.060  0.00  0.00    +0.000 OA
ATOM     19  C   UNL     1      49.356   7.842  15.651  0.00  0.00    +0.000 C 
ATOM     20  N   UNL     1      48.877   7.735  16.942  0.00  0.00    +0.000 N 
ATOM     21  C   UNL     1      48.105   8.770  17.655  0.00  0.00    +0.000 C 
ATOM     22  C   UNL     1      47.637   8.126  18.962  0.00  0.00    +0.000 C 
ATOM     23  C   UNL     1      48.246   6.764  18.877  0.00  0.00    +0.000 A 
ATOM     24  N   UNL     1      48.043   5.824  19.849  0.00  0.00    +0.000 NA
ATOM     25  C   UNL     1      48.546   4.663  19.597  0.00  0.00    +0.000 A 
ATOM     26  N   UNL     1      49.264   4.360  18.473  0.00  0.00    +0.000 N 
ATOM     27  C   UNL     1      49.618   5.306  17.543  0.00  0.00    +0.000 A 
ATOM     28  O   UNL     1      50.472   5.041  16.709  0.00  0.00    +0.000 OA
ATOM     29  C   UNL     1      48.942   6.615  17.742  0.00  0.00    +0.000 A 
ATOM     30  H   UNL     1      49.714   3.464  18.367  0.00  0.00    +0.000 HD
ENDBRANCH  17  19
ENDBRANCH   1  17
TORSDOF 7
ENDMDL
MODEL 9
REMARK VINA RESULT:    -7.261      2.978      8.183
REMARK INTER + INTRA:         -10.943
REMARK INTER:                  -9.657
REMARK INTRA:                  -1.286
REMARK UNBOUND:                -0.711
REMARK  Name = 
REMARK  7 active torsions:
REMARK  status: ('A' for Active; 'I' for Inactive)
REMARK    1  A    between atoms: C_2  and  C_3
REMARK    2  A    between atoms: C_3  and  C_4
REMARK    3  A    between atoms: C_4  and  C_5
REMARK    4  A    between atoms: C_8  and  C_9
REMARK    5  A    between atoms: C_9  and  O_10
REMARK    6  A    between atoms: O_10  and  C_11
REMARK    7  A    between atoms: C_11  and  C_12
REMARK                            x       y       z     vdW  Elec       q    Type
REMARK                         _______ _______ _______ _____ _____    ______ ____
ROOT
ATOM      1  C   UNL     1      49.475   7.662  13.260  0.00  0.00    +0.000 C 
ENDROOT
BRANCH   1   2
ATOM      2  C   UNL     1      49.394   7.740  14.760  0.00  0.00    +0.000 A 
ATOM      3  C   UNL     1      48.414   8.523  15.381  0.00  0.00    +0.000 A 
ATOM      4  C   UNL     1      48.335   8.574  16.770  0.00  0.00    +0.000 A 
ATOM      5  C   UNL     1      49.219   7.825  17.557  0.00  0.00    +0.000 A 
ATOM      6  C   UNL     1      50.198   7.042  16.937  0.00  0.00    +0.000 A 
ATOM      7  C   UNL     1      50.283   7.000  15.547  0.00  0.00    +0.000 A 
BRANCH   5   8
ATOM      8  C   UNL     1      49.062   7.807  19.055  0.00  0.00    +0.000 C 
BRANCH   8   9
ATOM      9  O   UNL     1      47.808   7.239  19.430  0.00  0.00    +0.000 OA
BRANCH   9  10
ATOM     10  C   UNL     1      47.948   5.926  19.986  0.00  0.00    +0.000 C 
BRANCH  10  11
ATOM     11  C   UNL     1      48.048   4.909  18.877  0.00  0.00    +0.000 A 
ATOM     12  C   UNL     1      49.159   4.070  18.800  0.00  0.00    +0.000 A 
ATOM     13  C   UNL     1      49.218   3.123  17.783  0.00  0.00    +0.000 A 
ATOM     14  C   UNL     1      48.169   3.037  16.877  0.00  0.00    +0.000 A 
ATOM     15  C   UNL     1      47.098   3.902  17.028  0.00  0.00    +0.000 A 
ATOM     16  N   UNL     1      47.011   4.828  18.005  0.00  0.00    +0.000 NA
ENDBRANCH  10  11
ENDBRANCH   9  10
ENDBRANCH   8   9
ENDBRANCH   5   8
ENDBRANCH   1   2
BRANCH   1  17
ATOM     17  C   UNL     1      48.095   7.632  12.600  0.00  0.00    +0.000 C 
BRANCH  17  19
ATOM     18  O   UNL     1      48.148   5.333  13.198  0.00  0.00    +0.000 OA
ATOM     19  C   UNL     1      47.470   6.261  12.771  0.00  0.00    +0.000 C 
ATOM     20  N   UNL     1      46.151   6.153  12.377  0.00  0.00    +0.000 N 
ATOM     21  C   UNL     1      45.332   7.248  11.825  0.00  0.00    +0.000 C 
ATOM     22  C   UNL     1      44.020   6.607  11.362  0.00  0.00    +0.000 C 
ATOM     23  C   UNL     1      44.216   5.178  11.752  0.00  0.00    +0.000 A 
ATOM     24  N   UNL     1      43.274   4.224  11.482  0.00  0.00    +0.000 NA
ATOM     25  C   UNL     1      43.618   3.018  11.785  0.00  0.00    +0.000 A 
ATOM     26  N   UNL     1      44.809   2.678  12.364  0.00  0.00    +0.000 N 
ATOM     27  C   UNL     1      45.721   3.611  12.787  0.00  0.00    +0.000 A 
ATOM     28  O   UNL     1      46.633   3.272  13.527  0.00  0.00    +0.000 OA
ATOM     29  C   UNL     1      45.410   4.993  12.332  0.00  0.00    +0.000 A 
ATOM     30  H   UNL     1      44.991   1.732  12.664  0.00  0.00    +0.000 HD
ENDBRANCH  17  19
ENDBRANCH   1  17
TORSDOF 7
ENDMDL
