MODEL 1
REMARK VINA RESULT:    -8.324      0.000      0.000
REMARK INTER + INTRA:         -12.476
REMARK INTER:                 -11.243
REMARK INTRA:                  -1.232
REMARK UNBOUND:                -1.232
REMARK  Name = 
REMARK  6 active torsions:
REMARK  status: ('A' for Active; 'I' for Inactive)
REMARK    1  A    between atoms: C_2  and  C_19
REMARK    2  A    between atoms: N_3  and  C_4
REMARK    3  A    between atoms: C_4  and  C_5
REMARK    4  A    between atoms: C_8  and  C_9
REMARK    5  A    between atoms: C_9  and  C_10
REMARK    6  A    between atoms: C_10  and  C_11
REMARK                            x       y       z     vdW  Elec       q    Type
REMARK                         _______ _______ _______ _____ _____    ______ ____
ROOT
ATOM      1  O   UNL     1      49.362   6.847  13.612  0.00  0.00    +0.000 OA
ATOM      2  C   UNL     1      48.595   6.765  14.565  0.00  0.00    +0.000 C 
ATOM      3  N   UNL     1      47.261   7.081  14.464  0.00  0.00    +0.000 N 
ATOM      4  H   UNL     1      46.713   7.210  15.307  0.00  0.00    +0.000 HD
ENDROOT
BRANCH   2   5
ATOM      5  C   UNL     1      49.063   6.297  15.872  0.00  0.00    +0.000 A 
ATOM      6  C   UNL     1      50.011   7.025  16.585  0.00  0.00    +0.000 A 
ATOM      7  S   UNL     1      50.378   6.338  18.107  0.00  0.00    +0.000 S 
ATOM      8  C   UNL     1      49.274   5.073  17.873  0.00  0.00    +0.000 A 
ATOM      9  N   UNL     1      49.050   4.134  18.837  0.00  0.00    +0.000 NA
ATOM     10  C   UNL     1      48.150   3.263  18.534  0.00  0.00    +0.000 A 
ATOM     11  N   UNL     1      47.464   3.217  17.349  0.00  0.00    +0.000 N 
ATOM     12  C   UNL     1      47.699   4.101  16.323  0.00  0.00    +0.000 A 
ATOM     13  O   UNL     1      47.142   3.978  15.238  0.00  0.00    +0.000 OA
ATOM     14  C   UNL     1      48.660   5.144  16.634  0.00  0.00    +0.000 A 
ATOM     15  H   UNL     1      46.801   2.487  17.154  0.00  0.00    +0.000 HD
ENDBRANCH   2   5
BRANCH   3  16
ATOM     16  C   UNL     1      46.758   7.690  13.260  0.00  0.00    +0.000 C 
BRANCH  16  17
ATOM     17  C   UNL     1      46.100   6.698  12.338  0.00  0.00    +0.000 A 
ATOM     18  C   UNL     1      45.042   5.900  12.787  0.00  0.00    +0.000 A 
ATOM     19  C   UNL     1      44.381   5.029  11.913  0.00  0.00    +0.000 A 
ATOM     20  C   UNL     1      44.759   4.937  10.567  0.00  0.00    +0.000 A 
ATOM     21  C   UNL     1      45.854   5.700  10.135  0.00  0.00    +0.000 A 
ATOM     22  C   UNL     1      46.519   6.566  11.010  0.00  0.00    +0.000 A 
BRANCH  20  23
ATOM     23  C   UNL     1      44.077   3.997   9.590  0.00  0.00    +0.000 C 
BRANCH  23  24
ATOM     24  C   UNL     1      44.644   2.573   9.558  0.00  0.00    +0.000 C 
BRANCH  24  25
ATOM     25  C   UNL     1      45.583   2.357   8.399  0.00  0.00    +0.000 A 
ATOM     26  C   UNL     1      45.766   3.353   7.442  0.00  0.00    +0.000 A 
ATOM     27  C   UNL     1      46.624   3.107   6.373  0.00  0.00    +0.000 A 
ATOM     28  C   UNL     1      47.275   1.883   6.289  0.00  0.00    +0.000 A 
ATOM     29  C   UNL     1      47.041   0.950   7.284  0.00  0.00    +0.000 A 
ATOM     30  N   UNL     1      46.218   1.162   8.335  0.00  0.00    +0.000 NA
ENDBRANCH  24  25
ENDBRANCH  23  24
ENDBRANCH  20  23
ENDBRANCH  16  17
ENDBRANCH   3  16
TORSDOF 6
ENDMDL
MODEL 2
REMARK VINA RESULT:    -8.039      1.907      2.330
REMARK INTER + INTRA:         -12.091
REMARK INTER:                 -11.123
REMARK INTRA:                  -0.969
REMARK UNBOUND:                -1.232
REMARK  Name = 
REMARK  6 active torsions:
REMARK  status: ('A' for Active; 'I' for Inactive)
REMARK    1  A    between atoms: C_2  and  C_19
REMARK    2  A    between atoms: N_3  and  C_4
REMARK    3  A    between atoms: C_4  and  C_5
REMARK    4  A    between atoms: C_8  and  C_9
REMARK    5  A    between atoms: C_9  and  C_10
REMARK    6  A    between atoms: C_10  and  C_11
REMARK                            x       y       z     vdW  Elec       q    Type
REMARK                         _______ _______ _______ _____ _____    ______ ____
ROOT
ATOM      1  O   UNL     1      49.829   6.605  15.392  0.00  0.00    +0.000 OA
ATOM      2  C   UNL     1      48.764   6.164  15.809  0.00  0.00    +0.000 C 
ATOM      3  N   UNL     1      47.635   6.109  15.027  0.00  0.00    +0.000 N 
ATOM      4  H   UNL     1      46.733   5.946  15.461  0.00  0.00    +0.000 HD
ENDROOT
BRANCH   2   5
ATOM      5  C   UNL     1      48.644   5.643  17.173  0.00  0.00    +0.000 A 
ATOM      6  C   UNL     1      48.830   4.288  17.430  0.00  0.00    +0.000 A 
ATOM      7  S   UNL     1      48.701   3.897  19.089  0.00  0.00    +0.000 S 
ATOM      8  C   UNL     1      48.422   5.514  19.514  0.00  0.00    +0.000 A 
ATOM      9  N   UNL     1      48.275   5.894  20.816  0.00  0.00    +0.000 NA
ATOM     10  C   UNL     1      48.116   7.161  20.986  0.00  0.00    +0.000 A 
ATOM     11  N   UNL     1      48.061   8.092  19.981  0.00  0.00    +0.000 N 
ATOM     12  C   UNL     1      48.141   7.751  18.653  0.00  0.00    +0.000 A 
ATOM     13  O   UNL     1      47.991   8.591  17.771  0.00  0.00    +0.000 OA
ATOM     14  C   UNL     1      48.384   6.342  18.404  0.00  0.00    +0.000 A 
ATOM     15  H   UNL     1      47.894   9.064  20.174  0.00  0.00    +0.000 HD
ENDBRANCH   2   5
BRANCH   3  16
ATOM     16  C   UNL     1      47.630   6.739  13.731  0.00  0.00    +0.000 C 
BRANCH  16  17
ATOM     17  C   UNL     1      46.771   6.008  12.733  0.00  0.00    +0.000 A 
ATOM     18  C   UNL     1      46.119   4.821  13.087  0.00  0.00    +0.000 A 
ATOM     19  C   UNL     1      45.264   4.179  12.184  0.00  0.00    +0.000 A 
ATOM     20  C   UNL     1      45.037   4.707  10.906  0.00  0.00    +0.000 A 
ATOM     21  C   UNL     1      45.734   5.868  10.539  0.00  0.00    +0.000 A 
ATOM     22  C   UNL     1      46.594   6.507  11.439  0.00  0.00    +0.000 A 
BRANCH  20  23
ATOM     23  C   UNL     1      44.127   4.035   9.895  0.00  0.00    +0.000 C 
BRANCH  23  24
ATOM     24  C   UNL     1      44.474   2.575   9.582  0.00  0.00    +0.000 C 
BRANCH  24  25
ATOM     25  C   UNL     1      45.479   2.452   8.465  0.00  0.00    +0.000 A 
ATOM     26  C   UNL     1      45.707   3.518   7.598  0.00  0.00    +0.000 A 
ATOM     27  C   UNL     1      46.626   3.358   6.564  0.00  0.00    +0.000 A 
ATOM     28  C   UNL     1      47.292   2.147   6.425  0.00  0.00    +0.000 A 
ATOM     29  C   UNL     1      47.011   1.140   7.332  0.00  0.00    +0.000 A 
ATOM     30  N   UNL     1      46.128   1.268   8.348  0.00  0.00    +0.000 NA
ENDBRANCH  24  25
ENDBRANCH  23  24
ENDBRANCH  20  23
ENDBRANCH  16  17
ENDBRANCH   3  16
TORSDOF 6
ENDMDL
MODEL 3
REMARK VINA RESULT:    -7.731      1.675      2.073
REMARK INTER + INTRA:         -11.675
REMARK INTER:                 -10.769
REMARK INTRA:                  -0.906
REMARK UNBOUND:                -1.232
REMARK  Name = 
REMARK  6 active torsions:
REMARK  status: ('A' for Active; 'I' for Inactive)
REMARK    1  A    between atoms: C_2  and  C_19
REMARK    2  A    between atoms: N_3  and  C_4
REMARK    3  A    between atoms: C_4  and  C_5
REMARK    4  A    between atoms: C_8  and  C_9
REMARK    5  A    between atoms: C_9  and  C_10
REMARK    6  A    between atoms: C_10  and  C_11
REMARK                            x       y       z     vdW  Elec       q    Type
REMARK                         _______ _______ _______ _____ _____    ______ ____
ROOT
ATOM      1  O   UNL     1      50.236   6.452  15.605  0.00  0.00    +0.000 OA
ATOM      2  C   UNL     1      49.123   6.755  16.019  0.00  0.00    +0.000 C 
ATOM      3  N   UNL     1      48.052   6.945  15.178  0.00  0.00    +0.000 N 
ATOM      4  H   UNL     1      47.216   7.400  15.527  0.00  0.00    +0.000 HD
ENDROOT
BRANCH   2   5
ATOM      5  C   UNL     1      48.867   6.910  17.453  0.00  0.00    +0.000 A 
ATOM      6  C   UNL     1      48.466   8.138  17.971  0.00  0.00    +0.000 A 
ATOM      7  S   UNL     1      48.167   8.091  19.653  0.00  0.00    +0.000 S 
ATOM      8  C   UNL     1      48.536   6.438  19.737  0.00  0.00    +0.000 A 
ATOM      9  N   UNL     1      48.429   5.742  20.905  0.00  0.00    +0.000 NA
ATOM     10  C   UNL     1      48.696   4.486  20.803  0.00  0.00    +0.000 A 
ATOM     11  N   UNL     1      49.089   3.854  19.652  0.00  0.00    +0.000 N 
ATOM     12  C   UNL     1      49.272   4.524  18.466  0.00  0.00    +0.000 A 
ATOM     13  O   UNL     1      49.718   3.952  17.477  0.00  0.00    +0.000 OA
ATOM     14  C   UNL     1      48.924   5.932  18.508  0.00  0.00    +0.000 A 
ATOM     15  H   UNL     1      49.324   2.877  19.644  0.00  0.00    +0.000 HD
ENDBRANCH   2   5
BRANCH   3  16
ATOM     16  C   UNL     1      48.256   6.960  13.752  0.00  0.00    +0.000 C 
BRANCH  16  17
ATOM     17  C   UNL     1      47.209   6.177  13.007  0.00  0.00    +0.000 A 
ATOM     18  C   UNL     1      46.722   6.628  11.775  0.00  0.00    +0.000 A 
ATOM     19  C   UNL     1      45.802   5.866  11.046  0.00  0.00    +0.000 A 
ATOM     20  C   UNL     1      45.347   4.632  11.529  0.00  0.00    +0.000 A 
ATOM     21  C   UNL     1      45.798   4.209  12.788  0.00  0.00    +0.000 A 
ATOM     22  C   UNL     1      46.713   4.974  13.520  0.00  0.00    +0.000 A 
BRANCH  20  23
ATOM     23  C   UNL     1      44.341   3.781  10.776  0.00  0.00    +0.000 C 
BRANCH  23  24
ATOM     24  C   UNL     1      44.296   4.021   9.262  0.00  0.00    +0.000 C 
BRANCH  24  25
ATOM     25  C   UNL     1      45.341   3.224   8.525  0.00  0.00    +0.000 A 
ATOM     26  C   UNL     1      46.198   3.846   7.620  0.00  0.00    +0.000 A 
ATOM     27  C   UNL     1      47.135   3.073   6.940  0.00  0.00    +0.000 A 
ATOM     28  C   UNL     1      47.194   1.706   7.181  0.00  0.00    +0.000 A 
ATOM     29  C   UNL     1      46.309   1.166   8.099  0.00  0.00    +0.000 A 
ATOM     30  N   UNL     1      45.393   1.893   8.777  0.00  0.00    +0.000 NA
ENDBRANCH  24  25
ENDBRANCH  23  24
ENDBRANCH  20  23
ENDBRANCH  16  17
ENDBRANCH   3  16
TORSDOF 6
ENDMDL
MODEL 4
REMARK VINA RESULT:    -7.655      2.617      4.495
REMARK INTER + INTRA:         -11.573
REMARK INTER:                 -10.357
REMARK INTRA:                  -1.216
REMARK UNBOUND:                -1.232
REMARK  Name = 
REMARK  6 active torsions:
REMARK  status: ('A' for Active; 'I' for Inactive)
REMARK    1  A    between atoms: C_2  and  C_19
REMARK    2  A    between atoms: N_3  and  C_4
REMARK    3  A    between atoms: C_4  and  C_5
REMARK    4  A    between atoms: C_8  and  C_9
REMARK    5  A    between atoms: C_9  and  C_10
REMARK    6  A    between atoms: C_10  and  C_11
REMARK                            x       y       z     vdW  Elec       q    Type
REMARK                         _______ _______ _______ _____ _____    ______ ____
ROOT
ATOM      1  O   UNL     1      49.808   6.624  15.008  0.00  0.00    +0.000 OA
ATOM      2  C   UNL     1      48.877   7.342  14.663  0.00  0.00    +0.000 C 
ATOM      3  N   UNL     1      47.621   6.844  14.406  0.00  0.00    +0.000 N 
ATOM      4  H   UNL     1      46.944   7.421  13.921  0.00  0.00    +0.000 HD
ENDROOT
BRANCH   2   5
ATOM      5  C   UNL     1      49.049   8.790  14.530  0.00  0.00    +0.000 A 
ATOM      6  C   UNL     1      49.244   9.585  15.656  0.00  0.00    +0.000 A 
ATOM      7  S   UNL     1      49.477  11.236  15.278  0.00  0.00    +0.000 S 
ATOM      8  C   UNL     1      49.352  10.939  13.614  0.00  0.00    +0.000 A 
ATOM      9  N   UNL     1      49.512  11.937  12.698  0.00  0.00    +0.000 NA
ATOM     10  C   UNL     1      49.436  11.550  11.471  0.00  0.00    +0.000 A 
ATOM     11  N   UNL     1      49.188  10.266  11.062  0.00  0.00    +0.000 N 
ATOM     12  C   UNL     1      48.957   9.240  11.946  0.00  0.00    +0.000 A 
ATOM     13  O   UNL     1      48.640   8.122  11.554  0.00  0.00    +0.000 OA
ATOM     14  C   UNL     1      49.093   9.606  13.344  0.00  0.00    +0.000 A 
ATOM     15  H   UNL     1      49.099  10.032  10.088  0.00  0.00    +0.000 HD
ENDBRANCH   2   5
BRANCH   3  16
ATOM     16  C   UNL     1      47.411   5.419  14.366  0.00  0.00    +0.000 C 
BRANCH  16  17
ATOM     17  C   UNL     1      46.521   4.995  13.228  0.00  0.00    +0.000 A 
ATOM     18  C   UNL     1      46.231   5.877  12.181  0.00  0.00    +0.000 A 
ATOM     19  C   UNL     1      45.464   5.462  11.087  0.00  0.00    +0.000 A 
ATOM     20  C   UNL     1      44.969   4.153  11.010  0.00  0.00    +0.000 A 
ATOM     21  C   UNL     1      45.219   3.289  12.086  0.00  0.00    +0.000 A 
ATOM     22  C   UNL     1      45.980   3.705  13.183  0.00  0.00    +0.000 A 
BRANCH  20  23
ATOM     23  C   UNL     1      44.125   3.667   9.847  0.00  0.00    +0.000 C 
BRANCH  23  24
ATOM     24  C   UNL     1      44.462   2.258   9.346  0.00  0.00    +0.000 C 
BRANCH  24  25
ATOM     25  C   UNL     1      45.570   2.265   8.324  0.00  0.00    +0.000 A 
ATOM     26  C   UNL     1      45.793   3.387   7.529  0.00  0.00    +0.000 A 
ATOM     27  C   UNL     1      46.811   3.347   6.580  0.00  0.00    +0.000 A 
ATOM     28  C   UNL     1      47.577   2.195   6.451  0.00  0.00    +0.000 A 
ATOM     29  C   UNL     1      47.293   1.125   7.282  0.00  0.00    +0.000 A 
ATOM     30  N   UNL     1      46.315   1.138   8.215  0.00  0.00    +0.000 NA
ENDBRANCH  24  25
ENDBRANCH  23  24
ENDBRANCH  20  23
ENDBRANCH  16  17
ENDBRANCH   3  16
TORSDOF 6
ENDMDL
MODEL 5
REMARK VINA RESULT:    -7.315      2.795      3.411
REMARK INTER + INTRA:         -11.114
REMARK INTER:                  -9.926
REMARK INTRA:                  -1.187
REMARK UNBOUND:                -1.232
REMARK  Name = 
REMARK  6 active torsions:
REMARK  status: ('A' for Active; 'I' for Inactive)
REMARK    1  A    between atoms: C_2  and  C_19
REMARK    2  A    between atoms: N_3  and  C_4
REMARK    3  A    between atoms: C_4  and  C_5
REMARK    4  A    between atoms: C_8  and  C_9
REMARK    5  A    between atoms: C_9  and  C_10
REMARK    6  A    between atoms: C_10  and  C_11
REMARK                            x       y       z     vdW  Elec       q    Type
REMARK                         _______ _______ _______ _____ _____    ______ ____
ROOT
ATOM      1  O   UNL     1      47.494   9.685  11.731  0.00  0.00    +0.000 OA
ATOM      2  C   UNL     1      47.628   9.391  12.913  0.00  0.00    +0.000 C 
ATOM      3  N   UNL     1      46.686   8.664  13.601  0.00  0.00    +0.000 N 
ATOM      4  H   UNL     1      46.725   8.627  14.613  0.00  0.00    +0.000 HD
ENDROOT
BRANCH   2   5
ATOM      5  C   UNL     1      48.827   9.784  13.657  0.00  0.00    +0.000 A 
ATOM      6  C   UNL     1      49.128  11.128  13.854  0.00  0.00    +0.000 A 
ATOM      7  S   UNL     1      50.537  11.370  14.792  0.00  0.00    +0.000 S 
ATOM      8  C   UNL     1      50.772   9.702  14.984  0.00  0.00    +0.000 A 
ATOM      9  N   UNL     1      51.794   9.208  15.740  0.00  0.00    +0.000 NA
ATOM     10  C   UNL     1      51.817   7.923  15.831  0.00  0.00    +0.000 A 
ATOM     11  N   UNL     1      50.934   7.073  15.218  0.00  0.00    +0.000 N 
ATOM     12  C   UNL     1      49.927   7.519  14.396  0.00  0.00    +0.000 A 
ATOM     13  O   UNL     1      49.212   6.733  13.783  0.00  0.00    +0.000 OA
ATOM     14  C   UNL     1      49.815   8.963  14.308  0.00  0.00    +0.000 A 
ATOM     15  H   UNL     1      51.027   6.075  15.294  0.00  0.00    +0.000 HD
ENDBRANCH   2   5
BRANCH   3  16
ATOM     16  C   UNL     1      45.417   8.373  12.986  0.00  0.00    +0.000 C 
BRANCH  16  17
ATOM     17  C   UNL     1      45.341   6.970  12.445  0.00  0.00    +0.000 A 
ATOM     18  C   UNL     1      45.384   5.869  13.308  0.00  0.00    +0.000 A 
ATOM     19  C   UNL     1      45.242   4.567  12.814  0.00  0.00    +0.000 A 
ATOM     20  C   UNL     1      45.051   4.333  11.446  0.00  0.00    +0.000 A 
ATOM     21  C   UNL     1      45.062   5.436  10.580  0.00  0.00    +0.000 A 
ATOM     22  C   UNL     1      45.210   6.738  11.072  0.00  0.00    +0.000 A 
BRANCH  20  23
ATOM     23  C   UNL     1      44.905   2.937  10.870  0.00  0.00    +0.000 C 
BRANCH  23  24
ATOM     24  C   UNL     1      44.414   2.884   9.418  0.00  0.00    +0.000 C 
BRANCH  24  25
ATOM     25  C   UNL     1      45.513   2.515   8.455  0.00  0.00    +0.000 A 
ATOM     26  C   UNL     1      46.020   3.458   7.565  0.00  0.00    +0.000 A 
ATOM     27  C   UNL     1      47.019   3.073   6.674  0.00  0.00    +0.000 A 
ATOM     28  C   UNL     1      47.485   1.765   6.697  0.00  0.00    +0.000 A 
ATOM     29  C   UNL     1      46.931   0.891   7.617  0.00  0.00    +0.000 A 
ATOM     30  N   UNL     1      45.964   1.238   8.496  0.00  0.00    +0.000 NA
ENDBRANCH  24  25
ENDBRANCH  23  24
ENDBRANCH  20  23
ENDBRANCH  16  17
ENDBRANCH   3  16
TORSDOF 6
ENDMDL
MODEL 6
REMARK VINA RESULT:    -7.101      2.229      3.715
REMARK INTER + INTRA:         -10.824
REMARK INTER:                  -9.771
REMARK INTRA:                  -1.052
REMARK UNBOUND:                -1.232
REMARK  Name = 
REMARK  6 active torsions:
REMARK  status: ('A' for Active; 'I' for Inactive)
REMARK    1  A    between atoms: C_2  and  C_19
REMARK    2  A    between atoms: N_3  and  C_4
REMARK    3  A    between atoms: C_4  and  C_5
REMARK    4  A    between atoms: C_8  and  C_9
REMARK    5  A    between atoms: C_9  and  C_10
REMARK    6  A    between atoms: C_10  and  C_11
REMARK                            x       y       z     vdW  Elec       q    Type
REMARK                         _______ _______ _______ _____ _____    ______ ____
ROOT
ATOM      1  O   UNL     1      48.806   5.550  16.938  0.00  0.00    +0.000 OA
ATOM      2  C   UNL     1      48.853   6.218  15.912  0.00  0.00    +0.000 C 
ATOM      3  N   UNL     1      47.972   6.034  14.873  0.00  0.00    +0.000 N 
ATOM      4  H   UNL     1      48.172   6.445  13.969  0.00  0.00    +0.000 HD
ENDROOT
BRANCH   2   5
ATOM      5  C   UNL     1      49.850   7.279  15.747  0.00  0.00    +0.000 A 
ATOM      6  C   UNL     1      51.195   7.030  16.002  0.00  0.00    +0.000 A 
ATOM      7  S   UNL     1      52.196   8.382  15.696  0.00  0.00    +0.000 S 
ATOM      8  C   UNL     1      50.880   9.324  15.194  0.00  0.00    +0.000 A 
ATOM      9  N   UNL     1      51.047  10.599  14.740  0.00  0.00    +0.000 NA
ATOM     10  C   UNL     1      49.962  11.173  14.350  0.00  0.00    +0.000 A 
ATOM     11  N   UNL     1      48.713  10.610  14.393  0.00  0.00    +0.000 N 
ATOM     12  C   UNL     1      48.484   9.354  14.900  0.00  0.00    +0.000 A 
ATOM     13  O   UNL     1      47.346   8.913  15.017  0.00  0.00    +0.000 OA
ATOM     14  C   UNL     1      49.682   8.636  15.296  0.00  0.00    +0.000 A 
ATOM     15  H   UNL     1      47.895  11.124  14.111  0.00  0.00    +0.000 HD
ENDBRANCH   2   5
BRANCH   3  16
ATOM     16  C   UNL     1      47.064   4.916  14.895  0.00  0.00    +0.000 C 
BRANCH  16  17
ATOM     17  C   UNL     1      46.319   4.747  13.597  0.00  0.00    +0.000 A 
ATOM     18  C   UNL     1      46.058   5.849  12.775  0.00  0.00    +0.000 A 
ATOM     19  C   UNL     1      45.430   5.685  11.536  0.00  0.00    +0.000 A 
ATOM     20  C   UNL     1      45.049   4.414  11.085  0.00  0.00    +0.000 A 
ATOM     21  C   UNL     1      45.266   3.320  11.935  0.00  0.00    +0.000 A 
ATOM     22  C   UNL     1      45.888   3.484  13.177  0.00  0.00    +0.000 A 
BRANCH  20  23
ATOM     23  C   UNL     1      44.355   4.194   9.753  0.00  0.00    +0.000 C 
BRANCH  23  24
ATOM     24  C   UNL     1      44.347   2.743   9.259  0.00  0.00    +0.000 C 
BRANCH  24  25
ATOM     25  C   UNL     1      45.519   2.437   8.362  0.00  0.00    +0.000 A 
ATOM     26  C   UNL     1      46.061   3.427   7.545  0.00  0.00    +0.000 A 
ATOM     27  C   UNL     1      47.128   3.100   6.712  0.00  0.00    +0.000 A 
ATOM     28  C   UNL     1      47.625   1.803   6.718  0.00  0.00    +0.000 A 
ATOM     29  C   UNL     1      47.032   0.881   7.563  0.00  0.00    +0.000 A 
ATOM     30  N   UNL     1      45.999   1.171   8.385  0.00  0.00    +0.000 NA
ENDBRANCH  24  25
ENDBRANCH  23  24
ENDBRANCH  20  23
ENDBRANCH  16  17
ENDBRANCH   3  16
TORSDOF 6
ENDMDL
MODEL 7
REMARK VINA RESULT:    -6.936      2.317      3.555
REMARK INTER + INTRA:         -10.602
REMARK INTER:                  -9.683
REMARK INTRA:                  -0.919
REMARK UNBOUND:                -1.232
REMARK  Name = 
REMARK  6 active torsions:
REMARK  status: ('A' for Active; 'I' for Inactive)
REMARK    1  A    between atoms: C_2  and  C_19
REMARK    2  A    between atoms: N_3  and  C_4
REMARK    3  A    between atoms: C_4  and  C_5
REMARK    4  A    between atoms: C_8  and  C_9
REMARK    5  A    between atoms: C_9  and  C_10
REMARK    6  A    between atoms: C_10  and  C_11
REMARK                            x       y       z     vdW  Elec       q    Type
REMARK                         _______ _______ _______ _____ _____    ______ ____
ROOT
ATOM      1  O   UNL     1      49.601   4.655  16.701  0.00  0.00    +0.000 OA
ATOM      2  C   UNL     1      48.616   5.375  16.818  0.00  0.00    +0.000 C 
ATOM      3  N   UNL     1      47.410   5.071  16.234  0.00  0.00    +0.000 N 
ATOM      4  H   UNL     1      46.692   5.783  16.169  0.00  0.00    +0.000 HD
ENDROOT
BRANCH   2   5
ATOM      5  C   UNL     1      48.668   6.602  17.616  0.00  0.00    +0.000 A 
ATOM      6  C   UNL     1      47.902   6.726  18.772  0.00  0.00    +0.000 A 
ATOM      7  S   UNL     1      48.150   8.209  19.584  0.00  0.00    +0.000 S 
ATOM      8  C   UNL     1      49.295   8.717  18.443  0.00  0.00    +0.000 A 
ATOM      9  N   UNL     1      49.953   9.905  18.572  0.00  0.00    +0.000 NA
ATOM     10  C   UNL     1      50.828  10.132  17.654  0.00  0.00    +0.000 A 
ATOM     11  N   UNL     1      51.095   9.302  16.596  0.00  0.00    +0.000 N 
ATOM     12  C   UNL     1      50.415   8.127  16.388  0.00  0.00    +0.000 A 
ATOM     13  O   UNL     1      50.606   7.452  15.382  0.00  0.00    +0.000 OA
ATOM     14  C   UNL     1      49.461   7.789  17.428  0.00  0.00    +0.000 A 
ATOM     15  H   UNL     1      51.762   9.554  15.887  0.00  0.00    +0.000 HD
ENDBRANCH   2   5
BRANCH   3  16
ATOM     16  C   UNL     1      47.319   3.967  15.312  0.00  0.00    +0.000 C 
BRANCH  16  17
ATOM     17  C   UNL     1      46.680   4.353  14.004  0.00  0.00    +0.000 A 
ATOM     18  C   UNL     1      46.852   5.639  13.478  0.00  0.00    +0.000 A 
ATOM     19  C   UNL     1      46.319   5.977  12.229  0.00  0.00    +0.000 A 
ATOM     20  C   UNL     1      45.603   5.040  11.473  0.00  0.00    +0.000 A 
ATOM     21  C   UNL     1      45.389   3.769  12.029  0.00  0.00    +0.000 A 
ATOM     22  C   UNL     1      45.916   3.432  13.280  0.00  0.00    +0.000 A 
BRANCH  20  23
ATOM     23  C   UNL     1      45.000   5.370  10.121  0.00  0.00    +0.000 C 
BRANCH  23  24
ATOM     24  C   UNL     1      44.326   4.192   9.408  0.00  0.00    +0.000 C 
BRANCH  24  25
ATOM     25  C   UNL     1      45.290   3.417   8.547  0.00  0.00    +0.000 A 
ATOM     26  C   UNL     1      45.503   2.059   8.770  0.00  0.00    +0.000 A 
ATOM     27  C   UNL     1      46.419   1.382   7.969  0.00  0.00    +0.000 A 
ATOM     28  C   UNL     1      47.093   2.074   6.970  0.00  0.00    +0.000 A 
ATOM     29  C   UNL     1      46.820   3.421   6.812  0.00  0.00    +0.000 A 
ATOM     30  N   UNL     1      45.933   4.103   7.571  0.00  0.00    +0.000 NA
ENDBRANCH  24  25
ENDBRANCH  23  24
ENDBRANCH  20  23
ENDBRANCH  16  17
ENDBRANCH   3  16
TORSDOF 6
ENDMDL
MODEL 8
REMARK VINA RESULT:    -6.876      2.722      3.441
REMARK INTER + INTRA:         -10.521
REMARK INTER:                  -9.597
REMARK INTRA:                  -0.924
REMARK UNBOUND:                -1.232
REMARK  Name = 
REMARK  6 active torsions:
REMARK  status: ('A' for Active; 'I' for Inactive)
REMARK    1  A    between atoms: C_2  and  C_19
REMARK    2  A    between atoms: N_3  and  C_4
REMARK    3  A    between atoms: C_4  and  C_5
REMARK    4  A    between atoms: C_8  and  C_9
REMARK    5  A    between atoms: C_9  and  C_10
REMARK    6  A    between atoms: C_10  and  C_11
REMARK                            x       y       z     vdW  Elec       q    Type
REMARK                         _______ _______ _______ _____ _____    ______ ____
ROOT
ATOM      1  O   UNL     1      49.491   5.415  16.637  0.00  0.00    +0.000 OA
ATOM      2  C   UNL     1      48.741   6.261  16.163  0.00  0.00    +0.000 C 
ATOM      3  N   UNL     1      47.660   5.929  15.382  0.00  0.00    +0.000 N 
ATOM      4  H   UNL     1      47.197   6.647  14.837  0.00  0.00    +0.000 HD
ENDROOT
BRANCH   2   5
ATOM      5  C   UNL     1      48.946   7.686  16.429  0.00  0.00    +0.000 A 
ATOM      6  C   UNL     1      49.647   8.480  15.526  0.00  0.00    +0.000 A 
ATOM      7  S   UNL     1      49.725  10.122  15.997  0.00  0.00    +0.000 S 
ATOM      8  C   UNL     1      48.813   9.830  17.395  0.00  0.00    +0.000 A 
ATOM      9  N   UNL     1      48.463  10.841  18.242  0.00  0.00    +0.000 NA
ATOM     10  C   UNL     1      47.729  10.475  19.236  0.00  0.00    +0.000 A 
ATOM     11  N   UNL     1      47.329   9.188  19.488  0.00  0.00    +0.000 N 
ATOM     12  C   UNL     1      47.709   8.127  18.701  0.00  0.00    +0.000 A 
ATOM     13  O   UNL     1      47.418   6.975  19.005  0.00  0.00    +0.000 OA
ATOM     14  C   UNL     1      48.484   8.492  17.530  0.00  0.00    +0.000 A 
ATOM     15  H   UNL     1      46.790   8.956  20.304  0.00  0.00    +0.000 HD
ENDBRANCH   2   5
BRANCH   3  16
ATOM     16  C   UNL     1      47.479   4.566  14.951  0.00  0.00    +0.000 C 
BRANCH  16  17
ATOM     17  C   UNL     1      46.682   4.460  13.678  0.00  0.00    +0.000 A 
ATOM     18  C   UNL     1      46.181   3.225  13.250  0.00  0.00    +0.000 A 
ATOM     19  C   UNL     1      45.380   3.136  12.107  0.00  0.00    +0.000 A 
ATOM     20  C   UNL     1      45.057   4.278  11.362  0.00  0.00    +0.000 A 
ATOM     21  C   UNL     1      45.605   5.505  11.765  0.00  0.00    +0.000 A 
ATOM     22  C   UNL     1      46.411   5.594  12.905  0.00  0.00    +0.000 A 
BRANCH  20  23
ATOM     23  C   UNL     1      44.201   4.222  10.110  0.00  0.00    +0.000 C 
BRANCH  23  24
ATOM     24  C   UNL     1      44.912   4.649   8.821  0.00  0.00    +0.000 C 
BRANCH  24  25
ATOM     25  C   UNL     1      45.723   3.531   8.217  0.00  0.00    +0.000 A 
ATOM     26  C   UNL     1      45.511   2.211   8.609  0.00  0.00    +0.000 A 
ATOM     27  C   UNL     1      46.295   1.208   8.046  0.00  0.00    +0.000 A 
ATOM     28  C   UNL     1      47.265   1.546   7.110  0.00  0.00    +0.000 A 
ATOM     29  C   UNL     1      47.409   2.881   6.773  0.00  0.00    +0.000 A 
ATOM     30  N   UNL     1      46.659   3.875   7.299  0.00  0.00    +0.000 NA
ENDBRANCH  24  25
ENDBRANCH  23  24
ENDBRANCH  20  23
ENDBRANCH  16  17
ENDBRANCH   3  16
TORSDOF 6
ENDMDL
MODEL 9
REMARK VINA RESULT:    -6.695      3.854      9.902
REMARK INTER + INTRA:         -10.276
REMARK INTER:                  -9.259
REMARK INTRA:                  -1.018
REMARK UNBOUND:                -1.232
REMARK  Name = 
REMARK  6 active torsions:
REMARK  status: ('A' for Active; 'I' for Inactive)
REMARK    1  A    between atoms: C_2  and  C_19
REMARK    2  A    between atoms: N_3  and  C_4
REMARK    3  A    between atoms: C_4  and  C_5
REMARK    4  A    between atoms: C_8  and  C_9
REMARK    5  A    between atoms: C_9  and  C_10
REMARK    6  A    between atoms: C_10  and  C_11
REMARK                            x       y       z     vdW  Elec       q    Type
REMARK                         _______ _______ _______ _____ _____    ______ ____
ROOT
ATOM      1  O   UNL     1      47.162   3.175  14.011  0.00  0.00    +0.000 OA
ATOM      2  C   UNL     1      46.882   4.270  14.485  0.00  0.00    +0.000 C 
ATOM      3  N   UNL     1      47.022   4.549  15.824  0.00  0.00    +0.000 N 
ATOM      4  H   UNL     1      46.583   5.376  16.211  0.00  0.00    +0.000 HD
ENDROOT
BRANCH   2   5
ATOM      5  C   UNL     1      46.399   5.360  13.634  0.00  0.00    +0.000 A 
ATOM      6  C   UNL     1      47.207   6.463  13.373  0.00  0.00    +0.000 A 
ATOM      7  S   UNL     1      46.479   7.592  12.316  0.00  0.00    +0.000 S 
ATOM      8  C   UNL     1      45.085   6.639  12.156  0.00  0.00    +0.000 A 
ATOM      9  N   UNL     1      44.061   7.007  11.334  0.00  0.00    +0.000 NA
ATOM     10  C   UNL     1      43.091   6.160  11.280  0.00  0.00    +0.000 A 
ATOM     11  N   UNL     1      43.026   4.989  11.988  0.00  0.00    +0.000 N 
ATOM     12  C   UNL     1      44.003   4.606  12.876  0.00  0.00    +0.000 A 
ATOM     13  O   UNL     1      43.874   3.602  13.569  0.00  0.00    +0.000 OA
ATOM     14  C   UNL     1      45.151   5.493  12.930  0.00  0.00    +0.000 A 
ATOM     15  H   UNL     1      42.223   4.387  11.935  0.00  0.00    +0.000 HD
ENDBRANCH   2   5
BRANCH   3  16
ATOM     16  C   UNL     1      47.344   3.490  16.746  0.00  0.00    +0.000 C 
BRANCH  16  17
ATOM     17  C   UNL     1      48.805   3.460  17.109  0.00  0.00    +0.000 A 
ATOM     18  C   UNL     1      49.529   2.263  17.058  0.00  0.00    +0.000 A 
ATOM     19  C   UNL     1      50.902   2.245  17.326  0.00  0.00    +0.000 A 
ATOM     20  C   UNL     1      51.588   3.423  17.648  0.00  0.00    +0.000 A 
ATOM     21  C   UNL     1      50.849   4.611  17.749  0.00  0.00    +0.000 A 
ATOM     22  C   UNL     1      49.474   4.629  17.487  0.00  0.00    +0.000 A 
BRANCH  20  23
ATOM     23  C   UNL     1      53.074   3.445  17.956  0.00  0.00    +0.000 C 
BRANCH  23  24
ATOM     24  C   UNL     1      53.438   3.121  19.410  0.00  0.00    +0.000 C 
BRANCH  24  25
ATOM     25  C   UNL     1      53.385   4.338  20.297  0.00  0.00    +0.000 A 
ATOM     26  C   UNL     1      52.356   4.494  21.224  0.00  0.00    +0.000 A 
ATOM     27  C   UNL     1      52.328   5.643  22.010  0.00  0.00    +0.000 A 
ATOM     28  C   UNL     1      53.323   6.600  21.854  0.00  0.00    +0.000 A 
ATOM     29  C   UNL     1      54.311   6.366  20.913  0.00  0.00    +0.000 A 
ATOM     30  N   UNL     1      54.367   5.259  20.140  0.00  0.00    +0.000 NA
ENDBRANCH  24  25
ENDBRANCH  23  24
ENDBRANCH  20  23
ENDBRANCH  16  17
ENDBRANCH   3  16
TORSDOF 6
ENDMDL
