MODEL 1
REMARK VINA RESULT:    -8.710      0.000      0.000
REMARK INTER + INTRA:         -12.737
REMARK INTER:                 -11.765
REMARK INTRA:                  -0.972
REMARK UNBOUND:                -0.972
REMARK  Name = 
REMARK  6 active torsions:
REMARK  status: ('A' for Active; 'I' for Inactive)
REMARK    1  A    between atoms: C_2  and  C_19
REMARK    2  A    between atoms: N_3  and  C_4
REMARK    3  A    between atoms: C_4  and  C_5
REMARK    4  A    between atoms: C_8  and  C_9
REMARK    5  A    between atoms: C_9  and  N_10
REMARK    6  A    between atoms: N_10  and  C_11
REMARK                            x       y       z     vdW  Elec       q    Type
REMARK                         _______ _______ _______ _____ _____    ______ ____
ROOT
ATOM      1  C   UNL     1      47.022   7.102  13.078  0.00  0.00    +0.000 C 
ENDROOT
BRANCH   1   2
ATOM      2  C   UNL     1      46.299   6.054  12.269  0.00  0.00    +0.000 A 
ATOM      3  C   UNL     1      45.940   4.826  12.843  0.00  0.00    +0.000 A 
ATOM      4  C   UNL     1      45.232   3.867  12.105  0.00  0.00    +0.000 A 
ATOM      5  C   UNL     1      44.889   4.104  10.767  0.00  0.00    +0.000 A 
ATOM      6  C   UNL     1      45.255   5.331  10.192  0.00  0.00    +0.000 A 
ATOM      7  C   UNL     1      45.964   6.288  10.930  0.00  0.00    +0.000 A 
BRANCH   5   8
ATOM      8  C   UNL     1      44.169   3.054   9.945  0.00  0.00    +0.000 C 
BRANCH   8   9
ATOM      9  N   UNL     1      45.085   2.015   9.499  0.00  0.00    +0.000 N 
ATOM     10  H   UNL     1      45.648   1.631  10.253  0.00  0.00    +0.000 HD
BRANCH   9  11
ATOM     11  C   UNL     1      45.840   2.190   8.333  0.00  0.00    +0.000 A 
ATOM     12  C   UNL     1      45.734   3.301   7.485  0.00  0.00    +0.000 A 
ATOM     13  C   UNL     1      46.493   3.396   6.311  0.00  0.00    +0.000 A 
ATOM     14  C   UNL     1      47.345   2.362   5.939  0.00  0.00    +0.000 A 
ATOM     15  C   UNL     1      47.426   1.225   6.737  0.00  0.00    +0.000 A 
ATOM     16  C   UNL     1      46.674   1.141   7.914  0.00  0.00    +0.000 A 
ENDBRANCH   9  11
ENDBRANCH   8   9
ENDBRANCH   5   8
ENDBRANCH   1   2
BRANCH   1  19
ATOM     17  O   UNL     1      49.581   6.867  14.106  0.00  0.00    +0.000 OA
ATOM     18  C   UNL     1      48.634   6.634  14.854  0.00  0.00    +0.000 C 
ATOM     19  N   UNL     1      47.332   6.652  14.412  0.00  0.00    +0.000 N 
ATOM     20  H   UNL     1      46.579   6.676  15.091  0.00  0.00    +0.000 HD
BRANCH  18  21
ATOM     21  C   UNL     1      48.843   6.283  16.265  0.00  0.00    +0.000 A 
ATOM     22  C   UNL     1      49.360   7.221  17.145  0.00  0.00    +0.000 A 
ATOM     23  S   UNL     1      49.529   6.634  18.739  0.00  0.00    +0.000 S 
ATOM     24  C   UNL     1      48.872   5.124  18.311  0.00  0.00    +0.000 A 
ATOM     25  N   UNL     1      48.699   4.144  19.238  0.00  0.00    +0.000 NA
ATOM     26  C   UNL     1      48.151   3.067  18.779  0.00  0.00    +0.000 A 
ATOM     27  N   UNL     1      47.770   2.878  17.476  0.00  0.00    +0.000 N 
ATOM     28  C   UNL     1      47.972   3.818  16.495  0.00  0.00    +0.000 A 
ATOM     29  O   UNL     1      47.693   3.586  15.325  0.00  0.00    +0.000 OA
ATOM     30  C   UNL     1      48.556   5.061  16.965  0.00  0.00    +0.000 A 
ATOM     31  H   UNL     1      47.367   2.003  17.176  0.00  0.00    +0.000 HD
ENDBRANCH  18  21
ENDBRANCH   1  19
TORSDOF 6
ENDMDL
MODEL 2
REMARK VINA RESULT:    -8.557      1.354      1.744
REMARK INTER + INTRA:         -12.530
REMARK INTER:                 -11.519
REMARK INTRA:                  -1.011
REMARK UNBOUND:                -0.972
REMARK  Name = 
REMARK  6 active torsions:
REMARK  status: ('A' for Active; 'I' for Inactive)
REMARK    1  A    between atoms: C_2  and  C_19
REMARK    2  A    between atoms: N_3  and  C_4
REMARK    3  A    between atoms: C_4  and  C_5
REMARK    4  A    between atoms: C_8  and  C_9
REMARK    5  A    between atoms: C_9  and  N_10
REMARK    6  A    between atoms: N_10  and  C_11
REMARK                            x       y       z     vdW  Elec       q    Type
REMARK                         _______ _______ _______ _____ _____    ______ ____
ROOT
ATOM      1  C   UNL     1      48.272   6.697  13.446  0.00  0.00    +0.000 C 
ENDROOT
BRANCH   1   2
ATOM      2  C   UNL     1      47.128   6.057  12.698  0.00  0.00    +0.000 A 
ATOM      3  C   UNL     1      46.509   4.899  13.189  0.00  0.00    +0.000 A 
ATOM      4  C   UNL     1      45.419   4.327  12.518  0.00  0.00    +0.000 A 
ATOM      5  C   UNL     1      44.940   4.886  11.325  0.00  0.00    +0.000 A 
ATOM      6  C   UNL     1      45.565   6.042  10.832  0.00  0.00    +0.000 A 
ATOM      7  C   UNL     1      46.655   6.612  11.503  0.00  0.00    +0.000 A 
BRANCH   5   8
ATOM      8  C   UNL     1      43.796   4.247  10.564  0.00  0.00    +0.000 C 
BRANCH   8   9
ATOM      9  N   UNL     1      44.029   4.289   9.128  0.00  0.00    +0.000 N 
ATOM     10  H   UNL     1      43.169   4.327   8.587  0.00  0.00    +0.000 HD
BRANCH   9  11
ATOM     11  C   UNL     1      44.968   3.434   8.538  0.00  0.00    +0.000 A 
ATOM     12  C   UNL     1      45.105   2.076   8.855  0.00  0.00    +0.000 A 
ATOM     13  C   UNL     1      46.094   1.284   8.255  0.00  0.00    +0.000 A 
ATOM     14  C   UNL     1      46.993   1.846   7.354  0.00  0.00    +0.000 A 
ATOM     15  C   UNL     1      46.910   3.203   7.066  0.00  0.00    +0.000 A 
ATOM     16  C   UNL     1      45.914   3.986   7.660  0.00  0.00    +0.000 A 
ENDBRANCH   9  11
ENDBRANCH   8   9
ENDBRANCH   5   8
ENDBRANCH   1   2
BRANCH   1  19
ATOM     17  O   UNL     1      50.326   6.797  15.299  0.00  0.00    +0.000 OA
ATOM     18  C   UNL     1      49.170   6.775  15.717  0.00  0.00    +0.000 C 
ATOM     19  N   UNL     1      48.090   6.650  14.875  0.00  0.00    +0.000 N 
ATOM     20  H   UNL     1      47.162   6.859  15.227  0.00  0.00    +0.000 HD
BRANCH  18  21
ATOM     21  C   UNL     1      48.877   6.845  17.155  0.00  0.00    +0.000 A 
ATOM     22  C   UNL     1      48.452   8.037  17.721  0.00  0.00    +0.000 A 
ATOM     23  S   UNL     1      48.157   7.923  19.399  0.00  0.00    +0.000 S 
ATOM     24  C   UNL     1      48.544   6.267  19.410  0.00  0.00    +0.000 A 
ATOM     25  N   UNL     1      48.462   5.534  20.553  0.00  0.00    +0.000 NA
ATOM     26  C   UNL     1      48.743   4.281  20.403  0.00  0.00    +0.000 A 
ATOM     27  N   UNL     1      49.109   3.697  19.218  0.00  0.00    +0.000 N 
ATOM     28  C   UNL     1      49.255   4.407  18.050  0.00  0.00    +0.000 A 
ATOM     29  O   UNL     1      49.662   3.870  17.027  0.00  0.00    +0.000 OA
ATOM     30  C   UNL     1      48.919   5.815  18.157  0.00  0.00    +0.000 A 
ATOM     31  H   UNL     1      49.339   2.716  19.172  0.00  0.00    +0.000 HD
ENDBRANCH  18  21
ENDBRANCH   1  19
TORSDOF 6
ENDMDL
MODEL 3
REMARK VINA RESULT:    -8.289      1.907      2.811
REMARK INTER + INTRA:         -12.168
REMARK INTER:                 -11.182
REMARK INTRA:                  -0.985
REMARK UNBOUND:                -0.972
REMARK  Name = 
REMARK  6 active torsions:
REMARK  status: ('A' for Active; 'I' for Inactive)
REMARK    1  A    between atoms: C_2  and  C_19
REMARK    2  A    between atoms: N_3  and  C_4
REMARK    3  A    between atoms: C_4  and  C_5
REMARK    4  A    between atoms: C_8  and  C_9
REMARK    5  A    between atoms: C_9  and  N_10
REMARK    6  A    between atoms: N_10  and  C_11
REMARK                            x       y       z     vdW  Elec       q    Type
REMARK                         _______ _______ _______ _____ _____    ______ ____
ROOT
ATOM      1  C   UNL     1      47.995   6.550  13.764  0.00  0.00    +0.000 C 
ENDROOT
BRANCH   1   2
ATOM      2  C   UNL     1      46.936   5.952  12.871  0.00  0.00    +0.000 A 
ATOM      3  C   UNL     1      46.581   6.572  11.665  0.00  0.00    +0.000 A 
ATOM      4  C   UNL     1      45.627   5.996  10.814  0.00  0.00    +0.000 A 
ATOM      5  C   UNL     1      44.987   4.799  11.164  0.00  0.00    +0.000 A 
ATOM      6  C   UNL     1      45.339   4.183  12.374  0.00  0.00    +0.000 A 
ATOM      7  C   UNL     1      46.292   4.760  13.225  0.00  0.00    +0.000 A 
BRANCH   5   8
ATOM      8  C   UNL     1      43.918   4.194  10.276  0.00  0.00    +0.000 C 
BRANCH   8   9
ATOM      9  N   UNL     1      44.291   4.278   8.871  0.00  0.00    +0.000 N 
ATOM     10  H   UNL     1      43.493   4.417   8.256  0.00  0.00    +0.000 HD
BRANCH   9  11
ATOM     11  C   UNL     1      45.206   3.369   8.326  0.00  0.00    +0.000 A 
ATOM     12  C   UNL     1      45.316   2.030   8.721  0.00  0.00    +0.000 A 
ATOM     13  C   UNL     1      46.281   1.182   8.162  0.00  0.00    +0.000 A 
ATOM     14  C   UNL     1      47.185   1.669   7.223  0.00  0.00    +0.000 A 
ATOM     15  C   UNL     1      47.131   3.009   6.856  0.00  0.00    +0.000 A 
ATOM     16  C   UNL     1      46.156   3.848   7.410  0.00  0.00    +0.000 A 
ENDBRANCH   9  11
ENDBRANCH   8   9
ENDBRANCH   5   8
ENDBRANCH   1   2
BRANCH   1  19
ATOM     17  O   UNL     1      50.072   6.465  15.592  0.00  0.00    +0.000 OA
ATOM     18  C   UNL     1      48.943   6.181  15.986  0.00  0.00    +0.000 C 
ATOM     19  N   UNL     1      47.865   6.124  15.135  0.00  0.00    +0.000 N 
ATOM     20  H   UNL     1      46.927   6.109  15.524  0.00  0.00    +0.000 HD
BRANCH  18  21
ATOM     21  C   UNL     1      48.686   5.850  17.394  0.00  0.00    +0.000 A 
ATOM     22  C   UNL     1      48.896   4.560  17.854  0.00  0.00    +0.000 A 
ATOM     23  S   UNL     1      48.548   4.367  19.515  0.00  0.00    +0.000 S 
ATOM     24  C   UNL     1      48.152   6.013  19.679  0.00  0.00    +0.000 A 
ATOM     25  N   UNL     1      47.792   6.533  20.883  0.00  0.00    +0.000 NA
ATOM     26  C   UNL     1      47.560   7.805  20.867  0.00  0.00    +0.000 A 
ATOM     27  N   UNL     1      47.646   8.601  19.754  0.00  0.00    +0.000 N 
ATOM     28  C   UNL     1      47.955   8.112  18.508  0.00  0.00    +0.000 A 
ATOM     29  O   UNL     1      47.944   8.836  17.520  0.00  0.00    +0.000 OA
ATOM     30  C   UNL     1      48.256   6.693  18.478  0.00  0.00    +0.000 A 
ATOM     31  H   UNL     1      47.429   9.585  19.803  0.00  0.00    +0.000 HD
ENDBRANCH  18  21
ENDBRANCH   1  19
TORSDOF 6
ENDMDL
MODEL 4
REMARK VINA RESULT:    -7.830      2.589      4.371
REMARK INTER + INTRA:         -11.548
REMARK INTER:                 -10.298
REMARK INTRA:                  -1.250
REMARK UNBOUND:                -0.972
REMARK  Name = 
REMARK  6 active torsions:
REMARK  status: ('A' for Active; 'I' for Inactive)
REMARK    1  A    between atoms: C_2  and  C_19
REMARK    2  A    between atoms: N_3  and  C_4
REMARK    3  A    between atoms: C_4  and  C_5
REMARK    4  A    between atoms: C_8  and  C_9
REMARK    5  A    between atoms: C_9  and  N_10
REMARK    6  A    between atoms: N_10  and  C_11
REMARK                            x       y       z     vdW  Elec       q    Type
REMARK                         _______ _______ _______ _____ _____    ______ ____
ROOT
ATOM      1  C   UNL     1      47.284   5.321  14.419  0.00  0.00    +0.000 C 
ENDROOT
BRANCH   1   2
ATOM      2  C   UNL     1      46.448   5.020  13.199  0.00  0.00    +0.000 A 
ATOM      3  C   UNL     1      45.861   3.759  13.025  0.00  0.00    +0.000 A 
ATOM      4  C   UNL     1      45.050   3.491  11.914  0.00  0.00    +0.000 A 
ATOM      5  C   UNL     1      44.828   4.471  10.937  0.00  0.00    +0.000 A 
ATOM      6  C   UNL     1      45.422   5.731  11.109  0.00  0.00    +0.000 A 
ATOM      7  C   UNL     1      46.233   5.997  12.220  0.00  0.00    +0.000 A 
BRANCH   5   8
ATOM      8  C   UNL     1      43.995   4.175   9.706  0.00  0.00    +0.000 C 
BRANCH   8   9
ATOM      9  N   UNL     1      44.770   4.360   8.488  0.00  0.00    +0.000 N 
ATOM     10  H   UNL     1      44.234   4.787   7.736  0.00  0.00    +0.000 HD
BRANCH   9  11
ATOM     11  C   UNL     1      45.594   3.333   8.011  0.00  0.00    +0.000 A 
ATOM     12  C   UNL     1      45.571   2.018   8.491  0.00  0.00    +0.000 A 
ATOM     13  C   UNL     1      46.451   1.046   7.996  0.00  0.00    +0.000 A 
ATOM     14  C   UNL     1      47.402   1.382   7.037  0.00  0.00    +0.000 A 
ATOM     15  C   UNL     1      47.479   2.695   6.585  0.00  0.00    +0.000 A 
ATOM     16  C   UNL     1      46.589   3.658   7.075  0.00  0.00    +0.000 A 
ENDBRANCH   9  11
ENDBRANCH   8   9
ENDBRANCH   5   8
ENDBRANCH   1   2
BRANCH   1  19
ATOM     17  O   UNL     1      49.599   6.152  15.689  0.00  0.00    +0.000 OA
ATOM     18  C   UNL     1      48.970   6.980  15.033  0.00  0.00    +0.000 C 
ATOM     19  N   UNL     1      47.772   6.678  14.431  0.00  0.00    +0.000 N 
ATOM     20  H   UNL     1      47.400   7.306  13.725  0.00  0.00    +0.000 HD
BRANCH  18  21
ATOM     21  C   UNL     1      49.449   8.361  14.886  0.00  0.00    +0.000 A 
ATOM     22  C   UNL     1      49.661   9.147  16.007  0.00  0.00    +0.000 A 
ATOM     23  S   UNL     1      50.221  10.718  15.638  0.00  0.00    +0.000 S 
ATOM     24  C   UNL     1      50.242  10.378  13.972  0.00  0.00    +0.000 A 
ATOM     25  N   UNL     1      50.664  11.305  13.071  0.00  0.00    +0.000 NA
ATOM     26  C   UNL     1      50.666  10.894  11.845  0.00  0.00    +0.000 A 
ATOM     27  N   UNL     1      50.275   9.645  11.438  0.00  0.00    +0.000 N 
ATOM     28  C   UNL     1      49.794   8.694  12.305  0.00  0.00    +0.000 A 
ATOM     29  O   UNL     1      49.377   7.616  11.899  0.00  0.00    +0.000 OA
ATOM     30  C   UNL     1      49.801   9.095  13.700  0.00  0.00    +0.000 A 
ATOM     31  H   UNL     1      50.278   9.393  10.461  0.00  0.00    +0.000 HD
ENDBRANCH  18  21
ENDBRANCH   1  19
TORSDOF 6
ENDMDL
MODEL 5
REMARK VINA RESULT:    -7.811      2.275      2.828
REMARK INTER + INTRA:         -11.522
REMARK INTER:                 -10.571
REMARK INTRA:                  -0.951
REMARK UNBOUND:                -0.972
REMARK  Name = 
REMARK  6 active torsions:
REMARK  status: ('A' for Active; 'I' for Inactive)
REMARK    1  A    between atoms: C_2  and  C_19
REMARK    2  A    between atoms: N_3  and  C_4
REMARK    3  A    between atoms: C_4  and  C_5
REMARK    4  A    between atoms: C_8  and  C_9
REMARK    5  A    between atoms: C_9  and  N_10
REMARK    6  A    between atoms: N_10  and  C_11
REMARK                            x       y       z     vdW  Elec       q    Type
REMARK                         _______ _______ _______ _____ _____    ______ ____
ROOT
ATOM      1  C   UNL     1      46.544   4.188  15.483  0.00  0.00    +0.000 C 
ENDROOT
BRANCH   1   2
ATOM      2  C   UNL     1      46.347   4.572  14.037  0.00  0.00    +0.000 A 
ATOM      3  C   UNL     1      45.489   3.834  13.210  0.00  0.00    +0.000 A 
ATOM      4  C   UNL     1      45.273   4.214  11.878  0.00  0.00    +0.000 A 
ATOM      5  C   UNL     1      45.932   5.326  11.335  0.00  0.00    +0.000 A 
ATOM      6  C   UNL     1      46.795   6.060  12.163  0.00  0.00    +0.000 A 
ATOM      7  C   UNL     1      47.011   5.679  13.494  0.00  0.00    +0.000 A 
BRANCH   5   8
ATOM      8  C   UNL     1      45.744   5.715   9.882  0.00  0.00    +0.000 C 
BRANCH   8   9
ATOM      9  N   UNL     1      45.029   4.682   9.149  0.00  0.00    +0.000 N 
ATOM     10  H   UNL     1      44.248   4.291   9.672  0.00  0.00    +0.000 HD
BRANCH   9  11
ATOM     11  C   UNL     1      45.732   3.688   8.458  0.00  0.00    +0.000 A 
ATOM     12  C   UNL     1      46.544   3.928   7.342  0.00  0.00    +0.000 A 
ATOM     13  C   UNL     1      47.190   2.881   6.672  0.00  0.00    +0.000 A 
ATOM     14  C   UNL     1      47.004   1.564   7.081  0.00  0.00    +0.000 A 
ATOM     15  C   UNL     1      46.159   1.296   8.153  0.00  0.00    +0.000 A 
ATOM     16  C   UNL     1      45.526   2.348   8.824  0.00  0.00    +0.000 A 
ENDBRANCH   9  11
ENDBRANCH   8   9
ENDBRANCH   5   8
ENDBRANCH   1   2
BRANCH   1  19
ATOM     17  O   UNL     1      47.529   5.181  17.872  0.00  0.00    +0.000 OA
ATOM     18  C   UNL     1      48.317   4.633  17.105  0.00  0.00    +0.000 C 
ATOM     19  N   UNL     1      47.934   4.177  15.866  0.00  0.00    +0.000 N 
ATOM     20  H   UNL     1      48.544   3.542  15.362  0.00  0.00    +0.000 HD
BRANCH  18  21
ATOM     21  C   UNL     1      49.733   4.465  17.457  0.00  0.00    +0.000 A 
ATOM     22  C   UNL     1      50.455   5.534  17.966  0.00  0.00    +0.000 A 
ATOM     23  S   UNL     1      52.080   5.148  18.319  0.00  0.00    +0.000 S 
ATOM     24  C   UNL     1      51.855   3.529  17.847  0.00  0.00    +0.000 A 
ATOM     25  N   UNL     1      52.867   2.624  17.935  0.00  0.00    +0.000 NA
ATOM     26  C   UNL     1      52.541   1.424  17.583  0.00  0.00    +0.000 A 
ATOM     27  N   UNL     1      51.298   1.049  17.141  0.00  0.00    +0.000 N 
ATOM     28  C   UNL     1      50.261   1.937  16.987  0.00  0.00    +0.000 A 
ATOM     29  O   UNL     1      49.188   1.585  16.513  0.00  0.00    +0.000 OA
ATOM     30  C   UNL     1      50.567   3.295  17.400  0.00  0.00    +0.000 A 
ATOM     31  H   UNL     1      51.113   0.098  16.858  0.00  0.00    +0.000 HD
ENDBRANCH  18  21
ENDBRANCH   1  19
TORSDOF 6
ENDMDL
MODEL 6
REMARK VINA RESULT:    -7.655      2.146      2.872
REMARK INTER + INTRA:         -11.312
REMARK INTER:                 -10.399
REMARK INTRA:                  -0.913
REMARK UNBOUND:                -0.972
REMARK  Name = 
REMARK  6 active torsions:
REMARK  status: ('A' for Active; 'I' for Inactive)
REMARK    1  A    between atoms: C_2  and  C_19
REMARK    2  A    between atoms: N_3  and  C_4
REMARK    3  A    between atoms: C_4  and  C_5
REMARK    4  A    between atoms: C_8  and  C_9
REMARK    5  A    between atoms: C_9  and  N_10
REMARK    6  A    between atoms: N_10  and  C_11
REMARK                            x       y       z     vdW  Elec       q    Type
REMARK                         _______ _______ _______ _____ _____    ______ ____
ROOT
ATOM      1  C   UNL     1      47.044   4.113  14.812  0.00  0.00    +0.000 C 
ENDROOT
BRANCH   1   2
ATOM      2  C   UNL     1      46.395   4.275  13.460  0.00  0.00    +0.000 A 
ATOM      3  C   UNL     1      45.649   3.232  12.893  0.00  0.00    +0.000 A 
ATOM      4  C   UNL     1      45.011   3.394  11.656  0.00  0.00    +0.000 A 
ATOM      5  C   UNL     1      45.127   4.596  10.944  0.00  0.00    +0.000 A 
ATOM      6  C   UNL     1      45.880   5.637  11.509  0.00  0.00    +0.000 A 
ATOM      7  C   UNL     1      46.518   5.473  12.746  0.00  0.00    +0.000 A 
BRANCH   5   8
ATOM      8  C   UNL     1      44.484   4.765   9.582  0.00  0.00    +0.000 C 
BRANCH   8   9
ATOM      9  N   UNL     1      44.329   3.483   8.910  0.00  0.00    +0.000 N 
ATOM     10  H   UNL     1      43.831   2.797   9.472  0.00  0.00    +0.000 HD
BRANCH   9  11
ATOM     11  C   UNL     1      45.410   2.904   8.234  0.00  0.00    +0.000 A 
ATOM     12  C   UNL     1      46.157   3.552   7.242  0.00  0.00    +0.000 A 
ATOM     13  C   UNL     1      47.203   2.900   6.575  0.00  0.00    +0.000 A 
ATOM     14  C   UNL     1      47.497   1.570   6.859  0.00  0.00    +0.000 A 
ATOM     15  C   UNL     1      46.733   0.889   7.801  0.00  0.00    +0.000 A 
ATOM     16  C   UNL     1      45.697   1.550   8.472  0.00  0.00    +0.000 A 
ENDBRANCH   9  11
ENDBRANCH   8   9
ENDBRANCH   5   8
ENDBRANCH   1   2
BRANCH   1  19
ATOM     17  O   UNL     1      49.162   4.541  16.542  0.00  0.00    +0.000 OA
ATOM     18  C   UNL     1      48.475   5.507  16.220  0.00  0.00    +0.000 C 
ATOM     19  N   UNL     1      47.359   5.379  15.427  0.00  0.00    +0.000 N 
ATOM     20  H   UNL     1      46.955   6.208  15.004  0.00  0.00    +0.000 HD
BRANCH  18  21
ATOM     21  C   UNL     1      48.788   6.860  16.698  0.00  0.00    +0.000 A 
ATOM     22  C   UNL     1      49.490   7.739  15.889  0.00  0.00    +0.000 A 
ATOM     23  S   UNL     1      49.756   9.263  16.612  0.00  0.00    +0.000 S 
ATOM     24  C   UNL     1      48.900   8.809  18.010  0.00  0.00    +0.000 A 
ATOM     25  N   UNL     1      48.718   9.682  19.037  0.00  0.00    +0.000 NA
ATOM     26  C   UNL     1      48.013   9.215  20.015  0.00  0.00    +0.000 A 
ATOM     27  N   UNL     1      47.483   7.952  20.064  0.00  0.00    +0.000 N 
ATOM     28  C   UNL     1      47.684   7.019  19.074  0.00  0.00    +0.000 A 
ATOM     29  O   UNL     1      47.265   5.874  19.186  0.00  0.00    +0.000 OA
ATOM     30  C   UNL     1      48.443   7.505  17.937  0.00  0.00    +0.000 A 
ATOM     31  H   UNL     1      46.960   7.639  20.868  0.00  0.00    +0.000 HD
ENDBRANCH  18  21
ENDBRANCH   1  19
TORSDOF 6
ENDMDL
MODEL 7
REMARK VINA RESULT:    -7.632      2.748      4.246
REMARK INTER + INTRA:         -11.280
REMARK INTER:                 -10.211
REMARK INTRA:                  -1.070
REMARK UNBOUND:                -0.972
REMARK  Name = 
REMARK  6 active torsions:
REMARK  status: ('A' for Active; 'I' for Inactive)
REMARK    1  A    between atoms: C_2  and  C_19
REMARK    2  A    between atoms: N_3  and  C_4
REMARK    3  A    between atoms: C_4  and  C_5
REMARK    4  A    between atoms: C_8  and  C_9
REMARK    5  A    between atoms: C_9  and  N_10
REMARK    6  A    between atoms: N_10  and  C_11
REMARK                            x       y       z     vdW  Elec       q    Type
REMARK                         _______ _______ _______ _____ _____    ______ ____
ROOT
ATOM      1  C   UNL     1      47.370   5.402  14.682  0.00  0.00    +0.000 C 
ENDROOT
BRANCH   1   2
ATOM      2  C   UNL     1      46.502   5.116  13.481  0.00  0.00    +0.000 A 
ATOM      3  C   UNL     1      46.222   6.120  12.543  0.00  0.00    +0.000 A 
ATOM      4  C   UNL     1      45.451   5.845  11.405  0.00  0.00    +0.000 A 
ATOM      5  C   UNL     1      44.919   4.566  11.193  0.00  0.00    +0.000 A 
ATOM      6  C   UNL     1      45.195   3.564  12.136  0.00  0.00    +0.000 A 
ATOM      7  C   UNL     1      45.965   3.840  13.274  0.00  0.00    +0.000 A 
BRANCH   5   8
ATOM      8  C   UNL     1      44.042   4.272   9.993  0.00  0.00    +0.000 C 
BRANCH   8   9
ATOM      9  N   UNL     1      44.768   4.473   8.748  0.00  0.00    +0.000 N 
ATOM     10  H   UNL     1      44.207   4.924   8.028  0.00  0.00    +0.000 HD
BRANCH   9  11
ATOM     11  C   UNL     1      45.557   3.447   8.214  0.00  0.00    +0.000 A 
ATOM     12  C   UNL     1      45.483   2.106   8.615  0.00  0.00    +0.000 A 
ATOM     13  C   UNL     1      46.329   1.134   8.067  0.00  0.00    +0.000 A 
ATOM     14  C   UNL     1      47.298   1.490   7.134  0.00  0.00    +0.000 A 
ATOM     15  C   UNL     1      47.427   2.823   6.761  0.00  0.00    +0.000 A 
ATOM     16  C   UNL     1      46.570   3.788   7.304  0.00  0.00    +0.000 A 
ENDBRANCH   9  11
ENDBRANCH   8   9
ENDBRANCH   5   8
ENDBRANCH   1   2
BRANCH   1  19
ATOM     17  O   UNL     1      49.786   6.027  15.880  0.00  0.00    +0.000 OA
ATOM     18  C   UNL     1      49.254   6.880  15.173  0.00  0.00    +0.000 C 
ATOM     19  N   UNL     1      48.020   6.687  14.599  0.00  0.00    +0.000 N 
ATOM     20  H   UNL     1      47.718   7.306  13.854  0.00  0.00    +0.000 HD
BRANCH  18  21
ATOM     21  C   UNL     1      49.895   8.178  14.929  0.00  0.00    +0.000 A 
ATOM     22  C   UNL     1      50.966   8.271  14.054  0.00  0.00    +0.000 A 
ATOM     23  S   UNL     1      51.577   9.858  13.895  0.00  0.00    +0.000 S 
ATOM     24  C   UNL     1      50.399  10.475  14.956  0.00  0.00    +0.000 A 
ATOM     25  N   UNL     1      50.334  11.804  15.237  0.00  0.00    +0.000 NA
ATOM     26  C   UNL     1      49.363  12.136  16.025  0.00  0.00    +0.000 A 
ATOM     27  N   UNL     1      48.459  11.258  16.563  0.00  0.00    +0.000 N 
ATOM     28  C   UNL     1      48.516   9.901  16.349  0.00  0.00    +0.000 A 
ATOM     29  O   UNL     1      47.742   9.136  16.911  0.00  0.00    +0.000 OA
ATOM     30  C   UNL     1      49.570   9.480  15.445  0.00  0.00    +0.000 A 
ATOM     31  H   UNL     1      47.736  11.577  17.191  0.00  0.00    +0.000 HD
ENDBRANCH  18  21
ENDBRANCH   1  19
TORSDOF 6
ENDMDL
MODEL 8
REMARK VINA RESULT:    -7.351      3.738      5.660
REMARK INTER + INTRA:         -10.902
REMARK INTER:                  -9.707
REMARK INTRA:                  -1.194
REMARK UNBOUND:                -0.972
REMARK  Name = 
REMARK  6 active torsions:
REMARK  status: ('A' for Active; 'I' for Inactive)
REMARK    1  A    between atoms: C_2  and  C_19
REMARK    2  A    between atoms: N_3  and  C_4
REMARK    3  A    between atoms: C_4  and  C_5
REMARK    4  A    between atoms: C_8  and  C_9
REMARK    5  A    between atoms: C_9  and  N_10
REMARK    6  A    between atoms: N_10  and  C_11
REMARK                            x       y       z     vdW  Elec       q    Type
REMARK                         _______ _______ _______ _____ _____    ______ ____
ROOT
ATOM      1  C   UNL     1      46.832   7.539  13.211  0.00  0.00    +0.000 C 
ENDROOT
BRANCH   1   2
ATOM      2  C   UNL     1      46.169   6.381  12.507  0.00  0.00    +0.000 A 
ATOM      3  C   UNL     1      45.696   6.516  11.194  0.00  0.00    +0.000 A 
ATOM      4  C   UNL     1      45.117   5.429  10.523  0.00  0.00    +0.000 A 
ATOM      5  C   UNL     1      44.974   4.189  11.160  0.00  0.00    +0.000 A 
ATOM      6  C   UNL     1      45.442   4.058  12.477  0.00  0.00    +0.000 A 
ATOM      7  C   UNL     1      46.019   5.145  13.147  0.00  0.00    +0.000 A 
BRANCH   5   8
ATOM      8  C   UNL     1      44.304   3.023  10.462  0.00  0.00    +0.000 C 
BRANCH   8   9
ATOM      9  N   UNL     1      44.346   3.180   9.016  0.00  0.00    +0.000 N 
ATOM     10  H   UNL     1      43.481   2.900   8.560  0.00  0.00    +0.000 HD
BRANCH   9  11
ATOM     11  C   UNL     1      45.467   2.759   8.290  0.00  0.00    +0.000 A 
ATOM     12  C   UNL     1      46.165   3.565   7.381  0.00  0.00    +0.000 A 
ATOM     13  C   UNL     1      47.257   3.068   6.657  0.00  0.00    +0.000 A 
ATOM     14  C   UNL     1      47.648   1.741   6.797  0.00  0.00    +0.000 A 
ATOM     15  C   UNL     1      46.936   0.907   7.652  0.00  0.00    +0.000 A 
ATOM     16  C   UNL     1      45.853   1.412   8.381  0.00  0.00    +0.000 A 
ENDBRANCH   9  11
ENDBRANCH   8   9
ENDBRANCH   5   8
ENDBRANCH   1   2
BRANCH   1  19
ATOM     17  O   UNL     1      49.492   6.873  13.592  0.00  0.00    +0.000 OA
ATOM     18  C   UNL     1      49.213   7.642  12.674  0.00  0.00    +0.000 C 
ATOM     19  N   UNL     1      47.931   8.087  12.456  0.00  0.00    +0.000 N 
ATOM     20  H   UNL     1      47.705   8.531  11.572  0.00  0.00    +0.000 HD
BRANCH  18  21
ATOM     21  C   UNL     1      50.250   8.161  11.773  0.00  0.00    +0.000 A 
ATOM     22  C   UNL     1      51.019   7.287  11.020  0.00  0.00    +0.000 A 
ATOM     23  S   UNL     1      52.167   8.073  10.031  0.00  0.00    +0.000 S 
ATOM     24  C   UNL     1      51.639   9.606  10.543  0.00  0.00    +0.000 A 
ATOM     25  N   UNL     1      52.194  10.744  10.043  0.00  0.00    +0.000 NA
ATOM     26  C   UNL     1      51.665  11.835  10.490  0.00  0.00    +0.000 A 
ATOM     27  N   UNL     1      50.640  11.893  11.399  0.00  0.00    +0.000 N 
ATOM     28  C   UNL     1      50.084  10.773  11.970  0.00  0.00    +0.000 A 
ATOM     29  O   UNL     1      49.226  10.862  12.838  0.00  0.00    +0.000 OA
ATOM     30  C   UNL     1      50.622   9.518  11.476  0.00  0.00    +0.000 A 
ATOM     31  H   UNL     1      50.287  12.779  11.727  0.00  0.00    +0.000 HD
ENDBRANCH  18  21
ENDBRANCH   1  19
TORSDOF 6
ENDMDL
MODEL 9
REMARK VINA RESULT:    -7.274      3.795      6.042
REMARK INTER + INTRA:         -10.797
REMARK INTER:                  -9.686
REMARK INTRA:                  -1.111
REMARK UNBOUND:                -0.972
REMARK  Name = 
REMARK  6 active torsions:
REMARK  status: ('A' for Active; 'I' for Inactive)
REMARK    1  A    between atoms: C_2  and  C_19
REMARK    2  A    between atoms: N_3  and  C_4
REMARK    3  A    between atoms: C_4  and  C_5
REMARK    4  A    between atoms: C_8  and  C_9
REMARK    5  A    between atoms: C_9  and  N_10
REMARK    6  A    between atoms: N_10  and  C_11
REMARK                            x       y       z     vdW  Elec       q    Type
REMARK                         _______ _______ _______ _____ _____    ______ ____
ROOT
ATOM      1  C   UNL     1      47.325   6.943  13.474  0.00  0.00    +0.000 C 
ENDROOT
BRANCH   1   2
ATOM      2  C   UNL     1      46.514   5.951  12.677  0.00  0.00    +0.000 A 
ATOM      3  C   UNL     1      46.038   6.276  11.399  0.00  0.00    +0.000 A 
ATOM      4  C   UNL     1      45.320   5.341  10.641  0.00  0.00    +0.000 A 
ATOM      5  C   UNL     1      45.037   4.068  11.155  0.00  0.00    +0.000 A 
ATOM      6  C   UNL     1      45.508   3.748  12.438  0.00  0.00    +0.000 A 
ATOM      7  C   UNL     1      46.225   4.683  13.195  0.00  0.00    +0.000 A 
BRANCH   5   8
ATOM      8  C   UNL     1      44.218   3.068  10.364  0.00  0.00    +0.000 C 
BRANCH   8   9
ATOM      9  N   UNL     1      44.328   3.311   8.934  0.00  0.00    +0.000 N 
ATOM     10  H   UNL     1      43.439   3.227   8.446  0.00  0.00    +0.000 HD
BRANCH   9  11
ATOM     11  C   UNL     1      45.372   2.739   8.196  0.00  0.00    +0.000 A 
ATOM     12  C   UNL     1      45.850   1.437   8.389  0.00  0.00    +0.000 A 
ATOM     13  C   UNL     1      46.926   0.938   7.642  0.00  0.00    +0.000 A 
ATOM     14  C   UNL     1      47.573   1.748   6.715  0.00  0.00    +0.000 A 
ATOM     15  C   UNL     1      47.151   3.062   6.546  0.00  0.00    +0.000 A 
ATOM     16  C   UNL     1      46.069   3.551   7.287  0.00  0.00    +0.000 A 
ENDBRANCH   9  11
ENDBRANCH   8   9
ENDBRANCH   5   8
ENDBRANCH   1   2
BRANCH   1  19
ATOM     17  O   UNL     1      48.467   9.248  14.496  0.00  0.00    +0.000 OA
ATOM     18  C   UNL     1      48.372   9.143  13.275  0.00  0.00    +0.000 C 
ATOM     19  N   UNL     1      47.752   8.069  12.681  0.00  0.00    +0.000 N 
ATOM     20  H   UNL     1      47.887   7.907  11.688  0.00  0.00    +0.000 HD
BRANCH  18  21
ATOM     21  C   UNL     1      48.886  10.184  12.376  0.00  0.00    +0.000 A 
ATOM     22  C   UNL     1      50.251  10.400  12.271  0.00  0.00    +0.000 A 
ATOM     23  S   UNL     1      50.659  11.646  11.177  0.00  0.00    +0.000 S 
ATOM     24  C   UNL     1      49.025  11.901  10.775  0.00  0.00    +0.000 A 
ATOM     25  N   UNL     1      48.667  12.828   9.847  0.00  0.00    +0.000 NA
ATOM     26  C   UNL     1      47.397  12.884   9.612  0.00  0.00    +0.000 A 
ATOM     27  N   UNL     1      46.453  12.105  10.229  0.00  0.00    +0.000 N 
ATOM     28  C   UNL     1      46.762  11.192  11.209  0.00  0.00    +0.000 A 
ATOM     29  O   UNL     1      45.886  10.569  11.797  0.00  0.00    +0.000 OA
ATOM     30  C   UNL     1      48.181  11.068  11.487  0.00  0.00    +0.000 A 
ATOM     31  H   UNL     1      45.472  12.213  10.017  0.00  0.00    +0.000 HD
ENDBRANCH  18  21
ENDBRANCH   1  19
TORSDOF 6
ENDMDL
