MODEL 1
REMARK VINA RESULT:    -6.666      0.000      0.000
REMARK INTER + INTRA:         -11.231
REMARK INTER:                  -9.783
REMARK INTRA:                  -1.448
REMARK UNBOUND:                -1.448
REMARK  Name = 
REMARK  9 active torsions:
REMARK  status: ('A' for Active; 'I' for Inactive)
REMARK    1  A    between atoms: C_1  and  O_2
REMARK    2  A    between atoms: O_2  and  C_3
REMARK    3  A    between atoms: C_3  and  C_4
REMARK    4  A    between atoms: C_4  and  N_5
REMARK    5  A    between atoms: N_5  and  C_6
REMARK    6  A    between atoms: C_6  and  C_7
REMARK    7  A    between atoms: C_10  and  C_11
REMARK    8  A    between atoms: C_11  and  N_12
REMARK    9  A    between atoms: C_20  and  C_22
REMARK                            x       y       z     vdW  Elec       q    Type
REMARK                         _______ _______ _______ _____ _____    ______ ____
ROOT
ATOM      1  N   UNL     1      46.043   7.093  12.438  0.00  0.00    +0.000 N 
ATOM      2  C   UNL     1      44.836   6.702  11.821  0.00  0.00    +0.000 C 
ATOM      3  O   UNL     1      44.027   7.524  11.403  0.00  0.00    +0.000 OA
ENDROOT
BRANCH   2   4
ATOM      4  C   UNL     1      44.511   5.273  11.678  0.00  0.00    +0.000 A 
ATOM      5  C   UNL     1      43.788   4.522  12.590  0.00  0.00    +0.000 A 
ATOM      6  S   UNL     1      43.510   2.914  12.082  0.00  0.00    +0.000 S 
ATOM      7  C   UNL     1      44.223   3.213  10.567  0.00  0.00    +0.000 A 
ATOM      8  N   UNL     1      44.216   2.267   9.590  0.00  0.00    +0.000 NA
ATOM      9  C   UNL     1      44.723   2.664   8.469  0.00  0.00    +0.000 A 
ATOM     10  N   UNL     1      45.275   3.900   8.253  0.00  0.00    +0.000 N 
ATOM     11  C   UNL     1      45.441   4.831   9.256  0.00  0.00    +0.000 A 
ATOM     12  O   UNL     1      46.168   5.804   9.093  0.00  0.00    +0.000 OA
ATOM     13  C   UNL     1      44.759   4.483  10.493  0.00  0.00    +0.000 A 
ATOM     14  H   UNL     1      45.724   4.118   7.376  0.00  0.00    +0.000 HD
ENDBRANCH   2   4
BRANCH   1  15
ATOM     15  C   UNL     1      46.340   8.544  12.497  0.00  0.00    +0.000 C 
BRANCH  15  16
ATOM     16  C   UNL     1      47.752   9.049  12.139  0.00  0.00    +0.000 C 
BRANCH  16  18
ATOM     17  C   UNL     1      46.429  10.938  11.718  0.00  0.00    +0.000 C 
ATOM     18  O   UNL     1      47.720  10.354  11.549  0.00  0.00    +0.000 OA
ENDBRANCH  16  18
ENDBRANCH  15  16
ENDBRANCH   1  15
BRANCH   1  19
ATOM     19  C   UNL     1      47.166   6.136  12.559  0.00  0.00    +0.000 C 
BRANCH  19  20
ATOM     20  C   UNL     1      47.540   5.674  13.950  0.00  0.00    +0.000 A 
ATOM     21  C   UNL     1      46.966   4.506  14.473  0.00  0.00    +0.000 A 
ATOM     22  C   UNL     1      47.168   4.151  15.806  0.00  0.00    +0.000 A 
ATOM     23  C   UNL     1      47.968   4.942  16.642  0.00  0.00    +0.000 A 
ATOM     24  C   UNL     1      48.607   6.067  16.088  0.00  0.00    +0.000 A 
ATOM     25  C   UNL     1      48.390   6.434  14.761  0.00  0.00    +0.000 A 
BRANCH  23  26
ATOM     26  C   UNL     1      48.038   4.657  18.125  0.00  0.00    +0.000 C 
BRANCH  26  27
ATOM     27  N   UNL     1      48.609   5.657  19.013  0.00  0.00    +0.000 NA
ATOM     28  C   UNL     1      49.671   5.207  19.912  0.00  0.00    +0.000 C 
ATOM     29  C   UNL     1      49.192   4.812  21.318  0.00  0.00    +0.000 C 
ATOM     30  O   UNL     1      48.420   5.860  21.918  0.00  0.00    +0.000 OA
ATOM     31  C   UNL     1      47.276   6.162  21.111  0.00  0.00    +0.000 C 
ATOM     32  C   UNL     1      47.673   6.565  19.682  0.00  0.00    +0.000 C 
ENDBRANCH  26  27
ENDBRANCH  23  26
ENDBRANCH  19  20
ENDBRANCH   1  19
TORSDOF 8
ENDMDL
MODEL 2
REMARK VINA RESULT:    -5.856      3.252      7.921
REMARK INTER + INTRA:         -10.043
REMARK INTER:                  -8.295
REMARK INTRA:                  -1.748
REMARK UNBOUND:                -1.448
REMARK  Name = 
REMARK  9 active torsions:
REMARK  status: ('A' for Active; 'I' for Inactive)
REMARK    1  A    between atoms: C_1  and  O_2
REMARK    2  A    between atoms: O_2  and  C_3
REMARK    3  A    between atoms: C_3  and  C_4
REMARK    4  A    between atoms: C_4  and  N_5
REMARK    5  A    between atoms: N_5  and  C_6
REMARK    6  A    between atoms: C_6  and  C_7
REMARK    7  A    between atoms: C_10  and  C_11
REMARK    8  A    between atoms: C_11  and  N_12
REMARK    9  A    between atoms: C_20  and  C_22
REMARK                            x       y       z     vdW  Elec       q    Type
REMARK                         _______ _______ _______ _____ _____    ______ ____
ROOT
ATOM      1  N   UNL     1      49.553   8.996  14.998  0.00  0.00    +0.000 N 
ATOM      2  C   UNL     1      50.095   8.805  16.287  0.00  0.00    +0.000 C 
ATOM      3  O   UNL     1      51.290   8.963  16.516  0.00  0.00    +0.000 OA
ENDROOT
BRANCH   2   4
ATOM      4  C   UNL     1      49.223   8.392  17.399  0.00  0.00    +0.000 A 
ATOM      5  C   UNL     1      48.594   9.251  18.284  0.00  0.00    +0.000 A 
ATOM      6  S   UNL     1      47.581   8.454  19.406  0.00  0.00    +0.000 S 
ATOM      7  C   UNL     1      47.841   6.951  18.653  0.00  0.00    +0.000 A 
ATOM      8  N   UNL     1      47.169   5.840  19.057  0.00  0.00    +0.000 NA
ATOM      9  C   UNL     1      47.410   4.790  18.342  0.00  0.00    +0.000 A 
ATOM     10  N   UNL     1      48.294   4.741  17.295  0.00  0.00    +0.000 N 
ATOM     11  C   UNL     1      49.107   5.801  16.952  0.00  0.00    +0.000 A 
ATOM     12  O   UNL     1      50.059   5.641  16.197  0.00  0.00    +0.000 OA
ATOM     13  C   UNL     1      48.768   7.040  17.634  0.00  0.00    +0.000 A 
ATOM     14  H   UNL     1      48.493   3.869  16.828  0.00  0.00    +0.000 HD
ENDBRANCH   2   4
BRANCH   1  15
ATOM     15  C   UNL     1      50.472   9.471  13.936  0.00  0.00    +0.000 C 
BRANCH  15  16
ATOM     16  C   UNL     1      51.076   8.459  12.941  0.00  0.00    +0.000 C 
BRANCH  16  18
ATOM     17  C   UNL     1      49.750   9.662  11.428  0.00  0.00    +0.000 C 
ATOM     18  O   UNL     1      50.321   8.389  11.727  0.00  0.00    +0.000 OA
ENDBRANCH  16  18
ENDBRANCH  15  16
ENDBRANCH   1  15
BRANCH   1  19
ATOM     19  C   UNL     1      48.099   9.206  14.821  0.00  0.00    +0.000 C 
BRANCH  19  20
ATOM     20  C   UNL     1      47.373   8.283  13.868  0.00  0.00    +0.000 A 
ATOM     21  C   UNL     1      47.769   6.941  13.760  0.00  0.00    +0.000 A 
ATOM     22  C   UNL     1      47.226   6.118  12.775  0.00  0.00    +0.000 A 
ATOM     23  C   UNL     1      46.258   6.609  11.889  0.00  0.00    +0.000 A 
ATOM     24  C   UNL     1      45.806   7.931  12.056  0.00  0.00    +0.000 A 
ATOM     25  C   UNL     1      46.361   8.761  13.027  0.00  0.00    +0.000 A 
BRANCH  23  26
ATOM     26  C   UNL     1      45.806   5.772  10.713  0.00  0.00    +0.000 C 
BRANCH  26  27
ATOM     27  N   UNL     1      44.430   5.305  10.662  0.00  0.00    +0.000 NA
ATOM     28  C   UNL     1      43.783   5.032  11.945  0.00  0.00    +0.000 C 
ATOM     29  C   UNL     1      43.844   3.562  12.390  0.00  0.00    +0.000 C 
ATOM     30  O   UNL     1      43.350   2.688  11.368  0.00  0.00    +0.000 OA
ATOM     31  C   UNL     1      44.119   2.837  10.168  0.00  0.00    +0.000 C 
ATOM     32  C   UNL     1      44.109   4.286   9.659  0.00  0.00    +0.000 C 
ENDBRANCH  26  27
ENDBRANCH  23  26
ENDBRANCH  19  20
ENDBRANCH   1  19
TORSDOF 8
ENDMDL
MODEL 3
REMARK VINA RESULT:    -5.821      3.525      8.818
REMARK INTER + INTRA:          -9.991
REMARK INTER:                  -8.927
REMARK INTRA:                  -1.064
REMARK UNBOUND:                -1.448
REMARK  Name = 
REMARK  9 active torsions:
REMARK  status: ('A' for Active; 'I' for Inactive)
REMARK    1  A    between atoms: C_1  and  O_2
REMARK    2  A    between atoms: O_2  and  C_3
REMARK    3  A    between atoms: C_3  and  C_4
REMARK    4  A    between atoms: C_4  and  N_5
REMARK    5  A    between atoms: N_5  and  C_6
REMARK    6  A    between atoms: C_6  and  C_7
REMARK    7  A    between atoms: C_10  and  C_11
REMARK    8  A    between atoms: C_11  and  N_12
REMARK    9  A    between atoms: C_20  and  C_22
REMARK                            x       y       z     vdW  Elec       q    Type
REMARK                         _______ _______ _______ _____ _____    ______ ____
ROOT
ATOM      1  N   UNL     1      49.138   6.237  18.450  0.00  0.00    +0.000 N 
ATOM      2  C   UNL     1      49.705   5.152  19.151  0.00  0.00    +0.000 C 
ATOM      3  O   UNL     1      49.117   4.600  20.075  0.00  0.00    +0.000 OA
ENDROOT
BRANCH   2   4
ATOM      4  C   UNL     1      51.046   4.662  18.789  0.00  0.00    +0.000 A 
ATOM      5  C   UNL     1      52.239   5.285  19.113  0.00  0.00    +0.000 A 
ATOM      6  S   UNL     1      53.622   4.410  18.620  0.00  0.00    +0.000 S 
ATOM      7  C   UNL     1      52.671   3.104  18.088  0.00  0.00    +0.000 A 
ATOM      8  N   UNL     1      53.245   1.954  17.644  0.00  0.00    +0.000 NA
ATOM      9  C   UNL     1      52.399   1.023  17.347  0.00  0.00    +0.000 A 
ATOM     10  N   UNL     1      51.036   1.155  17.411  0.00  0.00    +0.000 N 
ATOM     11  C   UNL     1      50.412   2.348  17.707  0.00  0.00    +0.000 A 
ATOM     12  O   UNL     1      49.214   2.497  17.497  0.00  0.00    +0.000 OA
ATOM     13  C   UNL     1      51.321   3.378  18.184  0.00  0.00    +0.000 A 
ATOM     14  H   UNL     1      50.430   0.413  17.092  0.00  0.00    +0.000 HD
ENDBRANCH   2   4
BRANCH   1  15
ATOM     15  C   UNL     1      47.761   6.643  18.822  0.00  0.00    +0.000 C 
BRANCH  15  16
ATOM     16  C   UNL     1      47.422   8.141  18.972  0.00  0.00    +0.000 C 
BRANCH  16  18
ATOM     17  C   UNL     1      47.414   7.419  21.203  0.00  0.00    +0.000 C 
ATOM     18  O   UNL     1      47.439   8.557  20.342  0.00  0.00    +0.000 OA
ENDBRANCH  16  18
ENDBRANCH  15  16
ENDBRANCH   1  15
BRANCH   1  19
ATOM     19  C   UNL     1      49.650   6.616  17.115  0.00  0.00    +0.000 C 
BRANCH  19  20
ATOM     20  C   UNL     1      48.833   6.203  15.911  0.00  0.00    +0.000 A 
ATOM     21  C   UNL     1      48.825   7.011  14.764  0.00  0.00    +0.000 A 
ATOM     22  C   UNL     1      47.955   6.738  13.710  0.00  0.00    +0.000 A 
ATOM     23  C   UNL     1      47.091   5.637  13.765  0.00  0.00    +0.000 A 
ATOM     24  C   UNL     1      47.163   4.783  14.882  0.00  0.00    +0.000 A 
ATOM     25  C   UNL     1      48.018   5.066  15.946  0.00  0.00    +0.000 A 
BRANCH  23  26
ATOM     26  C   UNL     1      46.027   5.448  12.707  0.00  0.00    +0.000 C 
BRANCH  26  27
ATOM     27  N   UNL     1      44.955   4.492  12.942  0.00  0.00    +0.000 NA
ATOM     28  C   UNL     1      45.019   3.238  12.191  0.00  0.00    +0.000 C 
ATOM     29  C   UNL     1      44.198   3.231  10.892  0.00  0.00    +0.000 C 
ATOM     30  O   UNL     1      42.840   3.620  11.131  0.00  0.00    +0.000 OA
ATOM     31  C   UNL     1      42.789   4.934  11.699  0.00  0.00    +0.000 C 
ATOM     32  C   UNL     1      43.591   5.024  13.007  0.00  0.00    +0.000 C 
ENDBRANCH  26  27
ENDBRANCH  23  26
ENDBRANCH  19  20
ENDBRANCH   1  19
TORSDOF 8
ENDMDL
MODEL 4
REMARK VINA RESULT:    -5.791      2.781      7.989
REMARK INTER + INTRA:          -9.947
REMARK INTER:                  -8.373
REMARK INTRA:                  -1.573
REMARK UNBOUND:                -1.448
REMARK  Name = 
REMARK  9 active torsions:
REMARK  status: ('A' for Active; 'I' for Inactive)
REMARK    1  A    between atoms: C_1  and  O_2
REMARK    2  A    between atoms: O_2  and  C_3
REMARK    3  A    between atoms: C_3  and  C_4
REMARK    4  A    between atoms: C_4  and  N_5
REMARK    5  A    between atoms: N_5  and  C_6
REMARK    6  A    between atoms: C_6  and  C_7
REMARK    7  A    between atoms: C_10  and  C_11
REMARK    8  A    between atoms: C_11  and  N_12
REMARK    9  A    between atoms: C_20  and  C_22
REMARK                            x       y       z     vdW  Elec       q    Type
REMARK                         _______ _______ _______ _____ _____    ______ ____
ROOT
ATOM      1  N   UNL     1      49.712   7.605  14.797  0.00  0.00    +0.000 N 
ATOM      2  C   UNL     1      50.082   6.813  15.905  0.00  0.00    +0.000 C 
ATOM      3  O   UNL     1      51.255   6.551  16.151  0.00  0.00    +0.000 OA
ENDROOT
BRANCH   2   4
ATOM      4  C   UNL     1      49.046   6.263  16.796  0.00  0.00    +0.000 A 
ATOM      5  C   UNL     1      48.398   5.053  16.616  0.00  0.00    +0.000 A 
ATOM      6  S   UNL     1      47.312   4.666  17.878  0.00  0.00    +0.000 S 
ATOM      7  C   UNL     1      47.782   6.035  18.772  0.00  0.00    +0.000 A 
ATOM      8  N   UNL     1      47.305   6.249  20.028  0.00  0.00    +0.000 NA
ATOM      9  C   UNL     1      47.810   7.285  20.614  0.00  0.00    +0.000 A 
ATOM     10  N   UNL     1      48.709   8.147  20.042  0.00  0.00    +0.000 N 
ATOM     11  C   UNL     1      49.099   8.055  18.722  0.00  0.00    +0.000 A 
ATOM     12  O   UNL     1      49.685   8.983  18.177  0.00  0.00    +0.000 OA
ATOM     13  C   UNL     1      48.669   6.828  18.072  0.00  0.00    +0.000 A 
ATOM     14  H   UNL     1      49.005   8.981  20.527  0.00  0.00    +0.000 HD
ENDBRANCH   2   4
BRANCH   1  15
ATOM     15  C   UNL     1      50.805   8.179  13.975  0.00  0.00    +0.000 C 
BRANCH  15  16
ATOM     16  C   UNL     1      50.541   9.443  13.131  0.00  0.00    +0.000 C 
BRANCH  16  18
ATOM     17  C   UNL     1      49.096  10.122  11.415  0.00  0.00    +0.000 C 
ATOM     18  O   UNL     1      50.022   9.121  11.836  0.00  0.00    +0.000 OA
ENDBRANCH  16  18
ENDBRANCH  15  16
ENDBRANCH   1  15
BRANCH   1  19
ATOM     19  C   UNL     1      48.378   8.242  14.744  0.00  0.00    +0.000 C 
BRANCH  19  20
ATOM     20  C   UNL     1      47.363   7.656  13.789  0.00  0.00    +0.000 A 
ATOM     21  C   UNL     1      47.516   6.338  13.333  0.00  0.00    +0.000 A 
ATOM     22  C   UNL     1      46.690   5.833  12.330  0.00  0.00    +0.000 A 
ATOM     23  C   UNL     1      45.676   6.625  11.775  0.00  0.00    +0.000 A 
ATOM     24  C   UNL     1      45.475   7.918  12.295  0.00  0.00    +0.000 A 
ATOM     25  C   UNL     1      46.312   8.430  13.284  0.00  0.00    +0.000 A 
BRANCH  23  26
ATOM     26  C   UNL     1      44.904   6.141  10.568  0.00  0.00    +0.000 C 
BRANCH  26  27
ATOM     27  N   UNL     1      43.857   5.147  10.748  0.00  0.00    +0.000 NA
ATOM     28  C   UNL     1      42.913   5.379  11.842  0.00  0.00    +0.000 C 
ATOM     29  C   UNL     1      43.268   4.660  13.153  0.00  0.00    +0.000 C 
ATOM     30  O   UNL     1      43.474   3.258  12.939  0.00  0.00    +0.000 OA
ATOM     31  C   UNL     1      44.534   3.046  11.999  0.00  0.00    +0.000 C 
ATOM     32  C   UNL     1      44.254   3.739  10.656  0.00  0.00    +0.000 C 
ENDBRANCH  26  27
ENDBRANCH  23  26
ENDBRANCH  19  20
ENDBRANCH   1  19
TORSDOF 8
ENDMDL
MODEL 5
REMARK VINA RESULT:    -5.737      3.276      7.935
REMARK INTER + INTRA:          -9.868
REMARK INTER:                  -8.395
REMARK INTRA:                  -1.472
REMARK UNBOUND:                -1.448
REMARK  Name = 
REMARK  9 active torsions:
REMARK  status: ('A' for Active; 'I' for Inactive)
REMARK    1  A    between atoms: C_1  and  O_2
REMARK    2  A    between atoms: O_2  and  C_3
REMARK    3  A    between atoms: C_3  and  C_4
REMARK    4  A    between atoms: C_4  and  N_5
REMARK    5  A    between atoms: N_5  and  C_6
REMARK    6  A    between atoms: C_6  and  C_7
REMARK    7  A    between atoms: C_10  and  C_11
REMARK    8  A    between atoms: C_11  and  N_12
REMARK    9  A    between atoms: C_20  and  C_22
REMARK                            x       y       z     vdW  Elec       q    Type
REMARK                         _______ _______ _______ _____ _____    ______ ____
ROOT
ATOM      1  N   UNL     1      48.768   8.235  17.514  0.00  0.00    +0.000 N 
ATOM      2  C   UNL     1      48.746   7.027  18.242  0.00  0.00    +0.000 C 
ATOM      3  O   UNL     1      47.918   6.818  19.123  0.00  0.00    +0.000 OA
ENDROOT
BRANCH   2   4
ATOM      4  C   UNL     1      49.744   5.981  17.965  0.00  0.00    +0.000 A 
ATOM      5  C   UNL     1      51.079   6.031  18.332  0.00  0.00    +0.000 A 
ATOM      6  S   UNL     1      51.949   4.615  17.936  0.00  0.00    +0.000 S 
ATOM      7  C   UNL     1      50.538   3.836  17.392  0.00  0.00    +0.000 A 
ATOM      8  N   UNL     1      50.561   2.531  17.011  0.00  0.00    +0.000 NA
ATOM      9  C   UNL     1      49.401   2.053  16.697  0.00  0.00    +0.000 A 
ATOM     10  N   UNL     1      48.235   2.773  16.687  0.00  0.00    +0.000 N 
ATOM     11  C   UNL     1      48.191   4.132  16.917  0.00  0.00    +0.000 A 
ATOM     12  O   UNL     1      47.190   4.782  16.641  0.00  0.00    +0.000 OA
ATOM     13  C   UNL     1      49.445   4.680  17.411  0.00  0.00    +0.000 A 
ATOM     14  H   UNL     1      47.375   2.359  16.357  0.00  0.00    +0.000 HD
ENDBRANCH   2   4
BRANCH   1  15
ATOM     15  C   UNL     1      47.700   9.223  17.799  0.00  0.00    +0.000 C 
BRANCH  15  16
ATOM     16  C   UNL     1      47.955  10.348  18.823  0.00  0.00    +0.000 C 
BRANCH  16  18
ATOM     17  C   UNL     1      46.138  10.596  20.283  0.00  0.00    +0.000 C 
ATOM     18  O   UNL     1      47.434  10.022  20.116  0.00  0.00    +0.000 OA
ENDBRANCH  16  18
ENDBRANCH  15  16
ENDBRANCH   1  15
BRANCH   1  19
ATOM     19  C   UNL     1      49.476   8.315  16.217  0.00  0.00    +0.000 C 
BRANCH  19  20
ATOM     20  C   UNL     1      48.698   7.944  14.974  0.00  0.00    +0.000 A 
ATOM     21  C   UNL     1      47.701   8.806  14.494  0.00  0.00    +0.000 A 
ATOM     22  C   UNL     1      46.863   8.413  13.452  0.00  0.00    +0.000 A 
ATOM     23  C   UNL     1      47.017   7.157  12.849  0.00  0.00    +0.000 A 
ATOM     24  C   UNL     1      48.072   6.331  13.280  0.00  0.00    +0.000 A 
ATOM     25  C   UNL     1      48.898   6.715  14.335  0.00  0.00    +0.000 A 
BRANCH  23  26
ATOM     26  C   UNL     1      45.997   6.661  11.848  0.00  0.00    +0.000 C 
BRANCH  26  27
ATOM     27  N   UNL     1      45.491   5.302  11.966  0.00  0.00    +0.000 NA
ATOM     28  C   UNL     1      45.017   4.670  10.735  0.00  0.00    +0.000 C 
ATOM     29  C   UNL     1      43.503   4.787  10.501  0.00  0.00    +0.000 C 
ATOM     30  O   UNL     1      42.763   4.322  11.637  0.00  0.00    +0.000 OA
ATOM     31  C   UNL     1      43.107   5.081  12.802  0.00  0.00    +0.000 C 
ATOM     32  C   UNL     1      44.612   5.016  13.103  0.00  0.00    +0.000 C 
ENDBRANCH  26  27
ENDBRANCH  23  26
ENDBRANCH  19  20
ENDBRANCH   1  19
TORSDOF 8
ENDMDL
MODEL 6
REMARK VINA RESULT:    -5.389      3.013      7.895
REMARK INTER + INTRA:          -9.357
REMARK INTER:                  -8.397
REMARK INTRA:                  -0.961
REMARK UNBOUND:                -1.448
REMARK  Name = 
REMARK  9 active torsions:
REMARK  status: ('A' for Active; 'I' for Inactive)
REMARK    1  A    between atoms: C_1  and  O_2
REMARK    2  A    between atoms: O_2  and  C_3
REMARK    3  A    between atoms: C_3  and  C_4
REMARK    4  A    between atoms: C_4  and  N_5
REMARK    5  A    between atoms: N_5  and  C_6
REMARK    6  A    between atoms: C_6  and  C_7
REMARK    7  A    between atoms: C_10  and  C_11
REMARK    8  A    between atoms: C_11  and  N_12
REMARK    9  A    between atoms: C_20  and  C_22
REMARK                            x       y       z     vdW  Elec       q    Type
REMARK                         _______ _______ _______ _____ _____    ______ ____
ROOT
ATOM      1  N   UNL     1      48.951   7.516  16.618  0.00  0.00    +0.000 N 
ATOM      2  C   UNL     1      48.359   6.735  17.633  0.00  0.00    +0.000 C 
ATOM      3  O   UNL     1      47.799   7.245  18.599  0.00  0.00    +0.000 OA
ENDROOT
BRANCH   2   4
ATOM      4  C   UNL     1      48.416   5.265  17.560  0.00  0.00    +0.000 A 
ATOM      5  C   UNL     1      47.357   4.440  17.221  0.00  0.00    +0.000 A 
ATOM      6  S   UNL     1      47.778   2.786  17.143  0.00  0.00    +0.000 S 
ATOM      7  C   UNL     1      49.419   3.137  17.419  0.00  0.00    +0.000 A 
ATOM      8  N   UNL     1      50.363   2.159  17.368  0.00  0.00    +0.000 NA
ATOM      9  C   UNL     1      51.574   2.586  17.519  0.00  0.00    +0.000 A 
ATOM     10  N   UNL     1      51.919   3.890  17.764  0.00  0.00    +0.000 N 
ATOM     11  C   UNL     1      50.987   4.884  17.977  0.00  0.00    +0.000 A 
ATOM     12  O   UNL     1      51.320   5.964  18.449  0.00  0.00    +0.000 OA
ATOM     13  C   UNL     1      49.623   4.478  17.675  0.00  0.00    +0.000 A 
ATOM     14  H   UNL     1      52.877   4.145  17.950  0.00  0.00    +0.000 HD
ENDBRANCH   2   4
BRANCH   1  15
ATOM     15  C   UNL     1      48.807   8.988  16.719  0.00  0.00    +0.000 C 
BRANCH  15  16
ATOM     16  C   UNL     1      50.044   9.890  16.533  0.00  0.00    +0.000 C 
BRANCH  16  18
ATOM     17  C   UNL     1      50.669   9.762  18.789  0.00  0.00    +0.000 C 
ATOM     18  O   UNL     1      51.095   9.550  17.443  0.00  0.00    +0.000 OA
ENDBRANCH  16  18
ENDBRANCH  15  16
ENDBRANCH   1  15
BRANCH   1  19
ATOM     19  C   UNL     1      49.248   6.924  15.295  0.00  0.00    +0.000 C 
BRANCH  19  20
ATOM     20  C   UNL     1      48.098   6.778  14.323  0.00  0.00    +0.000 A 
ATOM     21  C   UNL     1      47.719   5.502  13.879  0.00  0.00    +0.000 A 
ATOM     22  C   UNL     1      46.777   5.355  12.863  0.00  0.00    +0.000 A 
ATOM     23  C   UNL     1      46.172   6.478  12.283  0.00  0.00    +0.000 A 
ATOM     24  C   UNL     1      46.495   7.751  12.791  0.00  0.00    +0.000 A 
ATOM     25  C   UNL     1      47.452   7.900  13.793  0.00  0.00    +0.000 A 
BRANCH  23  26
ATOM     26  C   UNL     1      45.289   6.326  11.064  0.00  0.00    +0.000 C 
BRANCH  26  27
ATOM     27  N   UNL     1      43.959   5.757  11.219  0.00  0.00    +0.000 NA
ATOM     28  C   UNL     1      43.508   5.507  12.587  0.00  0.00    +0.000 C 
ATOM     29  C   UNL     1      43.743   4.071  13.083  0.00  0.00    +0.000 C 
ATOM     30  O   UNL     1      43.191   3.110  12.175  0.00  0.00    +0.000 OA
ATOM     31  C   UNL     1      43.784   3.250  10.878  0.00  0.00    +0.000 C 
ATOM     32  C   UNL     1      43.593   4.666  10.312  0.00  0.00    +0.000 C 
ENDBRANCH  26  27
ENDBRANCH  23  26
ENDBRANCH  19  20
ENDBRANCH   1  19
TORSDOF 8
ENDMDL
MODEL 7
REMARK VINA RESULT:    -5.261      3.038      8.046
REMARK INTER + INTRA:          -9.169
REMARK INTER:                  -7.978
REMARK INTRA:                  -1.191
REMARK UNBOUND:                -1.448
REMARK  Name = 
REMARK  9 active torsions:
REMARK  status: ('A' for Active; 'I' for Inactive)
REMARK    1  A    between atoms: C_1  and  O_2
REMARK    2  A    between atoms: O_2  and  C_3
REMARK    3  A    between atoms: C_3  and  C_4
REMARK    4  A    between atoms: C_4  and  N_5
REMARK    5  A    between atoms: N_5  and  C_6
REMARK    6  A    between atoms: C_6  and  C_7
REMARK    7  A    between atoms: C_10  and  C_11
REMARK    8  A    between atoms: C_11  and  N_12
REMARK    9  A    between atoms: C_20  and  C_22
REMARK                            x       y       z     vdW  Elec       q    Type
REMARK                         _______ _______ _______ _____ _____    ______ ____
ROOT
ATOM      1  N   UNL     1      48.233   6.692  15.169  0.00  0.00    +0.000 N 
ATOM      2  C   UNL     1      48.371   8.095  15.112  0.00  0.00    +0.000 C 
ATOM      3  O   UNL     1      48.672   8.757  16.100  0.00  0.00    +0.000 OA
ENDROOT
BRANCH   2   4
ATOM      4  C   UNL     1      48.137   8.806  13.844  0.00  0.00    +0.000 A 
ATOM      5  C   UNL     1      46.913   9.286  13.410  0.00  0.00    +0.000 A 
ATOM      6  S   UNL     1      46.999  10.143  11.934  0.00  0.00    +0.000 S 
ATOM      7  C   UNL     1      48.695  10.023  11.903  0.00  0.00    +0.000 A 
ATOM      8  N   UNL     1      49.425  10.652  10.942  0.00  0.00    +0.000 NA
ATOM      9  C   UNL     1      50.704  10.536  11.091  0.00  0.00    +0.000 A 
ATOM     10  N   UNL     1      51.314   9.812  12.083  0.00  0.00    +0.000 N 
ATOM     11  C   UNL     1      50.614   9.036  12.983  0.00  0.00    +0.000 A 
ATOM     12  O   UNL     1      51.190   8.205  13.675  0.00  0.00    +0.000 OA
ATOM     13  C   UNL     1      49.175   9.249  12.941  0.00  0.00    +0.000 A 
ATOM     14  H   UNL     1      52.316   9.698  12.097  0.00  0.00    +0.000 HD
ENDBRANCH   2   4
BRANCH   1  15
ATOM     15  C   UNL     1      48.542   6.030  16.460  0.00  0.00    +0.000 C 
BRANCH  15  16
ATOM     16  C   UNL     1      48.147   4.554  16.673  0.00  0.00    +0.000 C 
BRANCH  16  18
ATOM     17  C   UNL     1      48.960   2.356  16.640  0.00  0.00    +0.000 C 
ATOM     18  O   UNL     1      49.291   3.721  16.890  0.00  0.00    +0.000 OA
ENDBRANCH  16  18
ENDBRANCH  15  16
ENDBRANCH   1  15
BRANCH   1  19
ATOM     19  C   UNL     1      48.279   5.884  13.931  0.00  0.00    +0.000 C 
BRANCH  19  20
ATOM     20  C   UNL     1      47.006   5.186  13.507  0.00  0.00    +0.000 A 
ATOM     21  C   UNL     1      47.008   3.798  13.301  0.00  0.00    +0.000 A 
ATOM     22  C   UNL     1      45.896   3.160  12.754  0.00  0.00    +0.000 A 
ATOM     23  C   UNL     1      44.746   3.890  12.422  0.00  0.00    +0.000 A 
ATOM     24  C   UNL     1      44.721   5.268  12.708  0.00  0.00    +0.000 A 
ATOM     25  C   UNL     1      45.839   5.910  13.237  0.00  0.00    +0.000 A 
BRANCH  23  26
ATOM     26  C   UNL     1      43.616   3.230  11.665  0.00  0.00    +0.000 C 
BRANCH  26  27
ATOM     27  N   UNL     1      43.615   3.275  10.211  0.00  0.00    +0.000 NA
ATOM     28  C   UNL     1      44.223   2.139   9.519  0.00  0.00    +0.000 C 
ATOM     29  C   UNL     1      45.694   2.345   9.125  0.00  0.00    +0.000 C 
ATOM     30  O   UNL     1      45.869   3.556   8.379  0.00  0.00    +0.000 OA
ATOM     31  C   UNL     1      45.437   4.684   9.149  0.00  0.00    +0.000 C 
ATOM     32  C   UNL     1      43.970   4.552   9.585  0.00  0.00    +0.000 C 
ENDBRANCH  26  27
ENDBRANCH  23  26
ENDBRANCH  19  20
ENDBRANCH   1  19
TORSDOF 8
ENDMDL
MODEL 8
REMARK VINA RESULT:    -5.066      3.741      9.118
REMARK INTER + INTRA:          -8.883
REMARK INTER:                  -7.651
REMARK INTRA:                  -1.232
REMARK UNBOUND:                -1.448
REMARK  Name = 
REMARK  9 active torsions:
REMARK  status: ('A' for Active; 'I' for Inactive)
REMARK    1  A    between atoms: C_1  and  O_2
REMARK    2  A    between atoms: O_2  and  C_3
REMARK    3  A    between atoms: C_3  and  C_4
REMARK    4  A    between atoms: C_4  and  N_5
REMARK    5  A    between atoms: N_5  and  C_6
REMARK    6  A    between atoms: C_6  and  C_7
REMARK    7  A    between atoms: C_10  and  C_11
REMARK    8  A    between atoms: C_11  and  N_12
REMARK    9  A    between atoms: C_20  and  C_22
REMARK                            x       y       z     vdW  Elec       q    Type
REMARK                         _______ _______ _______ _____ _____    ______ ____
ROOT
ATOM      1  N   UNL     1      50.305   5.978  18.245  0.00  0.00    +0.000 N 
ATOM      2  C   UNL     1      50.487   7.321  18.636  0.00  0.00    +0.000 C 
ATOM      3  O   UNL     1      51.551   7.908  18.460  0.00  0.00    +0.000 OA
ENDROOT
BRANCH   2   4
ATOM      4  C   UNL     1      49.389   8.054  19.288  0.00  0.00    +0.000 A 
ATOM      5  C   UNL     1      48.954   7.852  20.587  0.00  0.00    +0.000 A 
ATOM      6  S   UNL     1      47.717   8.929  21.067  0.00  0.00    +0.000 S 
ATOM      7  C   UNL     1      47.825   9.790  19.604  0.00  0.00    +0.000 A 
ATOM      8  N   UNL     1      47.102  10.924  19.403  0.00  0.00    +0.000 NA
ATOM      9  C   UNL     1      47.346  11.512  18.278  0.00  0.00    +0.000 A 
ATOM     10  N   UNL     1      48.210  11.044  17.322  0.00  0.00    +0.000 N 
ATOM     11  C   UNL     1      48.845   9.824  17.418  0.00  0.00    +0.000 A 
ATOM     12  O   UNL     1      49.392   9.324  16.442  0.00  0.00    +0.000 OA
ATOM     13  C   UNL     1      48.711   9.199  18.725  0.00  0.00    +0.000 A 
ATOM     14  H   UNL     1      48.297  11.512  16.431  0.00  0.00    +0.000 HD
ENDBRANCH   2   4
BRANCH   1  15
ATOM     15  C   UNL     1      51.428   5.315  17.539  0.00  0.00    +0.000 C 
BRANCH  15  16
ATOM     16  C   UNL     1      51.702   3.816  17.780  0.00  0.00    +0.000 C 
BRANCH  16  18
ATOM     17  C   UNL     1      50.349   1.932  17.442  0.00  0.00    +0.000 C 
ATOM     18  O   UNL     1      51.059   2.992  16.802  0.00  0.00    +0.000 OA
ENDBRANCH  16  18
ENDBRANCH  15  16
ENDBRANCH   1  15
BRANCH   1  19
ATOM     19  C   UNL     1      48.943   5.423  18.083  0.00  0.00    +0.000 C 
BRANCH  19  20
ATOM     20  C   UNL     1      48.403   5.298  16.676  0.00  0.00    +0.000 A 
ATOM     21  C   UNL     1      48.674   6.303  15.735  0.00  0.00    +0.000 A 
ATOM     22  C   UNL     1      48.054   6.292  14.486  0.00  0.00    +0.000 A 
ATOM     23  C   UNL     1      47.168   5.264  14.139  0.00  0.00    +0.000 A 
ATOM     24  C   UNL     1      46.965   4.215  15.056  0.00  0.00    +0.000 A 
ATOM     25  C   UNL     1      47.569   4.235  16.312  0.00  0.00    +0.000 A 
BRANCH  23  26
ATOM     26  C   UNL     1      46.362   5.349  12.862  0.00  0.00    +0.000 C 
BRANCH  26  27
ATOM     27  N   UNL     1      45.111   4.613  12.763  0.00  0.00    +0.000 NA
ATOM     28  C   UNL     1      45.081   3.496  11.819  0.00  0.00    +0.000 C 
ATOM     29  C   UNL     1      44.519   3.848  10.433  0.00  0.00    +0.000 C 
ATOM     30  O   UNL     1      43.233   4.472  10.535  0.00  0.00    +0.000 OA
ATOM     31  C   UNL     1      43.319   5.671  11.313  0.00  0.00    +0.000 C 
ATOM     32  C   UNL     1      43.876   5.401  12.719  0.00  0.00    +0.000 C 
ENDBRANCH  26  27
ENDBRANCH  23  26
ENDBRANCH  19  20
ENDBRANCH   1  19
TORSDOF 8
ENDMDL
MODEL 9
REMARK VINA RESULT:    -4.983      3.278      8.234
REMARK INTER + INTRA:          -8.761
REMARK INTER:                  -7.066
REMARK INTRA:                  -1.695
REMARK UNBOUND:                -1.448
REMARK  Name = 
REMARK  9 active torsions:
REMARK  status: ('A' for Active; 'I' for Inactive)
REMARK    1  A    between atoms: C_1  and  O_2
REMARK    2  A    between atoms: O_2  and  C_3
REMARK    3  A    between atoms: C_3  and  C_4
REMARK    4  A    between atoms: C_4  and  N_5
REMARK    5  A    between atoms: N_5  and  C_6
REMARK    6  A    between atoms: C_6  and  C_7
REMARK    7  A    between atoms: C_10  and  C_11
REMARK    8  A    between atoms: C_11  and  N_12
REMARK    9  A    between atoms: C_20  and  C_22
REMARK                            x       y       z     vdW  Elec       q    Type
REMARK                         _______ _______ _______ _____ _____    ______ ____
ROOT
ATOM      1  N   UNL     1      49.988   7.525  19.105  0.00  0.00    +0.000 N 
ATOM      2  C   UNL     1      49.623   6.197  19.412  0.00  0.00    +0.000 C 
ATOM      3  O   UNL     1      48.761   5.939  20.246  0.00  0.00    +0.000 OA
ENDROOT
BRANCH   2   4
ATOM      4  C   UNL     1      50.293   5.074  18.735  0.00  0.00    +0.000 A 
ATOM      5  C   UNL     1      51.579   4.634  18.998  0.00  0.00    +0.000 A 
ATOM      6  S   UNL     1      52.025   3.251  18.098  0.00  0.00    +0.000 S 
ATOM      7  C   UNL     1      50.464   3.113  17.437  0.00  0.00    +0.000 A 
ATOM      8  N   UNL     1      50.127   2.056  16.651  0.00  0.00    +0.000 NA
ATOM      9  C   UNL     1      48.887   2.044  16.286  0.00  0.00    +0.000 A 
ATOM     10  N   UNL     1      47.971   3.015  16.597  0.00  0.00    +0.000 N 
ATOM     11  C   UNL     1      48.306   4.177  17.260  0.00  0.00    +0.000 A 
ATOM     12  O   UNL     1      47.534   5.128  17.286  0.00  0.00    +0.000 OA
ATOM     13  C   UNL     1      49.652   4.165  17.811  0.00  0.00    +0.000 A 
ATOM     14  H   UNL     1      47.037   2.985  16.216  0.00  0.00    +0.000 HD
ENDBRANCH   2   4
BRANCH   1  15
ATOM     15  C   UNL     1      49.234   8.611  19.776  0.00  0.00    +0.000 C 
BRANCH  15  16
ATOM     16  C   UNL     1      49.941   9.493  20.827  0.00  0.00    +0.000 C 
BRANCH  16  18
ATOM     17  C   UNL     1      52.275   9.695  20.891  0.00  0.00    +0.000 C 
ATOM     18  O   UNL     1      51.159   8.900  21.289  0.00  0.00    +0.000 OA
ENDBRANCH  16  18
ENDBRANCH  15  16
ENDBRANCH   1  15
BRANCH   1  19
ATOM     19  C   UNL     1      50.703   7.833  17.847  0.00  0.00    +0.000 C 
BRANCH  19  20
ATOM     20  C   UNL     1      49.886   7.879  16.574  0.00  0.00    +0.000 A 
ATOM     21  C   UNL     1      48.830   8.794  16.457  0.00  0.00    +0.000 A 
ATOM     22  C   UNL     1      47.963   8.743  15.366  0.00  0.00    +0.000 A 
ATOM     23  C   UNL     1      48.146   7.791  14.354  0.00  0.00    +0.000 A 
ATOM     24  C   UNL     1      49.257   6.930  14.437  0.00  0.00    +0.000 A 
ATOM     25  C   UNL     1      50.112   6.967  15.537  0.00  0.00    +0.000 A 
BRANCH  23  26
ATOM     26  C   UNL     1      47.106   7.619  13.270  0.00  0.00    +0.000 C 
BRANCH  26  27
ATOM     27  N   UNL     1      46.926   6.311  12.661  0.00  0.00    +0.000 NA
ATOM     28  C   UNL     1      46.458   6.291  11.275  0.00  0.00    +0.000 C 
ATOM     29  C   UNL     1      44.938   6.130  11.117  0.00  0.00    +0.000 C 
ATOM     30  O   UNL     1      44.458   4.989  11.839  0.00  0.00    +0.000 OA
ATOM     31  C   UNL     1      44.764   5.114  13.233  0.00  0.00    +0.000 C 
ATOM     32  C   UNL     1      46.273   5.282  13.474  0.00  0.00    +0.000 C 
ENDBRANCH  26  27
ENDBRANCH  23  26
ENDBRANCH  19  20
ENDBRANCH   1  19
TORSDOF 8
ENDMDL
