MODEL 1
REMARK VINA RESULT:    -8.410      0.000      0.000
REMARK INTER + INTRA:         -13.034
REMARK INTER:                 -11.852
REMARK INTRA:                  -1.182
REMARK UNBOUND:                -1.182
REMARK  Name = 
REMARK  9 active torsions:
REMARK  status: ('A' for Active; 'I' for Inactive)
REMARK    1  A    between atoms: C_1  and  C_2
REMARK    2  A    between atoms: C_2  and  N_3
REMARK    3  A    between atoms: C_2  and  C_11
REMARK    4  A    between atoms: N_3  and  C_4
REMARK    5  A    between atoms: C_4  and  C_5
REMARK    6  A    between atoms: C_14  and  C_15
REMARK    7  A    between atoms: C_15  and  N_16
REMARK    8  A    between atoms: N_16  and  C_17
REMARK    9  A    between atoms: C_18  and  C_20
REMARK                            x       y       z     vdW  Elec       q    Type
REMARK                         _______ _______ _______ _____ _____    ______ ____
ROOT
ATOM      1  C   UNL     1      44.412   5.184  11.303  0.00  0.00    +0.000 A 
ATOM      2  C   UNL     1      45.448   5.570  10.440  0.00  0.00    +0.000 A 
ATOM      3  C   UNL     1      46.354   6.571  10.808  0.00  0.00    +0.000 A 
ATOM      4  C   UNL     1      46.251   7.216  12.049  0.00  0.00    +0.000 A 
ATOM      5  C   UNL     1      45.194   6.867  12.896  0.00  0.00    +0.000 A 
ATOM      6  C   UNL     1      44.301   5.850  12.535  0.00  0.00    +0.000 A 
ENDROOT
BRANCH   1   8
ATOM      7  C   UNL     1      43.515   2.903  11.935  0.00  0.00    +0.000 C 
ATOM      8  C   UNL     1      43.478   4.040  10.903  0.00  0.00    +0.000 C 
BRANCH   8   9
ATOM      9  N   UNL     1      43.809   3.587   9.540  0.00  0.00    +0.000 NA
ATOM     10  H   UNL     1      42.934   3.457   9.031  0.00  0.00    +0.000 HD
BRANCH   9  11
ATOM     11  C   UNL     1      44.528   2.302   9.511  0.00  0.00    +0.000 C 
BRANCH  11  12
ATOM     12  C   UNL     1      45.557   2.222   8.393  0.00  0.00    +0.000 A 
ATOM     13  C   UNL     1      45.789   3.326   7.575  0.00  0.00    +0.000 A 
ATOM     14  C   UNL     1      46.768   3.244   6.587  0.00  0.00    +0.000 A 
ATOM     15  C   UNL     1      47.494   2.069   6.447  0.00  0.00    +0.000 A 
ATOM     16  C   UNL     1      47.205   1.017   7.300  0.00  0.00    +0.000 A 
ATOM     17  N   UNL     1      46.257   1.066   8.265  0.00  0.00    +0.000 NA
ENDBRANCH  11  12
ENDBRANCH   9  11
ENDBRANCH   8   9
ENDBRANCH   1   8
BRANCH   4  18
ATOM     18  C   UNL     1      47.317   8.186  12.513  0.00  0.00    +0.000 C 
BRANCH  18  19
ATOM     19  N   UNL     1      47.868   7.990  13.856  0.00  0.00    +0.000 N 
ATOM     20  C   UNL     1      47.684   9.051  14.838  0.00  0.00    +0.000 C 
ATOM     21  C   UNL     1      48.779   6.924  13.998  0.00  0.00    +0.000 C 
ATOM     22  O   UNL     1      49.025   6.175  13.055  0.00  0.00    +0.000 OA
BRANCH  21  23
ATOM     23  C   UNL     1      49.412   6.666  15.303  0.00  0.00    +0.000 A 
ATOM     24  C   UNL     1      50.536   7.326  15.773  0.00  0.00    +0.000 A 
ATOM     25  S   UNL     1      51.005   6.852  17.343  0.00  0.00    +0.000 S 
ATOM     26  C   UNL     1      49.634   5.865  17.512  0.00  0.00    +0.000 A 
ATOM     27  N   UNL     1      49.362   5.240  18.690  0.00  0.00    +0.000 NA
ATOM     28  C   UNL     1      48.255   4.578  18.697  0.00  0.00    +0.000 A 
ATOM     29  N   UNL     1      47.417   4.447  17.613  0.00  0.00    +0.000 N 
ATOM     30  C   UNL     1      47.725   4.935  16.366  0.00  0.00    +0.000 A 
ATOM     31  O   UNL     1      47.090   4.577  15.380  0.00  0.00    +0.000 OA
ATOM     32  C   UNL     1      48.890   5.806  16.346  0.00  0.00    +0.000 A 
ATOM     33  H   UNL     1      46.608   3.845  17.664  0.00  0.00    +0.000 HD
ENDBRANCH  21  23
ENDBRANCH  18  19
ENDBRANCH   4  18
TORSDOF 7
ENDMDL
MODEL 2
REMARK VINA RESULT:    -8.085      1.650      1.922
REMARK INTER + INTRA:         -12.576
REMARK INTER:                 -11.387
REMARK INTRA:                  -1.190
REMARK UNBOUND:                -1.182
REMARK  Name = 
REMARK  9 active torsions:
REMARK  status: ('A' for Active; 'I' for Inactive)
REMARK    1  A    between atoms: C_1  and  C_2
REMARK    2  A    between atoms: C_2  and  N_3
REMARK    3  A    between atoms: C_2  and  C_11
REMARK    4  A    between atoms: N_3  and  C_4
REMARK    5  A    between atoms: C_4  and  C_5
REMARK    6  A    between atoms: C_14  and  C_15
REMARK    7  A    between atoms: C_15  and  N_16
REMARK    8  A    between atoms: N_16  and  C_17
REMARK    9  A    between atoms: C_18  and  C_20
REMARK                            x       y       z     vdW  Elec       q    Type
REMARK                         _______ _______ _______ _____ _____    ______ ____
ROOT
ATOM      1  C   UNL     1      45.291   5.091  11.870  0.00  0.00    +0.000 A 
ATOM      2  C   UNL     1      45.875   4.661  13.071  0.00  0.00    +0.000 A 
ATOM      3  C   UNL     1      47.019   5.287  13.578  0.00  0.00    +0.000 A 
ATOM      4  C   UNL     1      47.612   6.363  12.900  0.00  0.00    +0.000 A 
ATOM      5  C   UNL     1      47.061   6.767  11.680  0.00  0.00    +0.000 A 
ATOM      6  C   UNL     1      45.904   6.153  11.185  0.00  0.00    +0.000 A 
ENDROOT
BRANCH   1   8
ATOM      7  C   UNL     1      43.593   3.259  12.281  0.00  0.00    +0.000 C 
ATOM      8  C   UNL     1      44.002   4.431  11.376  0.00  0.00    +0.000 C 
BRANCH   8   9
ATOM      9  N   UNL     1      44.158   4.039   9.965  0.00  0.00    +0.000 NA
ATOM     10  H   UNL     1      43.245   4.112   9.514  0.00  0.00    +0.000 HD
BRANCH   9  11
ATOM     11  C   UNL     1      44.620   2.651   9.794  0.00  0.00    +0.000 C 
BRANCH  11  12
ATOM     12  C   UNL     1      45.528   2.471   8.586  0.00  0.00    +0.000 A 
ATOM     13  C   UNL     1      45.761   3.538   7.719  0.00  0.00    +0.000 A 
ATOM     14  C   UNL     1      46.631   3.363   6.646  0.00  0.00    +0.000 A 
ATOM     15  C   UNL     1      47.252   2.134   6.470  0.00  0.00    +0.000 A 
ATOM     16  C   UNL     1      46.971   1.124   7.375  0.00  0.00    +0.000 A 
ATOM     17  N   UNL     1      46.127   1.263   8.423  0.00  0.00    +0.000 NA
ENDBRANCH  11  12
ENDBRANCH   9  11
ENDBRANCH   8   9
ENDBRANCH   1   8
BRANCH   4  18
ATOM     18  C   UNL     1      48.754   7.141  13.521  0.00  0.00    +0.000 C 
BRANCH  18  19
ATOM     19  N   UNL     1      48.583   7.601  14.901  0.00  0.00    +0.000 N 
ATOM     20  C   UNL     1      47.773   8.789  15.136  0.00  0.00    +0.000 C 
ATOM     21  C   UNL     1      49.452   7.030  15.853  0.00  0.00    +0.000 C 
ATOM     22  O   UNL     1      50.247   6.149  15.531  0.00  0.00    +0.000 OA
BRANCH  21  23
ATOM     23  C   UNL     1      49.378   7.452  17.262  0.00  0.00    +0.000 A 
ATOM     24  C   UNL     1      49.945   8.613  17.763  0.00  0.00    +0.000 A 
ATOM     25  S   UNL     1      49.647   8.862  19.424  0.00  0.00    +0.000 S 
ATOM     26  C   UNL     1      48.620   7.511  19.497  0.00  0.00    +0.000 A 
ATOM     27  N   UNL     1      47.931   7.217  20.632  0.00  0.00    +0.000 NA
ATOM     28  C   UNL     1      47.140   6.204  20.525  0.00  0.00    +0.000 A 
ATOM     29  N   UNL     1      47.011   5.429  19.395  0.00  0.00    +0.000 N 
ATOM     30  C   UNL     1      47.795   5.599  18.278  0.00  0.00    +0.000 A 
ATOM     31  O   UNL     1      47.835   4.739  17.405  0.00  0.00    +0.000 OA
ATOM     32  C   UNL     1      48.597   6.813  18.302  0.00  0.00    +0.000 A 
ATOM     33  H   UNL     1      46.435   4.601  19.408  0.00  0.00    +0.000 HD
ENDBRANCH  21  23
ENDBRANCH  18  19
ENDBRANCH   4  18
TORSDOF 7
ENDMDL
MODEL 3
REMARK VINA RESULT:    -7.260      2.127      2.953
REMARK INTER + INTRA:         -11.414
REMARK INTER:                 -10.474
REMARK INTRA:                  -0.940
REMARK UNBOUND:                -1.182
REMARK  Name = 
REMARK  9 active torsions:
REMARK  status: ('A' for Active; 'I' for Inactive)
REMARK    1  A    between atoms: C_1  and  C_2
REMARK    2  A    between atoms: C_2  and  N_3
REMARK    3  A    between atoms: C_2  and  C_11
REMARK    4  A    between atoms: N_3  and  C_4
REMARK    5  A    between atoms: C_4  and  C_5
REMARK    6  A    between atoms: C_14  and  C_15
REMARK    7  A    between atoms: C_15  and  N_16
REMARK    8  A    between atoms: N_16  and  C_17
REMARK    9  A    between atoms: C_18  and  C_20
REMARK                            x       y       z     vdW  Elec       q    Type
REMARK                         _______ _______ _______ _____ _____    ______ ____
ROOT
ATOM      1  C   UNL     1      44.929   5.738  11.965  0.00  0.00    +0.000 A 
ATOM      2  C   UNL     1      45.655   6.938  12.009  0.00  0.00    +0.000 A 
ATOM      3  C   UNL     1      46.794   7.059  12.812  0.00  0.00    +0.000 A 
ATOM      4  C   UNL     1      47.242   5.984  13.595  0.00  0.00    +0.000 A 
ATOM      5  C   UNL     1      46.497   4.800  13.590  0.00  0.00    +0.000 A 
ATOM      6  C   UNL     1      45.370   4.674  12.769  0.00  0.00    +0.000 A 
ENDROOT
BRANCH   1   8
ATOM      7  C   UNL     1      42.444   5.281  11.802  0.00  0.00    +0.000 C 
ATOM      8  C   UNL     1      43.727   5.614  11.026  0.00  0.00    +0.000 C 
BRANCH   8   9
ATOM      9  N   UNL     1      44.028   4.633   9.968  0.00  0.00    +0.000 NA
ATOM     10  H   UNL     1      44.235   3.739  10.417  0.00  0.00    +0.000 HD
BRANCH   9  11
ATOM     11  C   UNL     1      45.200   4.996   9.153  0.00  0.00    +0.000 C 
BRANCH  11  12
ATOM     12  C   UNL     1      45.812   3.805   8.430  0.00  0.00    +0.000 A 
ATOM     13  C   UNL     1      45.609   2.512   8.911  0.00  0.00    +0.000 A 
ATOM     14  C   UNL     1      46.141   1.435   8.207  0.00  0.00    +0.000 A 
ATOM     15  C   UNL     1      46.853   1.673   7.039  0.00  0.00    +0.000 A 
ATOM     16  C   UNL     1      47.010   2.985   6.626  0.00  0.00    +0.000 A 
ATOM     17  N   UNL     1      46.509   4.052   7.291  0.00  0.00    +0.000 NA
ENDBRANCH  11  12
ENDBRANCH   9  11
ENDBRANCH   8   9
ENDBRANCH   1   8
BRANCH   4  18
ATOM     18  C   UNL     1      48.557   6.060  14.342  0.00  0.00    +0.000 C 
BRANCH  18  19
ATOM     19  N   UNL     1      48.504   6.400  15.766  0.00  0.00    +0.000 N 
ATOM     20  C   UNL     1      48.757   7.781  16.154  0.00  0.00    +0.000 C 
ATOM     21  C   UNL     1      48.501   5.311  16.660  0.00  0.00    +0.000 C 
ATOM     22  O   UNL     1      48.473   4.154  16.244  0.00  0.00    +0.000 OA
BRANCH  21  23
ATOM     23  C   UNL     1      48.481   5.552  18.113  0.00  0.00    +0.000 A 
ATOM     24  C   UNL     1      47.355   5.924  18.830  0.00  0.00    +0.000 A 
ATOM     25  S   UNL     1      47.628   6.076  20.507  0.00  0.00    +0.000 S 
ATOM     26  C   UNL     1      49.217   5.499  20.355  0.00  0.00    +0.000 A 
ATOM     27  N   UNL     1      49.989   5.276  21.453  0.00  0.00    +0.000 NA
ATOM     28  C   UNL     1      51.149   4.775  21.194  0.00  0.00    +0.000 A 
ATOM     29  N   UNL     1      51.625   4.521  19.928  0.00  0.00    +0.000 N 
ATOM     30  C   UNL     1      50.941   4.869  18.788  0.00  0.00    +0.000 A 
ATOM     31  O   UNL     1      51.501   4.869  17.697  0.00  0.00    +0.000 OA
ATOM     32  C   UNL     1      49.574   5.304  19.032  0.00  0.00    +0.000 A 
ATOM     33  H   UNL     1      52.575   4.207  19.794  0.00  0.00    +0.000 HD
ENDBRANCH  21  23
ENDBRANCH  18  19
ENDBRANCH   4  18
TORSDOF 7
ENDMDL
MODEL 4
REMARK VINA RESULT:    -6.885      2.368      3.534
REMARK INTER + INTRA:         -10.885
REMARK INTER:                  -9.801
REMARK INTRA:                  -1.084
REMARK UNBOUND:                -1.182
REMARK  Name = 
REMARK  9 active torsions:
REMARK  status: ('A' for Active; 'I' for Inactive)
REMARK    1  A    between atoms: C_1  and  C_2
REMARK    2  A    between atoms: C_2  and  N_3
REMARK    3  A    between atoms: C_2  and  C_11
REMARK    4  A    between atoms: N_3  and  C_4
REMARK    5  A    between atoms: C_4  and  C_5
REMARK    6  A    between atoms: C_14  and  C_15
REMARK    7  A    between atoms: C_15  and  N_16
REMARK    8  A    between atoms: N_16  and  C_17
REMARK    9  A    between atoms: C_18  and  C_20
REMARK                            x       y       z     vdW  Elec       q    Type
REMARK                         _______ _______ _______ _____ _____    ______ ____
ROOT
ATOM      1  C   UNL     1      44.951   4.896  11.807  0.00  0.00    +0.000 A 
ATOM      2  C   UNL     1      44.955   6.012  10.957  0.00  0.00    +0.000 A 
ATOM      3  C   UNL     1      45.689   7.158  11.281  0.00  0.00    +0.000 A 
ATOM      4  C   UNL     1      46.442   7.223  12.463  0.00  0.00    +0.000 A 
ATOM      5  C   UNL     1      46.407   6.130  13.335  0.00  0.00    +0.000 A 
ATOM      6  C   UNL     1      45.689   4.976  13.000  0.00  0.00    +0.000 A 
ENDROOT
BRANCH   1   8
ATOM      7  C   UNL     1      43.451   3.011  12.587  0.00  0.00    +0.000 C 
ATOM      8  C   UNL     1      44.194   3.631  11.394  0.00  0.00    +0.000 C 
BRANCH   8   9
ATOM      9  N   UNL     1      45.124   2.690  10.746  0.00  0.00    +0.000 NA
ATOM     10  H   UNL     1      46.000   3.183  10.570  0.00  0.00    +0.000 HD
BRANCH   9  11
ATOM     11  C   UNL     1      44.636   2.189   9.450  0.00  0.00    +0.000 C 
BRANCH  11  12
ATOM     12  C   UNL     1      45.698   2.224   8.361  0.00  0.00    +0.000 A 
ATOM     13  C   UNL     1      45.967   3.411   7.682  0.00  0.00    +0.000 A 
ATOM     14  C   UNL     1      46.975   3.430   6.721  0.00  0.00    +0.000 A 
ATOM     15  C   UNL     1      47.693   2.269   6.468  0.00  0.00    +0.000 A 
ATOM     16  C   UNL     1      47.368   1.130   7.187  0.00  0.00    +0.000 A 
ATOM     17  N   UNL     1      46.391   1.080   8.122  0.00  0.00    +0.000 NA
ENDBRANCH  11  12
ENDBRANCH   9  11
ENDBRANCH   8   9
ENDBRANCH   1   8
BRANCH   4  18
ATOM     18  C   UNL     1      47.358   8.396  12.739  0.00  0.00    +0.000 C 
BRANCH  18  19
ATOM     19  N   UNL     1      48.717   8.098  13.198  0.00  0.00    +0.000 N 
ATOM     20  C   UNL     1      49.583   7.320  12.322  0.00  0.00    +0.000 C 
ATOM     21  C   UNL     1      48.972   8.335  14.563  0.00  0.00    +0.000 C 
ATOM     22  O   UNL     1      48.112   8.831  15.288  0.00  0.00    +0.000 OA
BRANCH  21  23
ATOM     23  C   UNL     1      50.300   8.036  15.126  0.00  0.00    +0.000 A 
ATOM     24  C   UNL     1      50.600   6.904  15.866  0.00  0.00    +0.000 A 
ATOM     25  S   UNL     1      52.237   6.804  16.337  0.00  0.00    +0.000 S 
ATOM     26  C   UNL     1      52.635   8.188  15.437  0.00  0.00    +0.000 A 
ATOM     27  N   UNL     1      53.927   8.599  15.319  0.00  0.00    +0.000 NA
ATOM     28  C   UNL     1      54.091   9.623  14.553  0.00  0.00    +0.000 A 
ATOM     29  N   UNL     1      53.070  10.304  13.930  0.00  0.00    +0.000 N 
ATOM     30  C   UNL     1      51.742  10.016  14.139  0.00  0.00    +0.000 A 
ATOM     31  O   UNL     1      50.868  10.798  13.780  0.00  0.00    +0.000 OA
ATOM     32  C   UNL     1      51.517   8.784  14.880  0.00  0.00    +0.000 A 
ATOM     33  H   UNL     1      53.262  11.148  13.411  0.00  0.00    +0.000 HD
ENDBRANCH  21  23
ENDBRANCH  18  19
ENDBRANCH   4  18
TORSDOF 7
ENDMDL
MODEL 5
REMARK VINA RESULT:    -6.258      2.609      3.706
REMARK INTER + INTRA:         -10.001
REMARK INTER:                  -8.896
REMARK INTRA:                  -1.106
REMARK UNBOUND:                -1.182
REMARK  Name = 
REMARK  9 active torsions:
REMARK  status: ('A' for Active; 'I' for Inactive)
REMARK    1  A    between atoms: C_1  and  C_2
REMARK    2  A    between atoms: C_2  and  N_3
REMARK    3  A    between atoms: C_2  and  C_11
REMARK    4  A    between atoms: N_3  and  C_4
REMARK    5  A    between atoms: C_4  and  C_5
REMARK    6  A    between atoms: C_14  and  C_15
REMARK    7  A    between atoms: C_15  and  N_16
REMARK    8  A    between atoms: N_16  and  C_17
REMARK    9  A    between atoms: C_18  and  C_20
REMARK                            x       y       z     vdW  Elec       q    Type
REMARK                         _______ _______ _______ _____ _____    ______ ____
ROOT
ATOM      1  C   UNL     1      45.427   6.632  12.362  0.00  0.00    +0.000 A 
ATOM      2  C   UNL     1      45.488   7.943  12.856  0.00  0.00    +0.000 A 
ATOM      3  C   UNL     1      46.710   8.516  13.225  0.00  0.00    +0.000 A 
ATOM      4  C   UNL     1      47.908   7.795  13.109  0.00  0.00    +0.000 A 
ATOM      5  C   UNL     1      47.849   6.472  12.659  0.00  0.00    +0.000 A 
ATOM      6  C   UNL     1      46.627   5.908  12.271  0.00  0.00    +0.000 A 
ENDROOT
BRANCH   1   8
ATOM      7  C   UNL     1      43.696   4.822  12.730  0.00  0.00    +0.000 C 
ATOM      8  C   UNL     1      44.085   6.057  11.903  0.00  0.00    +0.000 C 
BRANCH   8   9
ATOM      9  N   UNL     1      44.134   5.785  10.456  0.00  0.00    +0.000 NA
ATOM     10  H   UNL     1      43.474   6.413   9.995  0.00  0.00    +0.000 HD
BRANCH   9  11
ATOM     11  C   UNL     1      43.744   4.408  10.108  0.00  0.00    +0.000 C 
BRANCH  11  12
ATOM     12  C   UNL     1      44.766   3.707   9.225  0.00  0.00    +0.000 A 
ATOM     13  C   UNL     1      44.918   2.322   9.293  0.00  0.00    +0.000 A 
ATOM     14  C   UNL     1      45.827   1.697   8.443  0.00  0.00    +0.000 A 
ATOM     15  C   UNL     1      46.554   2.465   7.544  0.00  0.00    +0.000 A 
ATOM     16  C   UNL     1      46.344   3.834   7.536  0.00  0.00    +0.000 A 
ATOM     17  N   UNL     1      45.472   4.470   8.352  0.00  0.00    +0.000 NA
ENDBRANCH  11  12
ENDBRANCH   9  11
ENDBRANCH   8   9
ENDBRANCH   1   8
BRANCH   4  18
ATOM     18  C   UNL     1      49.245   8.461  13.359  0.00  0.00    +0.000 C 
BRANCH  18  19
ATOM     19  N   UNL     1      49.534   8.900  14.726  0.00  0.00    +0.000 N 
ATOM     20  C   UNL     1      49.550  10.330  15.001  0.00  0.00    +0.000 C 
ATOM     21  C   UNL     1      50.058   7.918  15.590  0.00  0.00    +0.000 C 
ATOM     22  O   UNL     1      50.188   6.754  15.216  0.00  0.00    +0.000 OA
BRANCH  21  23
ATOM     23  C   UNL     1      50.410   8.270  16.976  0.00  0.00    +0.000 A 
ATOM     24  C   UNL     1      49.550   8.154  18.057  0.00  0.00    +0.000 A 
ATOM     25  S   UNL     1      50.258   8.585  19.548  0.00  0.00    +0.000 S 
ATOM     26  C   UNL     1      51.781   8.791  18.826  0.00  0.00    +0.000 A 
ATOM     27  N   UNL     1      52.882   9.061  19.579  0.00  0.00    +0.000 NA
ATOM     28  C   UNL     1      53.981   9.126  18.908  0.00  0.00    +0.000 A 
ATOM     29  N   UNL     1      54.071   8.991  17.541  0.00  0.00    +0.000 N 
ATOM     30  C   UNL     1      52.970   8.867  16.727  0.00  0.00    +0.000 A 
ATOM     31  O   UNL     1      53.069   9.012  15.514  0.00  0.00    +0.000 OA
ATOM     32  C   UNL     1      51.727   8.648  17.450  0.00  0.00    +0.000 A 
ATOM     33  H   UNL     1      54.953   9.136  17.071  0.00  0.00    +0.000 HD
ENDBRANCH  21  23
ENDBRANCH  18  19
ENDBRANCH   4  18
TORSDOF 7
ENDMDL
MODEL 6
REMARK VINA RESULT:    -6.248      1.860      2.687
REMARK INTER + INTRA:          -9.987
REMARK INTER:                  -8.883
REMARK INTRA:                  -1.105
REMARK UNBOUND:                -1.182
REMARK  Name = 
REMARK  9 active torsions:
REMARK  status: ('A' for Active; 'I' for Inactive)
REMARK    1  A    between atoms: C_1  and  C_2
REMARK    2  A    between atoms: C_2  and  N_3
REMARK    3  A    between atoms: C_2  and  C_11
REMARK    4  A    between atoms: N_3  and  C_4
REMARK    5  A    between atoms: C_4  and  C_5
REMARK    6  A    between atoms: C_14  and  C_15
REMARK    7  A    between atoms: C_15  and  N_16
REMARK    8  A    between atoms: N_16  and  C_17
REMARK    9  A    between atoms: C_18  and  C_20
REMARK                            x       y       z     vdW  Elec       q    Type
REMARK                         _______ _______ _______ _____ _____    ______ ____
ROOT
ATOM      1  C   UNL     1      46.447   7.185  12.398  0.00  0.00    +0.000 A 
ATOM      2  C   UNL     1      47.626   6.449  12.587  0.00  0.00    +0.000 A 
ATOM      3  C   UNL     1      48.708   6.993  13.289  0.00  0.00    +0.000 A 
ATOM      4  C   UNL     1      48.642   8.288  13.824  0.00  0.00    +0.000 A 
ATOM      5  C   UNL     1      47.486   9.044  13.600  0.00  0.00    +0.000 A 
ATOM      6  C   UNL     1      46.398   8.490  12.916  0.00  0.00    +0.000 A 
ENDROOT
BRANCH   1   8
ATOM      7  C   UNL     1      44.396   5.725  12.664  0.00  0.00    +0.000 C 
ATOM      8  C   UNL     1      45.257   6.539  11.686  0.00  0.00    +0.000 C 
BRANCH   8   9
ATOM      9  N   UNL     1      45.738   5.741  10.545  0.00  0.00    +0.000 NA
ATOM     10  H   UNL     1      45.907   6.378   9.764  0.00  0.00    +0.000 HD
BRANCH   9  11
ATOM     11  C   UNL     1      44.766   4.734  10.086  0.00  0.00    +0.000 C 
BRANCH  11  12
ATOM     12  C   UNL     1      45.356   3.750   9.087  0.00  0.00    +0.000 A 
ATOM     13  C   UNL     1      46.051   4.215   7.972  0.00  0.00    +0.000 A 
ATOM     14  C   UNL     1      46.622   3.295   7.096  0.00  0.00    +0.000 A 
ATOM     15  C   UNL     1      46.492   1.938   7.358  0.00  0.00    +0.000 A 
ATOM     16  C   UNL     1      45.788   1.556   8.488  0.00  0.00    +0.000 A 
ATOM     17  N   UNL     1      45.220   2.425   9.354  0.00  0.00    +0.000 NA
ENDBRANCH  11  12
ENDBRANCH   9  11
ENDBRANCH   8   9
ENDBRANCH   1   8
BRANCH   4  18
ATOM     18  C   UNL     1      49.746   8.820  14.713  0.00  0.00    +0.000 C 
BRANCH  18  19
ATOM     19  N   UNL     1      49.767   8.366  16.105  0.00  0.00    +0.000 N 
ATOM     20  C   UNL     1      48.902   9.041  17.063  0.00  0.00    +0.000 C 
ATOM     21  C   UNL     1      50.832   7.513  16.458  0.00  0.00    +0.000 C 
ATOM     22  O   UNL     1      51.640   7.130  15.614  0.00  0.00    +0.000 OA
BRANCH  21  23
ATOM     23  C   UNL     1      50.957   7.028  17.844  0.00  0.00    +0.000 A 
ATOM     24  C   UNL     1      51.746   7.625  18.814  0.00  0.00    +0.000 A 
ATOM     25  S   UNL     1      51.645   6.870  20.341  0.00  0.00    +0.000 S 
ATOM     26  C   UNL     1      50.428   5.817  19.800  0.00  0.00    +0.000 A 
ATOM     27  N   UNL     1      49.808   4.963  20.659  0.00  0.00    +0.000 NA
ATOM     28  C   UNL     1      48.859   4.271  20.127  0.00  0.00    +0.000 A 
ATOM     29  N   UNL     1      48.504   4.323  18.798  0.00  0.00    +0.000 N 
ATOM     30  C   UNL     1      49.199   5.058  17.866  0.00  0.00    +0.000 A 
ATOM     31  O   UNL     1      49.021   4.877  16.667  0.00  0.00    +0.000 OA
ATOM     32  C   UNL     1      50.184   5.960  18.445  0.00  0.00    +0.000 A 
ATOM     33  H   UNL     1      47.807   3.692  18.431  0.00  0.00    +0.000 HD
ENDBRANCH  21  23
ENDBRANCH  18  19
ENDBRANCH   4  18
TORSDOF 7
ENDMDL
MODEL 7
REMARK VINA RESULT:    -6.247      3.180      3.965
REMARK INTER + INTRA:          -9.986
REMARK INTER:                  -8.848
REMARK INTRA:                  -1.138
REMARK UNBOUND:                -1.182
REMARK  Name = 
REMARK  9 active torsions:
REMARK  status: ('A' for Active; 'I' for Inactive)
REMARK    1  A    between atoms: C_1  and  C_2
REMARK    2  A    between atoms: C_2  and  N_3
REMARK    3  A    between atoms: C_2  and  C_11
REMARK    4  A    between atoms: N_3  and  C_4
REMARK    5  A    between atoms: C_4  and  C_5
REMARK    6  A    between atoms: C_14  and  C_15
REMARK    7  A    between atoms: C_15  and  N_16
REMARK    8  A    between atoms: N_16  and  C_17
REMARK    9  A    between atoms: C_18  and  C_20
REMARK                            x       y       z     vdW  Elec       q    Type
REMARK                         _______ _______ _______ _____ _____    ______ ____
ROOT
ATOM      1  C   UNL     1      45.666   6.888  12.326  0.00  0.00    +0.000 A 
ATOM      2  C   UNL     1      45.633   8.236  12.715  0.00  0.00    +0.000 A 
ATOM      3  C   UNL     1      46.815   8.972  12.854  0.00  0.00    +0.000 A 
ATOM      4  C   UNL     1      48.065   8.383  12.608  0.00  0.00    +0.000 A 
ATOM      5  C   UNL     1      48.106   7.028  12.264  0.00  0.00    +0.000 A 
ATOM      6  C   UNL     1      46.922   6.299  12.105  0.00  0.00    +0.000 A 
ENDROOT
BRANCH   1   8
ATOM      7  C   UNL     1      44.314   4.842  12.956  0.00  0.00    +0.000 C 
ATOM      8  C   UNL     1      44.355   6.128  12.116  0.00  0.00    +0.000 C 
BRANCH   8   9
ATOM      9  N   UNL     1      44.154   5.879  10.678  0.00  0.00    +0.000 NA
ATOM     10  H   UNL     1      43.398   6.484  10.355  0.00  0.00    +0.000 HD
BRANCH   9  11
ATOM     11  C   UNL     1      43.763   4.492  10.376  0.00  0.00    +0.000 C 
BRANCH  11  12
ATOM     12  C   UNL     1      44.722   3.798   9.419  0.00  0.00    +0.000 A 
ATOM     13  C   UNL     1      44.881   2.414   9.468  0.00  0.00    +0.000 A 
ATOM     14  C   UNL     1      45.730   1.796   8.552  0.00  0.00    +0.000 A 
ATOM     15  C   UNL     1      46.390   2.572   7.609  0.00  0.00    +0.000 A 
ATOM     16  C   UNL     1      46.178   3.941   7.624  0.00  0.00    +0.000 A 
ATOM     17  N   UNL     1      45.364   4.569   8.504  0.00  0.00    +0.000 NA
ENDBRANCH  11  12
ENDBRANCH   9  11
ENDBRANCH   8   9
ENDBRANCH   1   8
BRANCH   4  18
ATOM     18  C   UNL     1      49.330   9.214  12.607  0.00  0.00    +0.000 C 
BRANCH  18  19
ATOM     19  N   UNL     1      49.527  10.143  13.723  0.00  0.00    +0.000 N 
ATOM     20  C   UNL     1      49.218  11.550  13.510  0.00  0.00    +0.000 C 
ATOM     21  C   UNL     1      50.274   9.647  14.811  0.00  0.00    +0.000 C 
ATOM     22  O   UNL     1      50.662   8.481  14.830  0.00  0.00    +0.000 OA
BRANCH  21  23
ATOM     23  C   UNL     1      50.553  10.516  15.967  0.00  0.00    +0.000 A 
ATOM     24  C   UNL     1      51.695  11.288  16.110  0.00  0.00    +0.000 A 
ATOM     25  S   UNL     1      51.712  12.234  17.530  0.00  0.00    +0.000 S 
ATOM     26  C   UNL     1      50.128  11.766  17.925  0.00  0.00    +0.000 A 
ATOM     27  N   UNL     1      49.482  12.312  18.990  0.00  0.00    +0.000 NA
ATOM     28  C   UNL     1      48.263  11.914  19.133  0.00  0.00    +0.000 A 
ATOM     29  N   UNL     1      47.647  10.982  18.330  0.00  0.00    +0.000 N 
ATOM     30  C   UNL     1      48.306  10.296  17.338  0.00  0.00    +0.000 A 
ATOM     31  O   UNL     1      47.805   9.301  16.826  0.00  0.00    +0.000 OA
ATOM     32  C   UNL     1      49.636  10.812  17.050  0.00  0.00    +0.000 A 
ATOM     33  H   UNL     1      46.717  10.655  18.549  0.00  0.00    +0.000 HD
ENDBRANCH  21  23
ENDBRANCH  18  19
ENDBRANCH   4  18
TORSDOF 7
ENDMDL
MODEL 8
REMARK VINA RESULT:    -6.083      3.698      4.994
REMARK INTER + INTRA:          -9.755
REMARK INTER:                  -8.842
REMARK INTRA:                  -0.913
REMARK UNBOUND:                -1.182
REMARK  Name = 
REMARK  9 active torsions:
REMARK  status: ('A' for Active; 'I' for Inactive)
REMARK    1  A    between atoms: C_1  and  C_2
REMARK    2  A    between atoms: C_2  and  N_3
REMARK    3  A    between atoms: C_2  and  C_11
REMARK    4  A    between atoms: N_3  and  C_4
REMARK    5  A    between atoms: C_4  and  C_5
REMARK    6  A    between atoms: C_14  and  C_15
REMARK    7  A    between atoms: C_15  and  N_16
REMARK    8  A    between atoms: N_16  and  C_17
REMARK    9  A    between atoms: C_18  and  C_20
REMARK                            x       y       z     vdW  Elec       q    Type
REMARK                         _______ _______ _______ _____ _____    ______ ____
ROOT
ATOM      1  C   UNL     1      45.270   6.238  11.762  0.00  0.00    +0.000 A 
ATOM      2  C   UNL     1      46.610   6.200  12.175  0.00  0.00    +0.000 A 
ATOM      3  C   UNL     1      47.303   7.378  12.473  0.00  0.00    +0.000 A 
ATOM      4  C   UNL     1      46.677   8.629  12.370  0.00  0.00    +0.000 A 
ATOM      5  C   UNL     1      45.355   8.677  11.916  0.00  0.00    +0.000 A 
ATOM      6  C   UNL     1      44.656   7.496  11.638  0.00  0.00    +0.000 A 
ENDROOT
BRANCH   1   8
ATOM      7  C   UNL     1      45.248   3.735  12.139  0.00  0.00    +0.000 C 
ATOM      8  C   UNL     1      44.517   4.930  11.509  0.00  0.00    +0.000 C 
BRANCH   8   9
ATOM      9  N   UNL     1      44.290   4.764  10.062  0.00  0.00    +0.000 NA
ATOM     10  H   UNL     1      44.053   3.786   9.891  0.00  0.00    +0.000 HD
BRANCH   9  11
ATOM     11  C   UNL     1      45.475   5.077   9.246  0.00  0.00    +0.000 C 
BRANCH  11  12
ATOM     12  C   UNL     1      45.989   3.878   8.462  0.00  0.00    +0.000 A 
ATOM     13  C   UNL     1      45.739   2.584   8.916  0.00  0.00    +0.000 A 
ATOM     14  C   UNL     1      46.180   1.502   8.157  0.00  0.00    +0.000 A 
ATOM     15  C   UNL     1      46.851   1.738   6.965  0.00  0.00    +0.000 A 
ATOM     16  C   UNL     1      47.059   3.053   6.582  0.00  0.00    +0.000 A 
ATOM     17  N   UNL     1      46.647   4.123   7.299  0.00  0.00    +0.000 NA
ENDBRANCH  11  12
ENDBRANCH   9  11
ENDBRANCH   8   9
ENDBRANCH   1   8
BRANCH   4  18
ATOM     18  C   UNL     1      47.373   9.889  12.839  0.00  0.00    +0.000 C 
BRANCH  18  19
ATOM     19  N   UNL     1      48.822   9.973  12.639  0.00  0.00    +0.000 N 
ATOM     20  C   UNL     1      49.687   9.814  13.801  0.00  0.00    +0.000 C 
ATOM     21  C   UNL     1      49.244  10.489  11.398  0.00  0.00    +0.000 C 
ATOM     22  O   UNL     1      48.427  10.777  10.525  0.00  0.00    +0.000 OA
BRANCH  21  23
ATOM     23  C   UNL     1      50.681  10.642  11.115  0.00  0.00    +0.000 A 
ATOM     24  C   UNL     1      51.342  11.858  11.049  0.00  0.00    +0.000 A 
ATOM     25  S   UNL     1      53.017  11.715  10.760  0.00  0.00    +0.000 S 
ATOM     26  C   UNL     1      52.945  10.022  10.868  0.00  0.00    +0.000 A 
ATOM     27  N   UNL     1      54.078   9.269  10.819  0.00  0.00    +0.000 NA
ATOM     28  C   UNL     1      53.882   8.004  10.981  0.00  0.00    +0.000 A 
ATOM     29  N   UNL     1      52.646   7.419  11.139  0.00  0.00    +0.000 N 
ATOM     30  C   UNL     1      51.468   8.122  11.045  0.00  0.00    +0.000 A 
ATOM     31  O   UNL     1      50.397   7.536  10.930  0.00  0.00    +0.000 OA
ATOM     32  C   UNL     1      51.646   9.566  11.006  0.00  0.00    +0.000 A 
ATOM     33  H   UNL     1      52.558   6.415  11.177  0.00  0.00    +0.000 HD
ENDBRANCH  21  23
ENDBRANCH  18  19
ENDBRANCH   4  18
TORSDOF 7
ENDMDL
MODEL 9
REMARK VINA RESULT:    -5.912      2.793      8.639
REMARK INTER + INTRA:          -9.513
REMARK INTER:                  -8.672
REMARK INTRA:                  -0.841
REMARK UNBOUND:                -1.182
REMARK  Name = 
REMARK  9 active torsions:
REMARK  status: ('A' for Active; 'I' for Inactive)
REMARK    1  A    between atoms: C_1  and  C_2
REMARK    2  A    between atoms: C_2  and  N_3
REMARK    3  A    between atoms: C_2  and  C_11
REMARK    4  A    between atoms: N_3  and  C_4
REMARK    5  A    between atoms: C_4  and  C_5
REMARK    6  A    between atoms: C_14  and  C_15
REMARK    7  A    between atoms: C_15  and  N_16
REMARK    8  A    between atoms: N_16  and  C_17
REMARK    9  A    between atoms: C_18  and  C_20
REMARK                            x       y       z     vdW  Elec       q    Type
REMARK                         _______ _______ _______ _____ _____    ______ ____
ROOT
ATOM      1  C   UNL     1      50.327   8.694  15.495  0.00  0.00    +0.000 A 
ATOM      2  C   UNL     1      49.062   9.106  15.939  0.00  0.00    +0.000 A 
ATOM      3  C   UNL     1      47.938   8.991  15.113  0.00  0.00    +0.000 A 
ATOM      4  C   UNL     1      48.045   8.458  13.820  0.00  0.00    +0.000 A 
ATOM      5  C   UNL     1      49.311   8.086  13.355  0.00  0.00    +0.000 A 
ATOM      6  C   UNL     1      50.431   8.183  14.191  0.00  0.00    +0.000 A 
ENDROOT
BRANCH   1   8
ATOM      7  C   UNL     1      52.832   8.407  15.723  0.00  0.00    +0.000 C 
ATOM      8  C   UNL     1      51.525   8.769  16.444  0.00  0.00    +0.000 C 
BRANCH   8   9
ATOM      9  N   UNL     1      51.271   7.927  17.627  0.00  0.00    +0.000 NA
ATOM     10  H   UNL     1      51.641   8.413  18.445  0.00  0.00    +0.000 HD
BRANCH   9  11
ATOM     11  C   UNL     1      51.934   6.614  17.560  0.00  0.00    +0.000 C 
BRANCH  11  12
ATOM     12  C   UNL     1      50.950   5.454  17.487  0.00  0.00    +0.000 A 
ATOM     13  C   UNL     1      51.412   4.140  17.543  0.00  0.00    +0.000 A 
ATOM     14  C   UNL     1      50.490   3.096  17.521  0.00  0.00    +0.000 A 
ATOM     15  C   UNL     1      49.135   3.389  17.451  0.00  0.00    +0.000 A 
ATOM     16  C   UNL     1      48.756   4.720  17.401  0.00  0.00    +0.000 A 
ATOM     17  N   UNL     1      49.628   5.755  17.416  0.00  0.00    +0.000 NA
ENDBRANCH  11  12
ENDBRANCH   9  11
ENDBRANCH   8   9
ENDBRANCH   1   8
BRANCH   4  18
ATOM     18  C   UNL     1      46.812   8.189  12.984  0.00  0.00    +0.000 C 
BRANCH  18  19
ATOM     19  N   UNL     1      46.391   6.794  12.834  0.00  0.00    +0.000 N 
ATOM     20  C   UNL     1      47.320   5.747  13.240  0.00  0.00    +0.000 C 
ATOM     21  C   UNL     1      45.246   6.578  12.042  0.00  0.00    +0.000 C 
ATOM     22  O   UNL     1      44.615   7.524  11.575  0.00  0.00    +0.000 OA
BRANCH  21  23
ATOM     23  C   UNL     1      44.763   5.206  11.806  0.00  0.00    +0.000 A 
ATOM     24  C   UNL     1      44.020   4.470  12.715  0.00  0.00    +0.000 A 
ATOM     25  S   UNL     1      43.557   2.933  12.138  0.00  0.00    +0.000 S 
ATOM     26  C   UNL     1      44.197   3.258  10.600  0.00  0.00    +0.000 A 
ATOM     27  N   UNL     1      44.036   2.378   9.575  0.00  0.00    +0.000 NA
ATOM     28  C   UNL     1      44.514   2.782   8.448  0.00  0.00    +0.000 A 
ATOM     29  N   UNL     1      45.183   3.972   8.264  0.00  0.00    +0.000 N 
ATOM     30  C   UNL     1      45.499   4.819   9.300  0.00  0.00    +0.000 A 
ATOM     31  O   UNL     1      46.310   5.724   9.142  0.00  0.00    +0.000 OA
ATOM     32  C   UNL     1      44.857   4.473  10.559  0.00  0.00    +0.000 A 
ATOM     33  H   UNL     1      45.604   4.188   7.373  0.00  0.00    +0.000 HD
ENDBRANCH  21  23
ENDBRANCH  18  19
ENDBRANCH   4  18
TORSDOF 7
ENDMDL
