MODEL 1
REMARK VINA RESULT:    -8.535      0.000      0.000
REMARK INTER + INTRA:         -13.621
REMARK INTER:                 -12.527
REMARK INTRA:                  -1.094
REMARK UNBOUND:                -1.094
REMARK  Name = 
REMARK  8 active torsions:
REMARK  status: ('A' for Active; 'I' for Inactive)
REMARK    1  A    between atoms: C_2  and  C_3
REMARK    2  A    between atoms: C_3  and  N_4
REMARK    3  A    between atoms: C_3  and  C_12
REMARK    4  A    between atoms: N_4  and  C_5
REMARK    5  A    between atoms: C_5  and  C_6
REMARK    6  A    between atoms: C_15  and  C_16
REMARK    7  A    between atoms: C_16  and  N_17
REMARK    8  A    between atoms: C_18  and  C_20
REMARK                            x       y       z     vdW  Elec       q    Type
REMARK                         _______ _______ _______ _____ _____    ______ ____
ROOT
ATOM      1  C   UNL     1      45.284   4.633  11.904  0.00  0.00    +0.000 A 
ATOM      2  C   UNL     1      45.803   5.820  11.363  0.00  0.00    +0.000 A 
ATOM      3  C   UNL     1      46.829   6.502  12.012  0.00  0.00    +0.000 A 
ATOM      4  C   UNL     1      47.401   5.990  13.184  0.00  0.00    +0.000 A 
ATOM      5  C   UNL     1      46.907   4.790  13.710  0.00  0.00    +0.000 A 
ATOM      6  C   UNL     1      45.859   4.123  13.082  0.00  0.00    +0.000 A 
ENDROOT
BRANCH   1   7
ATOM      7  C   UNL     1      44.036   3.997  11.278  0.00  0.00    +0.000 C 
BRANCH   7   9
ATOM      8  N   UNL     1      41.895   5.716  11.716  0.00  0.00    +0.000 NA
ATOM      9  C   UNL     1      42.866   4.936  11.517  0.00  0.00    +0.000 C 
ENDBRANCH   7   9
BRANCH   7  10
ATOM     10  N   UNL     1      44.233   3.739   9.840  0.00  0.00    +0.000 NA
ATOM     11  H   UNL     1      44.900   4.418   9.471  0.00  0.00    +0.000 HD
BRANCH  10  12
ATOM     12  C   UNL     1      44.757   2.399   9.571  0.00  0.00    +0.000 C 
BRANCH  12  13
ATOM     13  C   UNL     1      45.700   2.412   8.399  0.00  0.00    +0.000 A 
ATOM     14  C   UNL     1      46.392   1.253   8.025  0.00  0.00    +0.000 A 
ATOM     15  C   UNL     1      47.226   1.263   6.907  0.00  0.00    +0.000 A 
ATOM     16  C   UNL     1      47.378   2.432   6.165  0.00  0.00    +0.000 A 
ATOM     17  C   UNL     1      46.709   3.596   6.542  0.00  0.00    +0.000 A 
ATOM     18  C   UNL     1      45.871   3.585   7.654  0.00  0.00    +0.000 A 
ENDBRANCH  12  13
ENDBRANCH  10  12
ENDBRANCH   7  10
ENDBRANCH   1   7
BRANCH   4  19
ATOM     19  C   UNL     1      48.518   6.723  13.885  0.00  0.00    +0.000 C 
BRANCH  19  20
ATOM     20  N   UNL     1      48.279   6.849  15.298  0.00  0.00    +0.000 N 
ATOM     21  C   UNL     1      49.237   6.611  16.247  0.00  0.00    +0.000 C 
ATOM     22  O   UNL     1      50.383   6.275  15.965  0.00  0.00    +0.000 OA
ATOM     23  H   UNL     1      47.307   6.868  15.585  0.00  0.00    +0.000 HD
BRANCH  21  24
ATOM     24  C   UNL     1      48.823   6.853  17.634  0.00  0.00    +0.000 A 
ATOM     25  C   UNL     1      48.375   8.111  18.012  0.00  0.00    +0.000 A 
ATOM     26  S   UNL     1      47.870   8.191  19.639  0.00  0.00    +0.000 S 
ATOM     27  C   UNL     1      48.289   6.564  19.908  0.00  0.00    +0.000 A 
ATOM     28  N   UNL     1      48.123   5.992  21.129  0.00  0.00    +0.000 NA
ATOM     29  C   UNL     1      48.508   4.758  21.201  0.00  0.00    +0.000 A 
ATOM     30  N   UNL     1      49.027   4.039  20.156  0.00  0.00    +0.000 N 
ATOM     31  C   UNL     1      49.163   4.566  18.891  0.00  0.00    +0.000 A 
ATOM     32  O   UNL     1      49.553   3.871  17.953  0.00  0.00    +0.000 OA
ATOM     33  C   UNL     1      48.777   5.954  18.767  0.00  0.00    +0.000 A 
ATOM     34  H   UNL     1      49.288   3.070  20.270  0.00  0.00    +0.000 HD
ENDBRANCH  21  24
ENDBRANCH  19  20
ENDBRANCH   4  19
TORSDOF 8
ENDMDL
MODEL 2
REMARK VINA RESULT:    -8.374      1.392      2.005
REMARK INTER + INTRA:         -13.384
REMARK INTER:                 -12.214
REMARK INTRA:                  -1.170
REMARK UNBOUND:                -1.094
REMARK  Name = 
REMARK  8 active torsions:
REMARK  status: ('A' for Active; 'I' for Inactive)
REMARK    1  A    between atoms: C_2  and  C_3
REMARK    2  A    between atoms: C_3  and  N_4
REMARK    3  A    between atoms: C_3  and  C_12
REMARK    4  A    between atoms: N_4  and  C_5
REMARK    5  A    between atoms: C_5  and  C_6
REMARK    6  A    between atoms: C_15  and  C_16
REMARK    7  A    between atoms: C_16  and  N_17
REMARK    8  A    between atoms: C_18  and  C_20
REMARK                            x       y       z     vdW  Elec       q    Type
REMARK                         _______ _______ _______ _____ _____    ______ ____
ROOT
ATOM      1  C   UNL     1      45.760   5.206  11.794  0.00  0.00    +0.000 A 
ATOM      2  C   UNL     1      46.441   6.368  11.400  0.00  0.00    +0.000 A 
ATOM      3  C   UNL     1      47.330   6.995  12.270  0.00  0.00    +0.000 A 
ATOM      4  C   UNL     1      47.604   6.450  13.531  0.00  0.00    +0.000 A 
ATOM      5  C   UNL     1      46.950   5.273  13.916  0.00  0.00    +0.000 A 
ATOM      6  C   UNL     1      46.036   4.662  13.061  0.00  0.00    +0.000 A 
ENDROOT
BRANCH   1   7
ATOM      7  C   UNL     1      44.652   4.636  10.899  0.00  0.00    +0.000 C 
BRANCH   7   9
ATOM      8  N   UNL     1      42.230   5.689  11.768  0.00  0.00    +0.000 NA
ATOM      9  C   UNL     1      43.329   5.212  11.374  0.00  0.00    +0.000 C 
ENDBRANCH   7   9
BRANCH   7  10
ATOM     10  N   UNL     1      44.897   4.953   9.480  0.00  0.00    +0.000 NA
ATOM     11  H   UNL     1      45.903   5.034   9.329  0.00  0.00    +0.000 HD
BRANCH  10  12
ATOM     12  C   UNL     1      44.385   3.925   8.573  0.00  0.00    +0.000 C 
BRANCH  12  13
ATOM     13  C   UNL     1      45.503   3.083   8.023  0.00  0.00    +0.000 A 
ATOM     14  C   UNL     1      45.678   1.760   8.450  0.00  0.00    +0.000 A 
ATOM     15  C   UNL     1      46.688   0.972   7.898  0.00  0.00    +0.000 A 
ATOM     16  C   UNL     1      47.530   1.504   6.924  0.00  0.00    +0.000 A 
ATOM     17  C   UNL     1      47.375   2.826   6.509  0.00  0.00    +0.000 A 
ATOM     18  C   UNL     1      46.364   3.611   7.055  0.00  0.00    +0.000 A 
ENDBRANCH  12  13
ENDBRANCH  10  12
ENDBRANCH   7  10
ENDBRANCH   1   7
BRANCH   4  19
ATOM     19  C   UNL     1      48.572   7.122  14.472  0.00  0.00    +0.000 C 
BRANCH  19  20
ATOM     20  N   UNL     1      48.362   6.724  15.839  0.00  0.00    +0.000 N 
ATOM     21  C   UNL     1      49.360   6.237  16.641  0.00  0.00    +0.000 C 
ATOM     22  O   UNL     1      50.518   6.105  16.257  0.00  0.00    +0.000 OA
ATOM     23  H   UNL     1      47.399   6.571  16.115  0.00  0.00    +0.000 HD
BRANCH  21  24
ATOM     24  C   UNL     1      48.966   5.943  18.024  0.00  0.00    +0.000 A 
ATOM     25  C   UNL     1      49.162   4.671  18.542  0.00  0.00    +0.000 A 
ATOM     26  S   UNL     1      48.713   4.529  20.182  0.00  0.00    +0.000 S 
ATOM     27  C   UNL     1      48.186   6.146  20.236  0.00  0.00    +0.000 A 
ATOM     28  N   UNL     1      47.658   6.671  21.372  0.00  0.00    +0.000 NA
ATOM     29  C   UNL     1      47.273   7.902  21.266  0.00  0.00    +0.000 A 
ATOM     30  N   UNL     1      47.386   8.662  20.130  0.00  0.00    +0.000 N 
ATOM     31  C   UNL     1      47.962   8.183  18.975  0.00  0.00    +0.000 A 
ATOM     32  O   UNL     1      48.126   8.913  17.998  0.00  0.00    +0.000 OA
ATOM     33  C   UNL     1      48.378   6.799  19.032  0.00  0.00    +0.000 A 
ATOM     34  H   UNL     1      47.087   9.627  20.117  0.00  0.00    +0.000 HD
ENDBRANCH  21  24
ENDBRANCH  19  20
ENDBRANCH   4  19
TORSDOF 8
ENDMDL
MODEL 3
REMARK VINA RESULT:    -7.946      0.870      1.478
REMARK INTER + INTRA:         -12.756
REMARK INTER:                 -11.750
REMARK INTRA:                  -1.005
REMARK UNBOUND:                -1.094
REMARK  Name = 
REMARK  8 active torsions:
REMARK  status: ('A' for Active; 'I' for Inactive)
REMARK    1  A    between atoms: C_2  and  C_3
REMARK    2  A    between atoms: C_3  and  N_4
REMARK    3  A    between atoms: C_3  and  C_12
REMARK    4  A    between atoms: N_4  and  C_5
REMARK    5  A    between atoms: C_5  and  C_6
REMARK    6  A    between atoms: C_15  and  C_16
REMARK    7  A    between atoms: C_16  and  N_17
REMARK    8  A    between atoms: C_18  and  C_20
REMARK                            x       y       z     vdW  Elec       q    Type
REMARK                         _______ _______ _______ _____ _____    ______ ____
ROOT
ATOM      1  C   UNL     1      45.500   5.227  11.949  0.00  0.00    +0.000 A 
ATOM      2  C   UNL     1      45.821   4.755  13.231  0.00  0.00    +0.000 A 
ATOM      3  C   UNL     1      46.900   5.287  13.931  0.00  0.00    +0.000 A 
ATOM      4  C   UNL     1      47.652   6.342  13.396  0.00  0.00    +0.000 A 
ATOM      5  C   UNL     1      47.316   6.838  12.130  0.00  0.00    +0.000 A 
ATOM      6  C   UNL     1      46.258   6.284  11.414  0.00  0.00    +0.000 A 
ENDROOT
BRANCH   1   7
ATOM      7  C   UNL     1      44.429   4.507  11.121  0.00  0.00    +0.000 C 
BRANCH   7   9
ATOM      8  N   UNL     1      41.976   5.681  11.696  0.00  0.00    +0.000 NA
ATOM      9  C   UNL     1      43.089   5.149  11.435  0.00  0.00    +0.000 C 
ENDBRANCH   7   9
BRANCH   7  10
ATOM     10  N   UNL     1      44.733   4.575   9.680  0.00  0.00    +0.000 NA
ATOM     11  H   UNL     1      45.732   4.747   9.561  0.00  0.00    +0.000 HD
BRANCH  10  12
ATOM     12  C   UNL     1      44.400   3.339   8.971  0.00  0.00    +0.000 C 
BRANCH  12  13
ATOM     13  C   UNL     1      45.576   2.835   8.180  0.00  0.00    +0.000 A 
ATOM     14  C   UNL     1      46.323   3.706   7.375  0.00  0.00    +0.000 A 
ATOM     15  C   UNL     1      47.441   3.239   6.685  0.00  0.00    +0.000 A 
ATOM     16  C   UNL     1      47.812   1.900   6.788  0.00  0.00    +0.000 A 
ATOM     17  C   UNL     1      47.062   1.022   7.570  0.00  0.00    +0.000 A 
ATOM     18  C   UNL     1      45.950   1.489   8.265  0.00  0.00    +0.000 A 
ENDBRANCH  12  13
ENDBRANCH  10  12
ENDBRANCH   7  10
ENDBRANCH   1   7
BRANCH   4  19
ATOM     19  C   UNL     1      48.817   6.926  14.155  0.00  0.00    +0.000 C 
BRANCH  19  20
ATOM     20  N   UNL     1      48.640   6.825  15.579  0.00  0.00    +0.000 N 
ATOM     21  C   UNL     1      48.948   7.837  16.449  0.00  0.00    +0.000 C 
ATOM     22  O   UNL     1      49.398   8.917  16.080  0.00  0.00    +0.000 OA
ATOM     23  H   UNL     1      48.522   5.888  15.948  0.00  0.00    +0.000 HD
BRANCH  21  24
ATOM     24  C   UNL     1      48.640   7.570  17.859  0.00  0.00    +0.000 A 
ATOM     25  C   UNL     1      48.083   8.569  18.645  0.00  0.00    +0.000 A 
ATOM     26  S   UNL     1      47.727   8.063  20.235  0.00  0.00    +0.000 S 
ATOM     27  C   UNL     1      48.360   6.510  19.942  0.00  0.00    +0.000 A 
ATOM     28  N   UNL     1      48.380   5.568  20.920  0.00  0.00    +0.000 NA
ATOM     29  C   UNL     1      48.914   4.442  20.570  0.00  0.00    +0.000 A 
ATOM     30  N   UNL     1      49.415   4.168  19.324  0.00  0.00    +0.000 N 
ATOM     31  C   UNL     1      49.367   5.078  18.291  0.00  0.00    +0.000 A 
ATOM     32  O   UNL     1      49.748   4.775  17.161  0.00  0.00    +0.000 OA
ATOM     33  C   UNL     1      48.809   6.365  18.642  0.00  0.00    +0.000 A 
ATOM     34  H   UNL     1      49.800   3.260  19.106  0.00  0.00    +0.000 HD
ENDBRANCH  21  24
ENDBRANCH  19  20
ENDBRANCH   4  19
TORSDOF 8
ENDMDL
MODEL 4
REMARK VINA RESULT:    -7.314      1.596      2.354
REMARK INTER + INTRA:         -11.828
REMARK INTER:                 -11.017
REMARK INTRA:                  -0.811
REMARK UNBOUND:                -1.094
REMARK  Name = 
REMARK  8 active torsions:
REMARK  status: ('A' for Active; 'I' for Inactive)
REMARK    1  A    between atoms: C_2  and  C_3
REMARK    2  A    between atoms: C_3  and  N_4
REMARK    3  A    between atoms: C_3  and  C_12
REMARK    4  A    between atoms: N_4  and  C_5
REMARK    5  A    between atoms: C_5  and  C_6
REMARK    6  A    between atoms: C_15  and  C_16
REMARK    7  A    between atoms: C_16  and  N_17
REMARK    8  A    between atoms: C_18  and  C_20
REMARK                            x       y       z     vdW  Elec       q    Type
REMARK                         _______ _______ _______ _____ _____    ______ ____
ROOT
ATOM      1  C   UNL     1      45.448   4.477  12.814  0.00  0.00    +0.000 A 
ATOM      2  C   UNL     1      46.206   3.934  13.863  0.00  0.00    +0.000 A 
ATOM      3  C   UNL     1      47.241   4.667  14.440  0.00  0.00    +0.000 A 
ATOM      4  C   UNL     1      47.508   5.978  14.025  0.00  0.00    +0.000 A 
ATOM      5  C   UNL     1      46.734   6.535  13.000  0.00  0.00    +0.000 A 
ATOM      6  C   UNL     1      45.721   5.793  12.399  0.00  0.00    +0.000 A 
ENDROOT
BRANCH   1   7
ATOM      7  C   UNL     1      44.441   3.592  12.070  0.00  0.00    +0.000 C 
BRANCH   7   9
ATOM      8  N   UNL     1      42.491   5.250  10.983  0.00  0.00    +0.000 NA
ATOM      9  C   UNL     1      43.376   4.498  11.476  0.00  0.00    +0.000 C 
ENDBRANCH   7   9
BRANCH   7  10
ATOM     10  N   UNL     1      45.105   2.788  11.027  0.00  0.00    +0.000 NA
ATOM     11  H   UNL     1      45.118   1.812  11.321  0.00  0.00    +0.000 HD
BRANCH  10  12
ATOM     12  C   UNL     1      44.423   2.862   9.734  0.00  0.00    +0.000 C 
BRANCH  12  13
ATOM     13  C   UNL     1      45.392   2.673   8.600  0.00  0.00    +0.000 A 
ATOM     14  C   UNL     1      45.718   3.740   7.752  0.00  0.00    +0.000 A 
ATOM     15  C   UNL     1      46.655   3.566   6.733  0.00  0.00    +0.000 A 
ATOM     16  C   UNL     1      47.262   2.326   6.552  0.00  0.00    +0.000 A 
ATOM     17  C   UNL     1      46.928   1.253   7.378  0.00  0.00    +0.000 A 
ATOM     18  C   UNL     1      45.998   1.427   8.399  0.00  0.00    +0.000 A 
ENDBRANCH  12  13
ENDBRANCH  10  12
ENDBRANCH   7  10
ENDBRANCH   1   7
BRANCH   4  19
ATOM     19  C   UNL     1      48.622   6.777  14.654  0.00  0.00    +0.000 C 
BRANCH  19  20
ATOM     20  N   UNL     1      48.440   6.936  16.072  0.00  0.00    +0.000 N 
ATOM     21  C   UNL     1      49.100   6.181  17.004  0.00  0.00    +0.000 C 
ATOM     22  O   UNL     1      49.907   5.307  16.702  0.00  0.00    +0.000 OA
ATOM     23  H   UNL     1      47.615   7.449  16.360  0.00  0.00    +0.000 HD
BRANCH  21  24
ATOM     24  C   UNL     1      48.830   6.532  18.404  0.00  0.00    +0.000 A 
ATOM     25  C   UNL     1      47.733   5.984  19.053  0.00  0.00    +0.000 A 
ATOM     26  S   UNL     1      47.613   6.446  20.691  0.00  0.00    +0.000 S 
ATOM     27  C   UNL     1      48.989   7.440  20.569  0.00  0.00    +0.000 A 
ATOM     28  N   UNL     1      49.431   8.156  21.636  0.00  0.00    +0.000 NA
ATOM     29  C   UNL     1      50.469   8.890  21.397  0.00  0.00    +0.000 A 
ATOM     30  N   UNL     1      51.117   8.960  20.191  0.00  0.00    +0.000 N 
ATOM     31  C   UNL     1      50.732   8.211  19.101  0.00  0.00    +0.000 A 
ATOM     32  O   UNL     1      51.383   8.231  18.057  0.00  0.00    +0.000 OA
ATOM     33  C   UNL     1      49.555   7.399  19.308  0.00  0.00    +0.000 A 
ATOM     34  H   UNL     1      51.938   9.537  20.074  0.00  0.00    +0.000 HD
ENDBRANCH  21  24
ENDBRANCH  19  20
ENDBRANCH   4  19
TORSDOF 8
ENDMDL
MODEL 5
REMARK VINA RESULT:    -7.174      3.362      9.201
REMARK INTER + INTRA:         -11.623
REMARK INTER:                  -9.642
REMARK INTRA:                  -1.981
REMARK UNBOUND:                -1.094
REMARK  Name = 
REMARK  8 active torsions:
REMARK  status: ('A' for Active; 'I' for Inactive)
REMARK    1  A    between atoms: C_2  and  C_3
REMARK    2  A    between atoms: C_3  and  N_4
REMARK    3  A    between atoms: C_3  and  C_12
REMARK    4  A    between atoms: N_4  and  C_5
REMARK    5  A    between atoms: C_5  and  C_6
REMARK    6  A    between atoms: C_15  and  C_16
REMARK    7  A    between atoms: C_16  and  N_17
REMARK    8  A    between atoms: C_18  and  C_20
REMARK                            x       y       z     vdW  Elec       q    Type
REMARK                         _______ _______ _______ _____ _____    ______ ____
ROOT
ATOM      1  C   UNL     1      49.027   8.043  16.156  0.00  0.00    +0.000 A 
ATOM      2  C   UNL     1      49.312   6.891  15.405  0.00  0.00    +0.000 A 
ATOM      3  C   UNL     1      48.849   6.767  14.098  0.00  0.00    +0.000 A 
ATOM      4  C   UNL     1      48.139   7.809  13.488  0.00  0.00    +0.000 A 
ATOM      5  C   UNL     1      47.879   8.973  14.222  0.00  0.00    +0.000 A 
ATOM      6  C   UNL     1      48.313   9.086  15.540  0.00  0.00    +0.000 A 
ENDROOT
BRANCH   1   7
ATOM      7  C   UNL     1      49.385   8.084  17.647  0.00  0.00    +0.000 C 
BRANCH   7   9
ATOM      8  N   UNL     1      49.955  10.723  18.313  0.00  0.00    +0.000 NA
ATOM      9  C   UNL     1      49.696   9.526  18.010  0.00  0.00    +0.000 C 
ENDBRANCH   7   9
BRANCH   7  10
ATOM     10  N   UNL     1      48.289   7.546  18.473  0.00  0.00    +0.000 NA
ATOM     11  H   UNL     1      47.520   7.269  17.862  0.00  0.00    +0.000 HD
BRANCH  10  12
ATOM     12  C   UNL     1      48.690   6.375  19.254  0.00  0.00    +0.000 C 
BRANCH  12  13
ATOM     13  C   UNL     1      48.551   5.113  18.448  0.00  0.00    +0.000 A 
ATOM     14  C   UNL     1      47.323   4.765  17.870  0.00  0.00    +0.000 A 
ATOM     15  C   UNL     1      47.217   3.618  17.083  0.00  0.00    +0.000 A 
ATOM     16  C   UNL     1      48.333   2.811  16.879  0.00  0.00    +0.000 A 
ATOM     17  C   UNL     1      49.554   3.139  17.467  0.00  0.00    +0.000 A 
ATOM     18  C   UNL     1      49.662   4.287  18.247  0.00  0.00    +0.000 A 
ENDBRANCH  12  13
ENDBRANCH  10  12
ENDBRANCH   7  10
ENDBRANCH   1   7
BRANCH   4  19
ATOM     19  C   UNL     1      47.642   7.681  12.069  0.00  0.00    +0.000 C 
BRANCH  19  20
ATOM     20  N   UNL     1      46.894   6.469  11.866  0.00  0.00    +0.000 N 
ATOM     21  C   UNL     1      45.534   6.392  12.008  0.00  0.00    +0.000 C 
ATOM     22  O   UNL     1      44.842   7.358  12.317  0.00  0.00    +0.000 OA
ATOM     23  H   UNL     1      47.430   5.609  11.866  0.00  0.00    +0.000 HD
BRANCH  21  24
ATOM     24  C   UNL     1      44.942   5.086  11.698  0.00  0.00    +0.000 A 
ATOM     25  C   UNL     1      44.235   4.399  12.675  0.00  0.00    +0.000 A 
ATOM     26  S   UNL     1      43.559   2.934  12.120  0.00  0.00    +0.000 S 
ATOM     27  C   UNL     1      44.239   3.141  10.574  0.00  0.00    +0.000 A 
ATOM     28  N   UNL     1      44.057   2.211   9.600  0.00  0.00    +0.000 NA
ATOM     29  C   UNL     1      44.651   2.481   8.483  0.00  0.00    +0.000 A 
ATOM     30  N   UNL     1      45.397   3.605   8.245  0.00  0.00    +0.000 N 
ATOM     31  C   UNL     1      45.564   4.595   9.188  0.00  0.00    +0.000 A 
ATOM     32  O   UNL     1      46.169   5.632   8.919  0.00  0.00    +0.000 OA
ATOM     33  C   UNL     1      44.946   4.325  10.467  0.00  0.00    +0.000 A 
ATOM     34  H   UNL     1      45.818   3.770   7.341  0.00  0.00    +0.000 HD
ENDBRANCH  21  24
ENDBRANCH  19  20
ENDBRANCH   4  19
TORSDOF 8
ENDMDL
MODEL 6
REMARK VINA RESULT:    -7.118      3.828     10.066
REMARK INTER + INTRA:         -11.541
REMARK INTER:                  -9.485
REMARK INTRA:                  -2.056
REMARK UNBOUND:                -1.094
REMARK  Name = 
REMARK  8 active torsions:
REMARK  status: ('A' for Active; 'I' for Inactive)
REMARK    1  A    between atoms: C_2  and  C_3
REMARK    2  A    between atoms: C_3  and  N_4
REMARK    3  A    between atoms: C_3  and  C_12
REMARK    4  A    between atoms: N_4  and  C_5
REMARK    5  A    between atoms: C_5  and  C_6
REMARK    6  A    between atoms: C_15  and  C_16
REMARK    7  A    between atoms: C_16  and  N_17
REMARK    8  A    between atoms: C_18  and  C_20
REMARK                            x       y       z     vdW  Elec       q    Type
REMARK                         _______ _______ _______ _____ _____    ______ ____
ROOT
ATOM      1  C   UNL     1      51.190   5.084  17.988  0.00  0.00    +0.000 A 
ATOM      2  C   UNL     1      50.828   3.737  18.142  0.00  0.00    +0.000 A 
ATOM      3  C   UNL     1      49.598   3.278  17.679  0.00  0.00    +0.000 A 
ATOM      4  C   UNL     1      48.723   4.136  17.000  0.00  0.00    +0.000 A 
ATOM      5  C   UNL     1      49.093   5.474  16.816  0.00  0.00    +0.000 A 
ATOM      6  C   UNL     1      50.308   5.943  17.308  0.00  0.00    +0.000 A 
ENDROOT
BRANCH   1   7
ATOM      7  C   UNL     1      52.462   5.610  18.665  0.00  0.00    +0.000 C 
BRANCH   7   9
ATOM      8  N   UNL     1      52.841   8.237  17.839  0.00  0.00    +0.000 NA
ATOM      9  C   UNL     1      52.669   7.046  18.213  0.00  0.00    +0.000 C 
ENDBRANCH   7   9
BRANCH   7  10
ATOM     10  N   UNL     1      52.361   5.517  20.133  0.00  0.00    +0.000 NA
ATOM     11  H   UNL     1      53.302   5.471  20.526  0.00  0.00    +0.000 HD
BRANCH  10  12
ATOM     12  C   UNL     1      51.679   6.667  20.728  0.00  0.00    +0.000 C 
BRANCH  12  13
ATOM     13  C   UNL     1      50.202   6.412  20.860  0.00  0.00    +0.000 A 
ATOM     14  C   UNL     1      49.271   7.379  20.461  0.00  0.00    +0.000 A 
ATOM     15  C   UNL     1      47.904   7.113  20.541  0.00  0.00    +0.000 A 
ATOM     16  C   UNL     1      47.463   5.885  21.028  0.00  0.00    +0.000 A 
ATOM     17  C   UNL     1      48.384   4.924  21.447  0.00  0.00    +0.000 A 
ATOM     18  C   UNL     1      49.748   5.186  21.360  0.00  0.00    +0.000 A 
ENDBRANCH  12  13
ENDBRANCH  10  12
ENDBRANCH   7  10
ENDBRANCH   1   7
BRANCH   4  19
ATOM     19  C   UNL     1      47.392   3.640  16.490  0.00  0.00    +0.000 C 
BRANCH  19  20
ATOM     20  N   UNL     1      46.799   4.554  15.549  0.00  0.00    +0.000 N 
ATOM     21  C   UNL     1      46.828   4.361  14.194  0.00  0.00    +0.000 C 
ATOM     22  O   UNL     1      47.360   3.386  13.671  0.00  0.00    +0.000 OA
ATOM     23  H   UNL     1      46.583   5.479  15.903  0.00  0.00    +0.000 HD
BRANCH  21  24
ATOM     24  C   UNL     1      46.115   5.369  13.400  0.00  0.00    +0.000 A 
ATOM     25  C   UNL     1      46.697   6.608  13.175  0.00  0.00    +0.000 A 
ATOM     26  S   UNL     1      45.762   7.627  12.177  0.00  0.00    +0.000 S 
ATOM     27  C   UNL     1      44.521   6.468  12.062  0.00  0.00    +0.000 A 
ATOM     28  N   UNL     1      43.391   6.722  11.351  0.00  0.00    +0.000 NA
ATOM     29  C   UNL     1      42.519   5.766  11.370  0.00  0.00    +0.000 A 
ATOM     30  N   UNL     1      42.682   4.571  12.022  0.00  0.00    +0.000 N 
ATOM     31  C   UNL     1      43.832   4.255  12.711  0.00  0.00    +0.000 A 
ATOM     32  O   UNL     1      43.984   3.144  13.216  0.00  0.00    +0.000 OA
ATOM     33  C   UNL     1      44.825   5.306  12.747  0.00  0.00    +0.000 A 
ATOM     34  H   UNL     1      41.972   3.854  11.980  0.00  0.00    +0.000 HD
ENDBRANCH  21  24
ENDBRANCH  19  20
ENDBRANCH   4  19
TORSDOF 8
ENDMDL
MODEL 7
REMARK VINA RESULT:    -7.052      3.515      8.840
REMARK INTER + INTRA:         -11.443
REMARK INTER:                  -9.004
REMARK INTRA:                  -2.440
REMARK UNBOUND:                -1.094
REMARK  Name = 
REMARK  8 active torsions:
REMARK  status: ('A' for Active; 'I' for Inactive)
REMARK    1  A    between atoms: C_2  and  C_3
REMARK    2  A    between atoms: C_3  and  N_4
REMARK    3  A    between atoms: C_3  and  C_12
REMARK    4  A    between atoms: N_4  and  C_5
REMARK    5  A    between atoms: C_5  and  C_6
REMARK    6  A    between atoms: C_15  and  C_16
REMARK    7  A    between atoms: C_16  and  N_17
REMARK    8  A    between atoms: C_18  and  C_20
REMARK                            x       y       z     vdW  Elec       q    Type
REMARK                         _______ _______ _______ _____ _____    ______ ____
ROOT
ATOM      1  C   UNL     1      49.655   7.333  18.715  0.00  0.00    +0.000 A 
ATOM      2  C   UNL     1      50.390   6.886  17.606  0.00  0.00    +0.000 A 
ATOM      3  C   UNL     1      49.998   7.226  16.314  0.00  0.00    +0.000 A 
ATOM      4  C   UNL     1      48.898   8.066  16.097  0.00  0.00    +0.000 A 
ATOM      5  C   UNL     1      48.180   8.540  17.202  0.00  0.00    +0.000 A 
ATOM      6  C   UNL     1      48.550   8.174  18.494  0.00  0.00    +0.000 A 
ENDROOT
BRANCH   1   7
ATOM      7  C   UNL     1      49.991   6.799  20.113  0.00  0.00    +0.000 C 
BRANCH   7   9
ATOM      8  N   UNL     1      47.969   7.608  21.841  0.00  0.00    +0.000 NA
ATOM      9  C   UNL     1      48.886   7.242  21.057  0.00  0.00    +0.000 C 
ENDBRANCH   7   9
BRANCH   7  10
ATOM     10  N   UNL     1      50.134   5.332  20.104  0.00  0.00    +0.000 NA
ATOM     11  H   UNL     1      50.666   5.047  20.926  0.00  0.00    +0.000 HD
BRANCH  10  12
ATOM     12  C   UNL     1      48.847   4.636  20.135  0.00  0.00    +0.000 C 
BRANCH  12  13
ATOM     13  C   UNL     1      48.496   4.087  18.780  0.00  0.00    +0.000 A 
ATOM     14  C   UNL     1      47.407   4.598  18.061  0.00  0.00    +0.000 A 
ATOM     15  C   UNL     1      47.119   4.116  16.784  0.00  0.00    +0.000 A 
ATOM     16  C   UNL     1      47.912   3.116  16.225  0.00  0.00    +0.000 A 
ATOM     17  C   UNL     1      48.985   2.588  16.942  0.00  0.00    +0.000 A 
ATOM     18  C   UNL     1      49.276   3.073  18.213  0.00  0.00    +0.000 A 
ENDBRANCH  12  13
ENDBRANCH  10  12
ENDBRANCH   7  10
ENDBRANCH   1   7
BRANCH   4  19
ATOM     19  C   UNL     1      48.475   8.442  14.699  0.00  0.00    +0.000 C 
BRANCH  19  20
ATOM     20  N   UNL     1      47.494   7.534  14.168  0.00  0.00    +0.000 N 
ATOM     21  C   UNL     1      47.801   6.521  13.299  0.00  0.00    +0.000 C 
ATOM     22  O   UNL     1      48.943   6.304  12.906  0.00  0.00    +0.000 OA
ATOM     23  H   UNL     1      46.526   7.824  14.252  0.00  0.00    +0.000 HD
BRANCH  21  24
ATOM     24  C   UNL     1      46.676   5.659  12.915  0.00  0.00    +0.000 A 
ATOM     25  C   UNL     1      46.759   4.288  13.111  0.00  0.00    +0.000 A 
ATOM     26  S   UNL     1      45.337   3.452  12.674  0.00  0.00    +0.000 S 
ATOM     27  C   UNL     1      44.587   4.888  12.153  0.00  0.00    +0.000 A 
ATOM     28  N   UNL     1      43.331   4.873  11.635  0.00  0.00    +0.000 NA
ATOM     29  C   UNL     1      42.893   6.029  11.254  0.00  0.00    +0.000 A 
ATOM     30  N   UNL     1      43.591   7.204  11.360  0.00  0.00    +0.000 N 
ATOM     31  C   UNL     1      44.845   7.270  11.926  0.00  0.00    +0.000 A 
ATOM     32  O   UNL     1      45.413   8.350  12.085  0.00  0.00    +0.000 OA
ATOM     33  C   UNL     1      45.393   5.997  12.338  0.00  0.00    +0.000 A 
ATOM     34  H   UNL     1      43.184   8.080  11.065  0.00  0.00    +0.000 HD
ENDBRANCH  21  24
ENDBRANCH  19  20
ENDBRANCH   4  19
TORSDOF 8
ENDMDL
MODEL 8
REMARK VINA RESULT:    -6.838      3.585      8.724
REMARK INTER + INTRA:         -11.130
REMARK INTER:                  -9.476
REMARK INTRA:                  -1.654
REMARK UNBOUND:                -1.094
REMARK  Name = 
REMARK  8 active torsions:
REMARK  status: ('A' for Active; 'I' for Inactive)
REMARK    1  A    between atoms: C_2  and  C_3
REMARK    2  A    between atoms: C_3  and  N_4
REMARK    3  A    between atoms: C_3  and  C_12
REMARK    4  A    between atoms: N_4  and  C_5
REMARK    5  A    between atoms: C_5  and  C_6
REMARK    6  A    between atoms: C_15  and  C_16
REMARK    7  A    between atoms: C_16  and  N_17
REMARK    8  A    between atoms: C_18  and  C_20
REMARK                            x       y       z     vdW  Elec       q    Type
REMARK                         _______ _______ _______ _____ _____    ______ ____
ROOT
ATOM      1  C   UNL     1      49.085   7.717  16.198  0.00  0.00    +0.000 A 
ATOM      2  C   UNL     1      49.769   6.949  15.244  0.00  0.00    +0.000 A 
ATOM      3  C   UNL     1      49.497   7.100  13.887  0.00  0.00    +0.000 A 
ATOM      4  C   UNL     1      48.577   8.060  13.444  0.00  0.00    +0.000 A 
ATOM      5  C   UNL     1      47.915   8.851  14.390  0.00  0.00    +0.000 A 
ATOM      6  C   UNL     1      48.161   8.678  15.750  0.00  0.00    +0.000 A 
ENDROOT
BRANCH   1   7
ATOM      7  C   UNL     1      49.262   7.409  17.690  0.00  0.00    +0.000 C 
BRANCH   7   9
ATOM      8  N   UNL     1      50.147   9.729  18.940  0.00  0.00    +0.000 NA
ATOM      9  C   UNL     1      49.746   8.677  18.373  0.00  0.00    +0.000 C 
ENDBRANCH   7   9
BRANCH   7  10
ATOM     10  N   UNL     1      48.005   6.923  18.287  0.00  0.00    +0.000 NA
ATOM     11  H   UNL     1      47.348   6.701  17.539  0.00  0.00    +0.000 HD
BRANCH  10  12
ATOM     12  C   UNL     1      48.191   5.718  19.098  0.00  0.00    +0.000 C 
BRANCH  12  13
ATOM     13  C   UNL     1      48.508   4.528  18.234  0.00  0.00    +0.000 A 
ATOM     14  C   UNL     1      49.771   3.924  18.284  0.00  0.00    +0.000 A 
ATOM     15  C   UNL     1      50.038   2.791  17.515  0.00  0.00    +0.000 A 
ATOM     16  C   UNL     1      49.049   2.264  16.688  0.00  0.00    +0.000 A 
ATOM     17  C   UNL     1      47.796   2.872  16.616  0.00  0.00    +0.000 A 
ATOM     18  C   UNL     1      47.526   3.998  17.388  0.00  0.00    +0.000 A 
ENDBRANCH  12  13
ENDBRANCH  10  12
ENDBRANCH   7  10
ENDBRANCH   1   7
BRANCH   4  19
ATOM     19  C   UNL     1      48.286   8.232  11.974  0.00  0.00    +0.000 C 
BRANCH  19  20
ATOM     20  N   UNL     1      47.542   7.124  11.437  0.00  0.00    +0.000 N 
ATOM     21  C   UNL     1      46.174   7.056  11.457  0.00  0.00    +0.000 C 
ATOM     22  O   UNL     1      45.471   7.941  11.935  0.00  0.00    +0.000 OA
ATOM     23  H   UNL     1      48.067   6.272  11.273  0.00  0.00    +0.000 HD
BRANCH  21  24
ATOM     24  C   UNL     1      45.593   5.876  10.806  0.00  0.00    +0.000 A 
ATOM     25  C   UNL     1      45.765   5.685   9.443  0.00  0.00    +0.000 A 
ATOM     26  S   UNL     1      45.084   4.230   8.869  0.00  0.00    +0.000 S 
ATOM     27  C   UNL     1      44.485   3.837  10.413  0.00  0.00    +0.000 A 
ATOM     28  N   UNL     1      43.771   2.699  10.617  0.00  0.00    +0.000 NA
ATOM     29  C   UNL     1      43.354   2.537  11.831  0.00  0.00    +0.000 A 
ATOM     30  N   UNL     1      43.600   3.403  12.864  0.00  0.00    +0.000 N 
ATOM     31  C   UNL     1      44.362   4.540  12.711  0.00  0.00    +0.000 A 
ATOM     32  O   UNL     1      44.637   5.254  13.674  0.00  0.00    +0.000 OA
ATOM     33  C   UNL     1      44.825   4.783  11.363  0.00  0.00    +0.000 A 
ATOM     34  H   UNL     1      43.265   3.209  13.797  0.00  0.00    +0.000 HD
ENDBRANCH  21  24
ENDBRANCH  19  20
ENDBRANCH   4  19
TORSDOF 8
ENDMDL
MODEL 9
REMARK VINA RESULT:    -6.574      4.061      5.345
REMARK INTER + INTRA:         -10.743
REMARK INTER:                  -9.695
REMARK INTRA:                  -1.047
REMARK UNBOUND:                -1.094
REMARK  Name = 
REMARK  8 active torsions:
REMARK  status: ('A' for Active; 'I' for Inactive)
REMARK    1  A    between atoms: C_2  and  C_3
REMARK    2  A    between atoms: C_3  and  N_4
REMARK    3  A    between atoms: C_3  and  C_12
REMARK    4  A    between atoms: N_4  and  C_5
REMARK    5  A    between atoms: C_5  and  C_6
REMARK    6  A    between atoms: C_15  and  C_16
REMARK    7  A    between atoms: C_16  and  N_17
REMARK    8  A    between atoms: C_18  and  C_20
REMARK                            x       y       z     vdW  Elec       q    Type
REMARK                         _______ _______ _______ _____ _____    ______ ____
ROOT
ATOM      1  C   UNL     1      45.622   5.248  11.511  0.00  0.00    +0.000 A 
ATOM      2  C   UNL     1      46.249   4.923  12.724  0.00  0.00    +0.000 A 
ATOM      3  C   UNL     1      46.821   5.918  13.513  0.00  0.00    +0.000 A 
ATOM      4  C   UNL     1      46.733   7.266  13.140  0.00  0.00    +0.000 A 
ATOM      5  C   UNL     1      46.082   7.598  11.946  0.00  0.00    +0.000 A 
ATOM      6  C   UNL     1      45.539   6.602  11.139  0.00  0.00    +0.000 A 
ENDROOT
BRANCH   1   7
ATOM      7  C   UNL     1      45.164   4.127  10.571  0.00  0.00    +0.000 C 
BRANCH   7   9
ATOM      8  N   UNL     1      43.062   2.788  11.803  0.00  0.00    +0.000 NA
ATOM      9  C   UNL     1      44.015   3.395  11.244  0.00  0.00    +0.000 C 
ENDBRANCH   7   9
BRANCH   7  10
ATOM     10  N   UNL     1      44.762   4.663   9.257  0.00  0.00    +0.000 NA
ATOM     11  H   UNL     1      45.547   5.178   8.857  0.00  0.00    +0.000 HD
BRANCH  10  12
ATOM     12  C   UNL     1      44.380   3.615   8.309  0.00  0.00    +0.000 C 
BRANCH  12  13
ATOM     13  C   UNL     1      45.592   2.900   7.776  0.00  0.00    +0.000 A 
ATOM     14  C   UNL     1      45.898   1.599   8.197  0.00  0.00    +0.000 A 
ATOM     15  C   UNL     1      46.996   0.927   7.659  0.00  0.00    +0.000 A 
ATOM     16  C   UNL     1      47.795   1.555   6.707  0.00  0.00    +0.000 A 
ATOM     17  C   UNL     1      47.510   2.857   6.298  0.00  0.00    +0.000 A 
ATOM     18  C   UNL     1      46.411   3.525   6.829  0.00  0.00    +0.000 A 
ENDBRANCH  12  13
ENDBRANCH  10  12
ENDBRANCH   7  10
ENDBRANCH   1   7
BRANCH   4  19
ATOM     19  C   UNL     1      47.345   8.347  13.996  0.00  0.00    +0.000 C 
BRANCH  19  20
ATOM     20  N   UNL     1      48.585   8.832  13.451  0.00  0.00    +0.000 N 
ATOM     21  C   UNL     1      49.799   8.253  13.712  0.00  0.00    +0.000 C 
ATOM     22  O   UNL     1      49.924   7.267  14.433  0.00  0.00    +0.000 OA
ATOM     23  H   UNL     1      48.568   9.772  13.073  0.00  0.00    +0.000 HD
BRANCH  21  24
ATOM     24  C   UNL     1      50.944   8.850  13.016  0.00  0.00    +0.000 A 
ATOM     25  C   UNL     1      51.322   8.369  11.770  0.00  0.00    +0.000 A 
ATOM     26  S   UNL     1      52.626   9.225  11.079  0.00  0.00    +0.000 S 
ATOM     27  C   UNL     1      52.766  10.228  12.446  0.00  0.00    +0.000 A 
ATOM     28  N   UNL     1      53.723  11.190  12.513  0.00  0.00    +0.000 NA
ATOM     29  C   UNL     1      53.734  11.861  13.619  0.00  0.00    +0.000 A 
ATOM     30  N   UNL     1      52.862  11.668  14.660  0.00  0.00    +0.000 N 
ATOM     31  C   UNL     1      51.847  10.739  14.611  0.00  0.00    +0.000 A 
ATOM     32  O   UNL     1      51.028  10.645  15.525  0.00  0.00    +0.000 OA
ATOM     33  C   UNL     1      51.813   9.939  13.407  0.00  0.00    +0.000 A 
ATOM     34  H   UNL     1      52.908  12.241  15.490  0.00  0.00    +0.000 HD
ENDBRANCH  21  24
ENDBRANCH  19  20
ENDBRANCH   4  19
TORSDOF 8
ENDMDL
