MODEL 1
REMARK VINA RESULT:    -7.145      0.000      0.000
REMARK INTER + INTRA:         -12.210
REMARK INTER:                 -10.905
REMARK INTRA:                  -1.305
REMARK UNBOUND:                -1.305
REMARK  Name = 
REMARK  9 active torsions:
REMARK  status: ('A' for Active; 'I' for Inactive)
REMARK    1  A    between atoms: C_2  and  C_3
REMARK    2  A    between atoms: C_3  and  N_4
REMARK    3  A    between atoms: C_3  and  C_21
REMARK    4  A    between atoms: N_4  and  C_5
REMARK    5  A    between atoms: C_5  and  C_6
REMARK    6  A    between atoms: C_9  and  C_10
REMARK    7  A    between atoms: C_10  and  S_11
REMARK    8  A    between atoms: S_11  and  C_12
REMARK    9  A    between atoms: C_12  and  C_13
REMARK                            x       y       z     vdW  Elec       q    Type
REMARK                         _______ _______ _______ _____ _____    ______ ____
ROOT
ATOM      1  N   UNL     1      49.504   6.459  14.698  0.00  0.00    +0.000 NA
ATOM      2  H   UNL     1      50.269   6.193  14.069  0.00  0.00    +0.000 HD
ENDROOT
BRANCH   1   3
ATOM      3  C   UNL     1      50.068   7.180  15.850  0.00  0.00    +0.000 C 
BRANCH   3   4
ATOM      4  C   UNL     1      49.126   7.127  17.030  0.00  0.00    +0.000 A 
ATOM      5  C   UNL     1      48.441   8.223  17.531  0.00  0.00    +0.000 A 
ATOM      6  S   UNL     1      47.986   8.002  19.171  0.00  0.00    +0.000 S 
ATOM      7  C   UNL     1      48.494   6.368  19.151  0.00  0.00    +0.000 A 
ATOM      8  N   UNL     1      48.498   5.591  20.261  0.00  0.00    +0.000 NA
ATOM      9  C   UNL     1      48.781   4.356  20.030  0.00  0.00    +0.000 A 
ATOM     10  N   UNL     1      49.010   3.814  18.786  0.00  0.00    +0.000 N 
ATOM     11  C   UNL     1      49.072   4.579  17.638  0.00  0.00    +0.000 A 
ATOM     12  O   UNL     1      49.240   4.094  16.530  0.00  0.00    +0.000 OA
ATOM     13  C   UNL     1      48.861   5.990  17.873  0.00  0.00    +0.000 A 
ATOM     14  H   UNL     1      49.126   2.818  18.668  0.00  0.00    +0.000 HD
ENDBRANCH   3   4
BRANCH   3  16
ATOM     15  N   UNL     1      52.475   6.367  16.609  0.00  0.00    +0.000 NA
ATOM     16  C   UNL     1      51.425   6.727  16.281  0.00  0.00    +0.000 C 
ENDBRANCH   3  16
ENDBRANCH   1   3
BRANCH   1  17
ATOM     17  C   UNL     1      48.564   7.329  13.985  0.00  0.00    +0.000 C 
BRANCH  17  18
ATOM     18  C   UNL     1      47.334   6.611  13.495  0.00  0.00    +0.000 A 
ATOM     19  C   UNL     1      47.179   5.241  13.739  0.00  0.00    +0.000 A 
ATOM     20  C   UNL     1      45.975   4.598  13.450  0.00  0.00    +0.000 A 
ATOM     21  C   UNL     1      44.897   5.311  12.909  0.00  0.00    +0.000 A 
ATOM     22  C   UNL     1      45.088   6.659  12.575  0.00  0.00    +0.000 A 
ATOM     23  C   UNL     1      46.293   7.306  12.869  0.00  0.00    +0.000 A 
BRANCH  21  24
ATOM     24  C   UNL     1      43.556   4.652  12.696  0.00  0.00    +0.000 C 
BRANCH  24  25
ATOM     25  S   UNL     1      43.564   3.342  11.422  0.00  0.00    +0.000 S 
BRANCH  25  26
ATOM     26  C   UNL     1      44.047   4.305   9.943  0.00  0.00    +0.000 C 
BRANCH  26  27
ATOM     27  C   UNL     1      45.024   3.597   9.034  0.00  0.00    +0.000 A 
ATOM     28  N   UNL     1      45.675   4.329   8.106  0.00  0.00    +0.000 NA
ATOM     29  C   UNL     1      46.517   3.662   7.295  0.00  0.00    +0.000 A 
ATOM     30  C   UNL     1      46.731   2.306   7.369  0.00  0.00    +0.000 A 
ATOM     31  C   UNL     1      46.026   1.650   8.347  0.00  0.00    +0.000 A 
ATOM     32  N   UNL     1      45.176   2.264   9.188  0.00  0.00    +0.000 NA
ENDBRANCH  26  27
ENDBRANCH  25  26
ENDBRANCH  24  25
ENDBRANCH  21  24
ENDBRANCH  17  18
ENDBRANCH   1  17
TORSDOF 9
ENDMDL
MODEL 2
REMARK VINA RESULT:    -7.068      0.850      1.216
REMARK INTER + INTRA:         -12.091
REMARK INTER:                 -10.852
REMARK INTRA:                  -1.239
REMARK UNBOUND:                -1.305
REMARK  Name = 
REMARK  9 active torsions:
REMARK  status: ('A' for Active; 'I' for Inactive)
REMARK    1  A    between atoms: C_2  and  C_3
REMARK    2  A    between atoms: C_3  and  N_4
REMARK    3  A    between atoms: C_3  and  C_21
REMARK    4  A    between atoms: N_4  and  C_5
REMARK    5  A    between atoms: C_5  and  C_6
REMARK    6  A    between atoms: C_9  and  C_10
REMARK    7  A    between atoms: C_10  and  S_11
REMARK    8  A    between atoms: S_11  and  C_12
REMARK    9  A    between atoms: C_12  and  C_13
REMARK                            x       y       z     vdW  Elec       q    Type
REMARK                         _______ _______ _______ _____ _____    ______ ____
ROOT
ATOM      1  N   UNL     1      49.622   6.489  14.776  0.00  0.00    +0.000 NA
ATOM      2  H   UNL     1      50.418   6.273  14.167  0.00  0.00    +0.000 HD
ENDROOT
BRANCH   1   3
ATOM      3  C   UNL     1      50.096   7.311  15.901  0.00  0.00    +0.000 C 
BRANCH   3   4
ATOM      4  C   UNL     1      49.139   7.229  17.067  0.00  0.00    +0.000 A 
ATOM      5  C   UNL     1      48.398   8.298  17.545  0.00  0.00    +0.000 A 
ATOM      6  S   UNL     1      47.928   8.075  19.180  0.00  0.00    +0.000 S 
ATOM      7  C   UNL     1      48.508   6.466  19.187  0.00  0.00    +0.000 A 
ATOM      8  N   UNL     1      48.529   5.701  20.306  0.00  0.00    +0.000 NA
ATOM      9  C   UNL     1      48.871   4.478  20.093  0.00  0.00    +0.000 A 
ATOM     10  N   UNL     1      49.143   3.933  18.859  0.00  0.00    +0.000 N 
ATOM     11  C   UNL     1      49.189   4.687  17.704  0.00  0.00    +0.000 A 
ATOM     12  O   UNL     1      49.395   4.199  16.604  0.00  0.00    +0.000 OA
ATOM     13  C   UNL     1      48.911   6.090  17.919  0.00  0.00    +0.000 A 
ATOM     14  H   UNL     1      49.305   2.942  18.755  0.00  0.00    +0.000 HD
ENDBRANCH   3   4
BRANCH   3  16
ATOM     15  N   UNL     1      52.551   6.771  16.747  0.00  0.00    +0.000 NA
ATOM     16  C   UNL     1      51.479   7.002  16.375  0.00  0.00    +0.000 C 
ENDBRANCH   3  16
ENDBRANCH   1   3
BRANCH   1  17
ATOM     17  C   UNL     1      48.612   7.232  14.017  0.00  0.00    +0.000 C 
BRANCH  17  18
ATOM     18  C   UNL     1      47.589   6.347  13.354  0.00  0.00    +0.000 A 
ATOM     19  C   UNL     1      47.097   5.221  14.025  0.00  0.00    +0.000 A 
ATOM     20  C   UNL     1      46.027   4.493  13.504  0.00  0.00    +0.000 A 
ATOM     21  C   UNL     1      45.423   4.874  12.298  0.00  0.00    +0.000 A 
ATOM     22  C   UNL     1      45.981   5.942  11.581  0.00  0.00    +0.000 A 
ATOM     23  C   UNL     1      47.051   6.676  12.105  0.00  0.00    +0.000 A 
BRANCH  21  24
ATOM     24  C   UNL     1      44.197   4.162  11.782  0.00  0.00    +0.000 C 
BRANCH  24  25
ATOM     25  S   UNL     1      44.040   4.173   9.961  0.00  0.00    +0.000 S 
BRANCH  25  26
ATOM     26  C   UNL     1      44.505   2.447   9.567  0.00  0.00    +0.000 C 
BRANCH  26  27
ATOM     27  C   UNL     1      45.554   2.319   8.489  0.00  0.00    +0.000 A 
ATOM     28  N   UNL     1      46.166   1.126   8.335  0.00  0.00    +0.000 NA
ATOM     29  C   UNL     1      47.115   1.055   7.383  0.00  0.00    +0.000 A 
ATOM     30  C   UNL     1      47.477   2.115   6.587  0.00  0.00    +0.000 A 
ATOM     31  C   UNL     1      46.795   3.284   6.816  0.00  0.00    +0.000 A 
ATOM     32  N   UNL     1      45.836   3.413   7.749  0.00  0.00    +0.000 NA
ENDBRANCH  26  27
ENDBRANCH  25  26
ENDBRANCH  24  25
ENDBRANCH  21  24
ENDBRANCH  17  18
ENDBRANCH   1  17
TORSDOF 9
ENDMDL
MODEL 3
REMARK VINA RESULT:    -7.058      1.929      2.506
REMARK INTER + INTRA:         -12.077
REMARK INTER:                 -11.165
REMARK INTRA:                  -0.912
REMARK UNBOUND:                -1.305
REMARK  Name = 
REMARK  9 active torsions:
REMARK  status: ('A' for Active; 'I' for Inactive)
REMARK    1  A    between atoms: C_2  and  C_3
REMARK    2  A    between atoms: C_3  and  N_4
REMARK    3  A    between atoms: C_3  and  C_21
REMARK    4  A    between atoms: N_4  and  C_5
REMARK    5  A    between atoms: C_5  and  C_6
REMARK    6  A    between atoms: C_9  and  C_10
REMARK    7  A    between atoms: C_10  and  S_11
REMARK    8  A    between atoms: S_11  and  C_12
REMARK    9  A    between atoms: C_12  and  C_13
REMARK                            x       y       z     vdW  Elec       q    Type
REMARK                         _______ _______ _______ _____ _____    ______ ____
ROOT
ATOM      1  N   UNL     1      48.945   6.096  15.072  0.00  0.00    +0.000 NA
ATOM      2  H   UNL     1      49.951   6.223  14.920  0.00  0.00    +0.000 HD
ENDROOT
BRANCH   1   3
ATOM      3  C   UNL     1      48.644   6.356  16.488  0.00  0.00    +0.000 C 
BRANCH   3   4
ATOM      4  C   UNL     1      49.506   5.500  17.387  0.00  0.00    +0.000 A 
ATOM      5  C   UNL     1      50.387   6.002  18.332  0.00  0.00    +0.000 A 
ATOM      6  S   UNL     1      51.625   4.879  18.717  0.00  0.00    +0.000 S 
ATOM      7  C   UNL     1      50.869   3.645  17.806  0.00  0.00    +0.000 A 
ATOM      8  N   UNL     1      51.438   2.432  17.604  0.00  0.00    +0.000 NA
ATOM      9  C   UNL     1      50.667   1.587  17.012  0.00  0.00    +0.000 A 
ATOM     10  N   UNL     1      49.361   1.825  16.648  0.00  0.00    +0.000 N 
ATOM     11  C   UNL     1      48.762   3.061  16.783  0.00  0.00    +0.000 A 
ATOM     12  O   UNL     1      47.593   3.263  16.495  0.00  0.00    +0.000 OA
ATOM     13  C   UNL     1      49.633   4.066  17.352  0.00  0.00    +0.000 A 
ATOM     14  H   UNL     1      48.784   1.084  16.279  0.00  0.00    +0.000 HD
ENDBRANCH   3   4
BRANCH   3  16
ATOM     15  N   UNL     1      48.856   8.890  17.242  0.00  0.00    +0.000 NA
ATOM     16  C   UNL     1      48.759   7.785  16.910  0.00  0.00    +0.000 C 
ENDBRANCH   3  16
ENDBRANCH   1   3
BRANCH   1  17
ATOM     17  C   UNL     1      48.201   7.038  14.231  0.00  0.00    +0.000 C 
BRANCH  17  18
ATOM     18  C   UNL     1      47.164   6.376  13.361  0.00  0.00    +0.000 A 
ATOM     19  C   UNL     1      46.698   5.095  13.678  0.00  0.00    +0.000 A 
ATOM     20  C   UNL     1      45.617   4.540  12.992  0.00  0.00    +0.000 A 
ATOM     21  C   UNL     1      44.978   5.255  11.970  0.00  0.00    +0.000 A 
ATOM     22  C   UNL     1      45.509   6.495  11.589  0.00  0.00    +0.000 A 
ATOM     23  C   UNL     1      46.589   7.054  12.280  0.00  0.00    +0.000 A 
BRANCH  21  24
ATOM     24  C   UNL     1      43.741   4.711  11.297  0.00  0.00    +0.000 C 
BRANCH  24  25
ATOM     25  S   UNL     1      44.031   3.200  10.312  0.00  0.00    +0.000 S 
BRANCH  25  26
ATOM     26  C   UNL     1      44.560   3.928   8.717  0.00  0.00    +0.000 C 
BRANCH  26  27
ATOM     27  C   UNL     1      45.620   3.132   7.994  0.00  0.00    +0.000 A 
ATOM     28  N   UNL     1      45.842   1.861   8.389  0.00  0.00    +0.000 NA
ATOM     29  C   UNL     1      46.812   1.190   7.741  0.00  0.00    +0.000 A 
ATOM     30  C   UNL     1      47.565   1.730   6.726  0.00  0.00    +0.000 A 
ATOM     31  C   UNL     1      47.261   3.026   6.393  0.00  0.00    +0.000 A 
ATOM     32  N   UNL     1      46.301   3.744   7.001  0.00  0.00    +0.000 NA
ENDBRANCH  26  27
ENDBRANCH  25  26
ENDBRANCH  24  25
ENDBRANCH  21  24
ENDBRANCH  17  18
ENDBRANCH   1  17
TORSDOF 9
ENDMDL
MODEL 4
REMARK VINA RESULT:    -7.004      2.047      2.853
REMARK INTER + INTRA:         -11.994
REMARK INTER:                 -11.650
REMARK INTRA:                  -0.344
REMARK UNBOUND:                -1.305
REMARK  Name = 
REMARK  9 active torsions:
REMARK  status: ('A' for Active; 'I' for Inactive)
REMARK    1  A    between atoms: C_2  and  C_3
REMARK    2  A    between atoms: C_3  and  N_4
REMARK    3  A    between atoms: C_3  and  C_21
REMARK    4  A    between atoms: N_4  and  C_5
REMARK    5  A    between atoms: C_5  and  C_6
REMARK    6  A    between atoms: C_9  and  C_10
REMARK    7  A    between atoms: C_10  and  S_11
REMARK    8  A    between atoms: S_11  and  C_12
REMARK    9  A    between atoms: C_12  and  C_13
REMARK                            x       y       z     vdW  Elec       q    Type
REMARK                         _______ _______ _______ _____ _____    ______ ____
ROOT
ATOM      1  N   UNL     1      48.194   6.073  16.307  0.00  0.00    +0.000 NA
ATOM      2  H   UNL     1      47.174   6.169  16.341  0.00  0.00    +0.000 HD
ENDROOT
BRANCH   1   3
ATOM      3  C   UNL     1      48.550   4.685  16.643  0.00  0.00    +0.000 C 
BRANCH   3   4
ATOM      4  C   UNL     1      49.597   4.648  17.731  0.00  0.00    +0.000 A 
ATOM      5  C   UNL     1      49.754   5.630  18.697  0.00  0.00    +0.000 A 
ATOM      6  S   UNL     1      51.339   5.638  19.354  0.00  0.00    +0.000 S 
ATOM      7  C   UNL     1      51.751   4.198  18.527  0.00  0.00    +0.000 A 
ATOM      8  N   UNL     1      53.002   3.679  18.543  0.00  0.00    +0.000 NA
ATOM      9  C   UNL     1      53.094   2.524  17.981  0.00  0.00    +0.000 A 
ATOM     10  N   UNL     1      52.040   1.815  17.449  0.00  0.00    +0.000 N 
ATOM     11  C   UNL     1      50.763   2.330  17.361  0.00  0.00    +0.000 A 
ATOM     12  O   UNL     1      49.821   1.689  16.923  0.00  0.00    +0.000 OA
ATOM     13  C   UNL     1      50.643   3.671  17.891  0.00  0.00    +0.000 A 
ATOM     14  H   UNL     1      52.167   0.871  17.116  0.00  0.00    +0.000 HD
ENDBRANCH   3   4
BRANCH   3  16
ATOM     15  N   UNL     1      46.511   3.133  17.326  0.00  0.00    +0.000 NA
ATOM     16  C   UNL     1      47.401   3.812  17.034  0.00  0.00    +0.000 C 
ENDBRANCH   3  16
ENDBRANCH   1   3
BRANCH   1  17
ATOM     17  C   UNL     1      48.671   6.389  14.957  0.00  0.00    +0.000 C 
BRANCH  17  18
ATOM     18  C   UNL     1      47.649   6.126  13.882  0.00  0.00    +0.000 A 
ATOM     19  C   UNL     1      46.909   4.937  13.894  0.00  0.00    +0.000 A 
ATOM     20  C   UNL     1      45.841   4.754  13.015  0.00  0.00    +0.000 A 
ATOM     21  C   UNL     1      45.489   5.756  12.102  0.00  0.00    +0.000 A 
ATOM     22  C   UNL     1      46.292   6.902  12.025  0.00  0.00    +0.000 A 
ATOM     23  C   UNL     1      47.359   7.089  12.909  0.00  0.00    +0.000 A 
BRANCH  21  24
ATOM     24  C   UNL     1      44.269   5.615  11.223  0.00  0.00    +0.000 C 
BRANCH  24  25
ATOM     25  S   UNL     1      44.045   3.942  10.524  0.00  0.00    +0.000 S 
BRANCH  25  26
ATOM     26  C   UNL     1      44.418   4.255   8.759  0.00  0.00    +0.000 C 
BRANCH  26  27
ATOM     27  C   UNL     1      45.480   3.351   8.181  0.00  0.00    +0.000 A 
ATOM     28  N   UNL     1      46.332   3.870   7.271  0.00  0.00    +0.000 NA
ATOM     29  C   UNL     1      47.248   3.029   6.756  0.00  0.00    +0.000 A 
ATOM     30  C   UNL     1      47.347   1.704   7.105  0.00  0.00    +0.000 A 
ATOM     31  C   UNL     1      46.440   1.270   8.040  0.00  0.00    +0.000 A 
ATOM     32  N   UNL     1      45.507   2.065   8.592  0.00  0.00    +0.000 NA
ENDBRANCH  26  27
ENDBRANCH  25  26
ENDBRANCH  24  25
ENDBRANCH  21  24
ENDBRANCH  17  18
ENDBRANCH   1  17
TORSDOF 9
ENDMDL
MODEL 5
REMARK VINA RESULT:    -6.975      2.019      2.599
REMARK INTER + INTRA:         -11.949
REMARK INTER:                 -10.886
REMARK INTRA:                  -1.063
REMARK UNBOUND:                -1.305
REMARK  Name = 
REMARK  9 active torsions:
REMARK  status: ('A' for Active; 'I' for Inactive)
REMARK    1  A    between atoms: C_2  and  C_3
REMARK    2  A    between atoms: C_3  and  N_4
REMARK    3  A    between atoms: C_3  and  C_21
REMARK    4  A    between atoms: N_4  and  C_5
REMARK    5  A    between atoms: C_5  and  C_6
REMARK    6  A    between atoms: C_9  and  C_10
REMARK    7  A    between atoms: C_10  and  S_11
REMARK    8  A    between atoms: S_11  and  C_12
REMARK    9  A    between atoms: C_12  and  C_13
REMARK                            x       y       z     vdW  Elec       q    Type
REMARK                         _______ _______ _______ _____ _____    ______ ____
ROOT
ATOM      1  N   UNL     1      48.156   7.077  16.481  0.00  0.00    +0.000 NA
ATOM      2  H   UNL     1      47.565   6.245  16.580  0.00  0.00    +0.000 HD
ENDROOT
BRANCH   1   3
ATOM      3  C   UNL     1      49.026   7.183  17.663  0.00  0.00    +0.000 C 
BRANCH   3   4
ATOM      4  C   UNL     1      49.752   5.882  17.914  0.00  0.00    +0.000 A 
ATOM      5  C   UNL     1      51.075   5.793  18.318  0.00  0.00    +0.000 A 
ATOM      6  S   UNL     1      51.769   4.276  17.914  0.00  0.00    +0.000 S 
ATOM      7  C   UNL     1      50.258   3.654  17.409  0.00  0.00    +0.000 A 
ATOM      8  N   UNL     1      50.125   2.433  16.836  0.00  0.00    +0.000 NA
ATOM      9  C   UNL     1      48.902   2.078  16.647  0.00  0.00    +0.000 A 
ATOM     10  N   UNL     1      47.797   2.807  17.024  0.00  0.00    +0.000 N 
ATOM     11  C   UNL     1      47.886   4.077  17.557  0.00  0.00    +0.000 A 
ATOM     12  O   UNL     1      46.909   4.709  17.925  0.00  0.00    +0.000 OA
ATOM     13  C   UNL     1      49.246   4.553  17.690  0.00  0.00    +0.000 A 
ATOM     14  H   UNL     1      46.868   2.422  16.937  0.00  0.00    +0.000 HD
ENDBRANCH   3   4
BRANCH   3  16
ATOM     15  N   UNL     1      50.789   9.163  17.600  0.00  0.00    +0.000 NA
ATOM     16  C   UNL     1      50.017   8.301  17.623  0.00  0.00    +0.000 C 
ENDBRANCH   3  16
ENDBRANCH   1   3
BRANCH   1  17
ATOM     17  C   UNL     1      48.978   6.952  15.275  0.00  0.00    +0.000 C 
BRANCH  17  18
ATOM     18  C   UNL     1      48.195   6.549  14.053  0.00  0.00    +0.000 A 
ATOM     19  C   UNL     1      47.314   5.463  14.112  0.00  0.00    +0.000 A 
ATOM     20  C   UNL     1      46.454   5.185  13.049  0.00  0.00    +0.000 A 
ATOM     21  C   UNL     1      46.456   5.987  11.900  0.00  0.00    +0.000 A 
ATOM     22  C   UNL     1      47.406   7.013  11.804  0.00  0.00    +0.000 A 
ATOM     23  C   UNL     1      48.266   7.296  12.871  0.00  0.00    +0.000 A 
BRANCH  21  24
ATOM     24  C   UNL     1      45.455   5.763  10.793  0.00  0.00    +0.000 C 
BRANCH  24  25
ATOM     25  S   UNL     1      44.695   4.102  10.800  0.00  0.00    +0.000 S 
BRANCH  25  26
ATOM     26  C   UNL     1      44.364   3.869   9.015  0.00  0.00    +0.000 C 
BRANCH  26  27
ATOM     27  C   UNL     1      45.463   3.150   8.269  0.00  0.00    +0.000 A 
ATOM     28  N   UNL     1      45.641   1.834   8.512  0.00  0.00    +0.000 NA
ATOM     29  C   UNL     1      46.646   1.231   7.851  0.00  0.00    +0.000 A 
ATOM     30  C   UNL     1      47.476   1.881   6.969  0.00  0.00    +0.000 A 
ATOM     31  C   UNL     1      47.213   3.216   6.786  0.00  0.00    +0.000 A 
ATOM     32  N   UNL     1      46.220   3.869   7.414  0.00  0.00    +0.000 NA
ENDBRANCH  26  27
ENDBRANCH  25  26
ENDBRANCH  24  25
ENDBRANCH  21  24
ENDBRANCH  17  18
ENDBRANCH   1  17
TORSDOF 9
ENDMDL
MODEL 6
REMARK VINA RESULT:    -6.627      1.846      2.224
REMARK INTER + INTRA:         -11.419
REMARK INTER:                 -10.496
REMARK INTRA:                  -0.923
REMARK UNBOUND:                -1.305
REMARK  Name = 
REMARK  9 active torsions:
REMARK  status: ('A' for Active; 'I' for Inactive)
REMARK    1  A    between atoms: C_2  and  C_3
REMARK    2  A    between atoms: C_3  and  N_4
REMARK    3  A    between atoms: C_3  and  C_21
REMARK    4  A    between atoms: N_4  and  C_5
REMARK    5  A    between atoms: C_5  and  C_6
REMARK    6  A    between atoms: C_9  and  C_10
REMARK    7  A    between atoms: C_10  and  S_11
REMARK    8  A    between atoms: S_11  and  C_12
REMARK    9  A    between atoms: C_12  and  C_13
REMARK                            x       y       z     vdW  Elec       q    Type
REMARK                         _______ _______ _______ _____ _____    ______ ____
ROOT
ATOM      1  N   UNL     1      48.116   5.875  16.349  0.00  0.00    +0.000 NA
ATOM      2  H   UNL     1      47.486   5.087  16.167  0.00  0.00    +0.000 HD
ENDROOT
BRANCH   1   3
ATOM      3  C   UNL     1      49.307   5.376  17.053  0.00  0.00    +0.000 C 
BRANCH   3   4
ATOM      4  C   UNL     1      49.570   6.181  18.303  0.00  0.00    +0.000 A 
ATOM      5  C   UNL     1      50.693   6.969  18.502  0.00  0.00    +0.000 A 
ATOM      6  S   UNL     1      51.011   7.226  20.169  0.00  0.00    +0.000 S 
ATOM      7  C   UNL     1      49.536   6.488  20.623  0.00  0.00    +0.000 A 
ATOM      8  N   UNL     1      49.199   6.263  21.916  0.00  0.00    +0.000 NA
ATOM      9  C   UNL     1      47.998   5.825  22.072  0.00  0.00    +0.000 A 
ATOM     10  N   UNL     1      47.084   5.639  21.060  0.00  0.00    +0.000 N 
ATOM     11  C   UNL     1      47.403   5.801  19.727  0.00  0.00    +0.000 A 
ATOM     12  O   UNL     1      46.583   5.672  18.831  0.00  0.00    +0.000 OA
ATOM     13  C   UNL     1      48.777   6.194  19.505  0.00  0.00    +0.000 A 
ATOM     14  H   UNL     1      46.128   5.390  21.265  0.00  0.00    +0.000 HD
ENDBRANCH   3   4
BRANCH   3  16
ATOM     15  N   UNL     1      49.253   2.794  17.658  0.00  0.00    +0.000 NA
ATOM     16  C   UNL     1      49.278   3.922  17.399  0.00  0.00    +0.000 C 
ENDBRANCH   3  16
ENDBRANCH   1   3
BRANCH   1  17
ATOM     17  C   UNL     1      48.515   6.486  15.078  0.00  0.00    +0.000 C 
BRANCH  17  18
ATOM     18  C   UNL     1      47.614   6.123  13.927  0.00  0.00    +0.000 A 
ATOM     19  C   UNL     1      46.941   4.895  13.925  0.00  0.00    +0.000 A 
ATOM     20  C   UNL     1      45.971   4.617  12.961  0.00  0.00    +0.000 A 
ATOM     21  C   UNL     1      45.652   5.561  11.976  0.00  0.00    +0.000 A 
ATOM     22  C   UNL     1      46.396   6.748  11.922  0.00  0.00    +0.000 A 
ATOM     23  C   UNL     1      47.365   7.030  12.891  0.00  0.00    +0.000 A 
BRANCH  21  24
ATOM     24  C   UNL     1      44.529   5.316  10.997  0.00  0.00    +0.000 C 
BRANCH  24  25
ATOM     25  S   UNL     1      44.424   3.592  10.400  0.00  0.00    +0.000 S 
BRANCH  25  26
ATOM     26  C   UNL     1      44.537   3.849   8.591  0.00  0.00    +0.000 C 
BRANCH  26  27
ATOM     27  C   UNL     1      45.646   3.072   7.923  0.00  0.00    +0.000 A 
ATOM     28  N   UNL     1      46.331   3.670   6.926  0.00  0.00    +0.000 NA
ATOM     29  C   UNL     1      47.294   2.940   6.335  0.00  0.00    +0.000 A 
ATOM     30  C   UNL     1      47.597   1.648   6.691  0.00  0.00    +0.000 A 
ATOM     31  C   UNL     1      46.849   1.128   7.718  0.00  0.00    +0.000 A 
ATOM     32  N   UNL     1      45.879   1.812   8.348  0.00  0.00    +0.000 NA
ENDBRANCH  26  27
ENDBRANCH  25  26
ENDBRANCH  24  25
ENDBRANCH  21  24
ENDBRANCH  17  18
ENDBRANCH   1  17
TORSDOF 9
ENDMDL
MODEL 7
REMARK VINA RESULT:    -6.491      2.656      8.517
REMARK INTER + INTRA:         -11.211
REMARK INTER:                  -9.974
REMARK INTRA:                  -1.237
REMARK UNBOUND:                -1.305
REMARK  Name = 
REMARK  9 active torsions:
REMARK  status: ('A' for Active; 'I' for Inactive)
REMARK    1  A    between atoms: C_2  and  C_3
REMARK    2  A    between atoms: C_3  and  N_4
REMARK    3  A    between atoms: C_3  and  C_21
REMARK    4  A    between atoms: N_4  and  C_5
REMARK    5  A    between atoms: C_5  and  C_6
REMARK    6  A    between atoms: C_9  and  C_10
REMARK    7  A    between atoms: C_10  and  S_11
REMARK    8  A    between atoms: S_11  and  C_12
REMARK    9  A    between atoms: C_12  and  C_13
REMARK                            x       y       z     vdW  Elec       q    Type
REMARK                         _______ _______ _______ _____ _____    ______ ____
ROOT
ATOM      1  N   UNL     1      47.080   6.149  12.217  0.00  0.00    +0.000 NA
ATOM      2  H   UNL     1      46.732   6.034  13.174  0.00  0.00    +0.000 HD
ENDROOT
BRANCH   1   3
ATOM      3  C   UNL     1      46.026   6.770  11.400  0.00  0.00    +0.000 C 
BRANCH   3   4
ATOM      4  C   UNL     1      44.868   5.820  11.205  0.00  0.00    +0.000 A 
ATOM      5  C   UNL     1      43.732   5.801  11.999  0.00  0.00    +0.000 A 
ATOM      6  S   UNL     1      42.937   4.281  11.947  0.00  0.00    +0.000 S 
ATOM      7  C   UNL     1      43.964   3.721  10.699  0.00  0.00    +0.000 A 
ATOM      8  N   UNL     1      43.923   2.449  10.234  0.00  0.00    +0.000 NA
ATOM      9  C   UNL     1      44.671   2.247   9.205  0.00  0.00    +0.000 A 
ATOM     10  N   UNL     1      45.418   3.211   8.566  0.00  0.00    +0.000 N 
ATOM     11  C   UNL     1      45.533   4.502   9.039  0.00  0.00    +0.000 A 
ATOM     12  O   UNL     1      46.166   5.366   8.454  0.00  0.00    +0.000 OA
ATOM     13  C   UNL     1      44.787   4.740  10.255  0.00  0.00    +0.000 A 
ATOM     14  H   UNL     1      45.901   3.004   7.704  0.00  0.00    +0.000 HD
ENDBRANCH   3   4
BRANCH   3  16
ATOM     15  N   UNL     1      45.110   9.083  12.320  0.00  0.00    +0.000 NA
ATOM     16  C   UNL     1      45.511   8.076  11.914  0.00  0.00    +0.000 C 
ENDBRANCH   3  16
ENDBRANCH   1   3
BRANCH   1  17
ATOM     17  C   UNL     1      48.265   7.011  12.228  0.00  0.00    +0.000 C 
BRANCH  17  18
ATOM     18  C   UNL     1      48.918   7.119  13.581  0.00  0.00    +0.000 A 
ATOM     19  C   UNL     1      48.328   6.506  14.694  0.00  0.00    +0.000 A 
ATOM     20  C   UNL     1      49.004   6.445  15.913  0.00  0.00    +0.000 A 
ATOM     21  C   UNL     1      50.284   6.997  16.049  0.00  0.00    +0.000 A 
ATOM     22  C   UNL     1      50.828   7.696  14.963  0.00  0.00    +0.000 A 
ATOM     23  C   UNL     1      50.155   7.753  13.738  0.00  0.00    +0.000 A 
BRANCH  21  24
ATOM     24  C   UNL     1      51.067   6.840  17.330  0.00  0.00    +0.000 C 
BRANCH  24  25
ATOM     25  S   UNL     1      52.253   5.450  17.313  0.00  0.00    +0.000 S 
BRANCH  25  26
ATOM     26  C   UNL     1      51.444   4.296  18.481  0.00  0.00    +0.000 C 
BRANCH  26  27
ATOM     27  C   UNL     1      50.099   3.788  18.019  0.00  0.00    +0.000 A 
ATOM     28  N   UNL     1      48.999   4.212  18.675  0.00  0.00    +0.000 NA
ATOM     29  C   UNL     1      47.819   3.719  18.256  0.00  0.00    +0.000 A 
ATOM     30  C   UNL     1      47.693   2.825  17.220  0.00  0.00    +0.000 A 
ATOM     31  C   UNL     1      48.868   2.456  16.612  0.00  0.00    +0.000 A 
ATOM     32  N   UNL     1      50.073   2.920  16.986  0.00  0.00    +0.000 NA
ENDBRANCH  26  27
ENDBRANCH  25  26
ENDBRANCH  24  25
ENDBRANCH  21  24
ENDBRANCH  17  18
ENDBRANCH   1  17
TORSDOF 9
ENDMDL
MODEL 8
REMARK VINA RESULT:    -6.421      2.038      2.683
REMARK INTER + INTRA:         -11.104
REMARK INTER:                  -9.895
REMARK INTRA:                  -1.210
REMARK UNBOUND:                -1.305
REMARK  Name = 
REMARK  9 active torsions:
REMARK  status: ('A' for Active; 'I' for Inactive)
REMARK    1  A    between atoms: C_2  and  C_3
REMARK    2  A    between atoms: C_3  and  N_4
REMARK    3  A    between atoms: C_3  and  C_21
REMARK    4  A    between atoms: N_4  and  C_5
REMARK    5  A    between atoms: C_5  and  C_6
REMARK    6  A    between atoms: C_9  and  C_10
REMARK    7  A    between atoms: C_10  and  S_11
REMARK    8  A    between atoms: S_11  and  C_12
REMARK    9  A    between atoms: C_12  and  C_13
REMARK                            x       y       z     vdW  Elec       q    Type
REMARK                         _______ _______ _______ _____ _____    ______ ____
ROOT
ATOM      1  N   UNL     1      47.572   9.143  15.395  0.00  0.00    +0.000 NA
ATOM      2  H   UNL     1      47.043   8.426  15.901  0.00  0.00    +0.000 HD
ENDROOT
BRANCH   1   3
ATOM      3  C   UNL     1      48.784   9.469  16.163  0.00  0.00    +0.000 C 
BRANCH   3   4
ATOM      4  C   UNL     1      49.407   8.219  16.739  0.00  0.00    +0.000 A 
ATOM      5  C   UNL     1      50.672   7.756  16.411  0.00  0.00    +0.000 A 
ATOM      6  S   UNL     1      50.836   6.073  16.705  0.00  0.00    +0.000 S 
ATOM      7  C   UNL     1      49.312   6.001  17.478  0.00  0.00    +0.000 A 
ATOM      8  N   UNL     1      48.756   4.836  17.890  0.00  0.00    +0.000 NA
ATOM      9  C   UNL     1      47.673   4.988  18.570  0.00  0.00    +0.000 A 
ATOM     10  N   UNL     1      47.120   6.199  18.921  0.00  0.00    +0.000 N 
ATOM     11  C   UNL     1      47.621   7.405  18.475  0.00  0.00    +0.000 A 
ATOM     12  O   UNL     1      47.153   8.480  18.815  0.00  0.00    +0.000 OA
ATOM     13  C   UNL     1      48.781   7.269  17.621  0.00  0.00    +0.000 A 
ATOM     14  H   UNL     1      46.326   6.245  19.542  0.00  0.00    +0.000 HD
ENDBRANCH   3   4
BRANCH   3  16
ATOM     15  N   UNL     1      50.635  10.826  14.835  0.00  0.00    +0.000 NA
ATOM     16  C   UNL     1      49.823  10.238  15.413  0.00  0.00    +0.000 C 
ENDBRANCH   3  16
ENDBRANCH   1   3
BRANCH   1  17
ATOM     17  C   UNL     1      47.950   8.632  14.074  0.00  0.00    +0.000 C 
BRANCH  17  18
ATOM     18  C   UNL     1      47.179   7.406  13.661  0.00  0.00    +0.000 A 
ATOM     19  C   UNL     1      46.102   7.522  12.773  0.00  0.00    +0.000 A 
ATOM     20  C   UNL     1      45.490   6.385  12.244  0.00  0.00    +0.000 A 
ATOM     21  C   UNL     1      45.940   5.105  12.592  0.00  0.00    +0.000 A 
ATOM     22  C   UNL     1      46.952   4.992  13.556  0.00  0.00    +0.000 A 
ATOM     23  C   UNL     1      47.570   6.130  14.083  0.00  0.00    +0.000 A 
BRANCH  21  24
ATOM     24  C   UNL     1      45.360   3.872  11.943  0.00  0.00    +0.000 C 
BRANCH  24  25
ATOM     25  S   UNL     1      44.326   4.219  10.476  0.00  0.00    +0.000 S 
BRANCH  25  26
ATOM     26  C   UNL     1      44.375   2.596   9.631  0.00  0.00    +0.000 C 
BRANCH  26  27
ATOM     27  C   UNL     1      45.442   2.482   8.569  0.00  0.00    +0.000 A 
ATOM     28  N   UNL     1      46.065   1.295   8.417  0.00  0.00    +0.000 NA
ATOM     29  C   UNL     1      47.029   1.236   7.480  0.00  0.00    +0.000 A 
ATOM     30  C   UNL     1      47.396   2.304   6.697  0.00  0.00    +0.000 A 
ATOM     31  C   UNL     1      46.702   3.467   6.923  0.00  0.00    +0.000 A 
ATOM     32  N   UNL     1      45.727   3.583   7.841  0.00  0.00    +0.000 NA
ENDBRANCH  26  27
ENDBRANCH  25  26
ENDBRANCH  24  25
ENDBRANCH  21  24
ENDBRANCH  17  18
ENDBRANCH   1  17
TORSDOF 9
ENDMDL
MODEL 9
REMARK VINA RESULT:    -6.241      1.739      2.251
REMARK INTER + INTRA:         -10.830
REMARK INTER:                  -9.928
REMARK INTRA:                  -0.902
REMARK UNBOUND:                -1.305
REMARK  Name = 
REMARK  9 active torsions:
REMARK  status: ('A' for Active; 'I' for Inactive)
REMARK    1  A    between atoms: C_2  and  C_3
REMARK    2  A    between atoms: C_3  and  N_4
REMARK    3  A    between atoms: C_3  and  C_21
REMARK    4  A    between atoms: N_4  and  C_5
REMARK    5  A    between atoms: C_5  and  C_6
REMARK    6  A    between atoms: C_9  and  C_10
REMARK    7  A    between atoms: C_10  and  S_11
REMARK    8  A    between atoms: S_11  and  C_12
REMARK    9  A    between atoms: C_12  and  C_13
REMARK                            x       y       z     vdW  Elec       q    Type
REMARK                         _______ _______ _______ _____ _____    ______ ____
ROOT
ATOM      1  N   UNL     1      47.127   8.754  14.536  0.00  0.00    +0.000 NA
ATOM      2  H   UNL     1      46.919   7.777  14.765  0.00  0.00    +0.000 HD
ENDROOT
BRANCH   1   3
ATOM      3  C   UNL     1      48.489   9.068  14.994  0.00  0.00    +0.000 C 
BRANCH   3   4
ATOM      4  C   UNL     1      48.663   8.707  16.451  0.00  0.00    +0.000 A 
ATOM      5  C   UNL     1      48.607   9.619  17.493  0.00  0.00    +0.000 A 
ATOM      6  S   UNL     1      49.437   9.056  18.885  0.00  0.00    +0.000 S 
ATOM      7  C   UNL     1      49.677   7.512  18.189  0.00  0.00    +0.000 A 
ATOM      8  N   UNL     1      50.418   6.548  18.787  0.00  0.00    +0.000 NA
ATOM      9  C   UNL     1      50.375   5.411  18.184  0.00  0.00    +0.000 A 
ATOM     10  N   UNL     1      49.619   5.132  17.068  0.00  0.00    +0.000 N 
ATOM     11  C   UNL     1      48.896   6.097  16.396  0.00  0.00    +0.000 A 
ATOM     12  O   UNL     1      48.197   5.844  15.429  0.00  0.00    +0.000 OA
ATOM     13  C   UNL     1      49.003   7.414  16.986  0.00  0.00    +0.000 A 
ATOM     14  H   UNL     1      49.554   4.191  16.709  0.00  0.00    +0.000 HD
ENDBRANCH   3   4
BRANCH   3  16
ATOM     15  N   UNL     1      50.432   7.952  13.576  0.00  0.00    +0.000 NA
ATOM     16  C   UNL     1      49.588   8.443  14.197  0.00  0.00    +0.000 C 
ENDBRANCH   3  16
ENDBRANCH   1   3
BRANCH   1  17
ATOM     17  C   UNL     1      47.041   8.945  13.085  0.00  0.00    +0.000 C 
BRANCH  17  18
ATOM     18  C   UNL     1      46.304   7.838  12.376  0.00  0.00    +0.000 A 
ATOM     19  C   UNL     1      46.818   6.536  12.385  0.00  0.00    +0.000 A 
ATOM     20  C   UNL     1      46.066   5.471  11.889  0.00  0.00    +0.000 A 
ATOM     21  C   UNL     1      44.783   5.684  11.369  0.00  0.00    +0.000 A 
ATOM     22  C   UNL     1      44.312   7.000  11.271  0.00  0.00    +0.000 A 
ATOM     23  C   UNL     1      45.062   8.069  11.773  0.00  0.00    +0.000 A 
BRANCH  21  24
ATOM     24  C   UNL     1      43.918   4.526  10.932  0.00  0.00    +0.000 C 
BRANCH  24  25
ATOM     25  S   UNL     1      44.750   2.902  11.013  0.00  0.00    +0.000 S 
BRANCH  25  26
ATOM     26  C   UNL     1      44.407   2.257   9.334  0.00  0.00    +0.000 C 
BRANCH  26  27
ATOM     27  C   UNL     1      45.587   2.319   8.394  0.00  0.00    +0.000 A 
ATOM     28  N   UNL     1      46.279   1.183   8.165  0.00  0.00    +0.000 NA
ATOM     29  C   UNL     1      47.340   1.279   7.344  0.00  0.00    +0.000 A 
ATOM     30  C   UNL     1      47.739   2.452   6.749  0.00  0.00    +0.000 A 
ATOM     31  C   UNL     1      46.970   3.552   7.039  0.00  0.00    +0.000 A 
ATOM     32  N   UNL     1      45.897   3.514   7.848  0.00  0.00    +0.000 NA
ENDBRANCH  26  27
ENDBRANCH  25  26
ENDBRANCH  24  25
ENDBRANCH  21  24
ENDBRANCH  17  18
ENDBRANCH   1  17
TORSDOF 9
ENDMDL
