MODEL 1
REMARK VINA RESULT:    -8.165      0.000      0.000
REMARK INTER + INTRA:         -10.937
REMARK INTER:                 -10.552
REMARK INTRA:                  -0.386
REMARK UNBOUND:                -0.386
REMARK  Name = 
REMARK  6 active torsions:
REMARK  status: ('A' for Active; 'I' for Inactive)
REMARK    1  A    between atoms: C_1  and  C_2
REMARK    2  A    between atoms: C_2  and  N_3
REMARK    3  A    between atoms: C_2  and  C_16
REMARK    4  A    between atoms: C_4  and  C_6
REMARK    5  A    between atoms: C_19  and  C_20
REMARK    6  A    between atoms: C_20  and  N_21
REMARK                            x       y       z     vdW  Elec       q    Type
REMARK                         _______ _______ _______ _____ _____    ______ ____
ROOT
ATOM      1  C   UNL     1      46.267   8.542  13.108  0.00  0.00    +0.000 C 
ATOM      2  C   UNL     1      46.937   7.168  13.022  0.00  0.00    +0.000 C 
ENDROOT
BRANCH   2   3
ATOM      3  C   UNL     1      46.050   6.185  12.272  0.00  0.00    +0.000 A 
ATOM      4  C   UNL     1      46.119   4.840  12.665  0.00  0.00    +0.000 A 
ATOM      5  C   UNL     1      45.457   3.840  11.953  0.00  0.00    +0.000 A 
ATOM      6  C   UNL     1      44.672   4.156  10.840  0.00  0.00    +0.000 A 
ATOM      7  C   UNL     1      44.543   5.504  10.477  0.00  0.00    +0.000 A 
ATOM      8  C   UNL     1      45.237   6.505  11.173  0.00  0.00    +0.000 A 
BRANCH   6   9
ATOM      9  C   UNL     1      44.045   3.059  10.002  0.00  0.00    +0.000 C 
BRANCH   9  10
ATOM     10  N   UNL     1      44.702   2.813   8.698  0.00  0.00    +0.000 NA
ATOM     11  C   UNL     1      45.402   4.020   8.235  0.00  0.00    +0.000 C 
ATOM     12  C   UNL     1      46.309   3.790   7.026  0.00  0.00    +0.000 C 
ATOM     13  C   UNL     1      47.275   2.643   7.271  0.00  0.00    +0.000 C 
ATOM     14  C   UNL     1      46.486   1.389   7.608  0.00  0.00    +0.000 C 
ATOM     15  C   UNL     1      45.555   1.616   8.800  0.00  0.00    +0.000 C 
ENDBRANCH   9  10
ENDBRANCH   6   9
ENDBRANCH   2   3
BRANCH   2  16
ATOM     16  N   UNL     1      47.322   6.709  14.332  0.00  0.00    +0.000 N 
ATOM     17  C   UNL     1      48.632   6.628  14.728  0.00  0.00    +0.000 C 
ATOM     18  O   UNL     1      49.571   6.898  13.987  0.00  0.00    +0.000 OA
ATOM     19  H   UNL     1      46.594   6.353  14.937  0.00  0.00    +0.000 HD
BRANCH  17  20
ATOM     20  C   UNL     1      48.841   6.245  16.126  0.00  0.00    +0.000 A 
ATOM     21  C   UNL     1      49.452   7.135  17.003  0.00  0.00    +0.000 A 
ATOM     22  S   UNL     1      49.584   6.527  18.590  0.00  0.00    +0.000 S 
ATOM     23  C   UNL     1      48.873   5.044  18.147  0.00  0.00    +0.000 A 
ATOM     24  N   UNL     1      48.710   4.041  19.043  0.00  0.00    +0.000 NA
ATOM     25  C   UNL     1      48.190   2.967  18.560  0.00  0.00    +0.000 A 
ATOM     26  N   UNL     1      47.795   2.806  17.254  0.00  0.00    +0.000 N 
ATOM     27  C   UNL     1      47.874   3.811  16.327  0.00  0.00    +0.000 A 
ATOM     28  O   UNL     1      47.389   3.671  15.214  0.00  0.00    +0.000 OA
ATOM     29  C   UNL     1      48.505   5.029  16.809  0.00  0.00    +0.000 A 
ATOM     30  H   UNL     1      47.355   1.955  16.941  0.00  0.00    +0.000 HD
ENDBRANCH  17  20
ENDBRANCH   2  16
TORSDOF 5
ENDMDL
MODEL 2
REMARK VINA RESULT:    -8.003      1.645      2.335
REMARK INTER + INTRA:         -10.728
REMARK INTER:                 -10.133
REMARK INTRA:                  -0.595
REMARK UNBOUND:                -0.386
REMARK  Name = 
REMARK  6 active torsions:
REMARK  status: ('A' for Active; 'I' for Inactive)
REMARK    1  A    between atoms: C_1  and  C_2
REMARK    2  A    between atoms: C_2  and  N_3
REMARK    3  A    between atoms: C_2  and  C_16
REMARK    4  A    between atoms: C_4  and  C_6
REMARK    5  A    between atoms: C_19  and  C_20
REMARK    6  A    between atoms: C_20  and  N_21
REMARK                            x       y       z     vdW  Elec       q    Type
REMARK                         _______ _______ _______ _____ _____    ______ ____
ROOT
ATOM      1  C   UNL     1      49.047   8.136  13.386  0.00  0.00    +0.000 C 
ATOM      2  C   UNL     1      48.619   6.772  13.936  0.00  0.00    +0.000 C 
ENDROOT
BRANCH   2   3
ATOM      3  C   UNL     1      47.499   6.181  13.093  0.00  0.00    +0.000 A 
ATOM      4  C   UNL     1      47.122   6.897  11.947  0.00  0.00    +0.000 A 
ATOM      5  C   UNL     1      46.017   6.519  11.185  0.00  0.00    +0.000 A 
ATOM      6  C   UNL     1      45.268   5.388  11.525  0.00  0.00    +0.000 A 
ATOM      7  C   UNL     1      45.675   4.627  12.630  0.00  0.00    +0.000 A 
ATOM      8  C   UNL     1      46.767   5.027  13.415  0.00  0.00    +0.000 A 
BRANCH   6   9
ATOM      9  C   UNL     1      44.003   5.043  10.764  0.00  0.00    +0.000 C 
BRANCH   9  10
ATOM     10  N   UNL     1      44.195   4.142   9.604  0.00  0.00    +0.000 NA
ATOM     11  C   UNL     1      45.360   4.559   8.811  0.00  0.00    +0.000 C 
ATOM     12  C   UNL     1      45.780   3.551   7.742  0.00  0.00    +0.000 C 
ATOM     13  C   UNL     1      45.974   2.166   8.335  0.00  0.00    +0.000 C 
ATOM     14  C   UNL     1      44.690   1.731   9.021  0.00  0.00    +0.000 C 
ATOM     15  C   UNL     1      44.246   2.747  10.075  0.00  0.00    +0.000 C 
ENDBRANCH   9  10
ENDBRANCH   6   9
ENDBRANCH   2   3
BRANCH   2  16
ATOM     16  N   UNL     1      48.293   6.870  15.337  0.00  0.00    +0.000 N 
ATOM     17  C   UNL     1      49.194   6.570  16.325  0.00  0.00    +0.000 C 
ATOM     18  O   UNL     1      50.325   6.157  16.094  0.00  0.00    +0.000 OA
ATOM     19  H   UNL     1      47.335   7.082  15.581  0.00  0.00    +0.000 HD
BRANCH  17  20
ATOM     20  C   UNL     1      48.733   6.827  17.691  0.00  0.00    +0.000 A 
ATOM     21  C   UNL     1      48.341   8.109  18.059  0.00  0.00    +0.000 A 
ATOM     22  S   UNL     1      47.811   8.209  19.677  0.00  0.00    +0.000 S 
ATOM     23  C   UNL     1      48.130   6.558  19.947  0.00  0.00    +0.000 A 
ATOM     24  N   UNL     1      47.923   5.986  21.158  0.00  0.00    +0.000 NA
ATOM     25  C   UNL     1      48.239   4.740  21.226  0.00  0.00    +0.000 A 
ATOM     26  N   UNL     1      48.731   3.998  20.180  0.00  0.00    +0.000 N 
ATOM     27  C   UNL     1      48.894   4.511  18.921  0.00  0.00    +0.000 A 
ATOM     28  O   UNL     1      49.207   3.785  17.988  0.00  0.00    +0.000 OA
ATOM     29  C   UNL     1      48.602   5.930  18.804  0.00  0.00    +0.000 A 
ATOM     30  H   UNL     1      48.924   3.014  20.281  0.00  0.00    +0.000 HD
ENDBRANCH  17  20
ENDBRANCH   2  16
TORSDOF 5
ENDMDL
MODEL 3
REMARK VINA RESULT:    -7.784      2.305      3.347
REMARK INTER + INTRA:         -10.444
REMARK INTER:                  -9.594
REMARK INTRA:                  -0.850
REMARK UNBOUND:                -0.386
REMARK  Name = 
REMARK  6 active torsions:
REMARK  status: ('A' for Active; 'I' for Inactive)
REMARK    1  A    between atoms: C_1  and  C_2
REMARK    2  A    between atoms: C_2  and  N_3
REMARK    3  A    between atoms: C_2  and  C_16
REMARK    4  A    between atoms: C_4  and  C_6
REMARK    5  A    between atoms: C_19  and  C_20
REMARK    6  A    between atoms: C_20  and  N_21
REMARK                            x       y       z     vdW  Elec       q    Type
REMARK                         _______ _______ _______ _____ _____    ______ ____
ROOT
ATOM      1  C   UNL     1      48.956   8.071  13.563  0.00  0.00    +0.000 C 
ATOM      2  C   UNL     1      48.512   6.698  14.079  0.00  0.00    +0.000 C 
ENDROOT
BRANCH   2   3
ATOM      3  C   UNL     1      47.416   6.122  13.195  0.00  0.00    +0.000 A 
ATOM      4  C   UNL     1      46.997   6.908  12.110  0.00  0.00    +0.000 A 
ATOM      5  C   UNL     1      45.906   6.538  11.324  0.00  0.00    +0.000 A 
ATOM      6  C   UNL     1      45.215   5.349  11.575  0.00  0.00    +0.000 A 
ATOM      7  C   UNL     1      45.665   4.524  12.615  0.00  0.00    +0.000 A 
ATOM      8  C   UNL     1      46.742   4.913  13.426  0.00  0.00    +0.000 A 
BRANCH   6   9
ATOM      9  C   UNL     1      43.963   5.005  10.793  0.00  0.00    +0.000 C 
BRANCH   9  10
ATOM     10  N   UNL     1      44.178   4.130   9.618  0.00  0.00    +0.000 NA
ATOM     11  C   UNL     1      45.362   4.561   8.860  0.00  0.00    +0.000 C 
ATOM     12  C   UNL     1      45.803   3.576   7.778  0.00  0.00    +0.000 C 
ATOM     13  C   UNL     1      45.981   2.178   8.344  0.00  0.00    +0.000 C 
ATOM     14  C   UNL     1      44.681   1.731   8.991  0.00  0.00    +0.000 C 
ATOM     15  C   UNL     1      44.216   2.724  10.057  0.00  0.00    +0.000 C 
ENDBRANCH   9  10
ENDBRANCH   6   9
ENDBRANCH   2   3
BRANCH   2  16
ATOM     16  N   UNL     1      48.146   6.774  15.471  0.00  0.00    +0.000 N 
ATOM     17  C   UNL     1      48.927   6.247  16.467  0.00  0.00    +0.000 C 
ATOM     18  O   UNL     1      49.967   5.637  16.247  0.00  0.00    +0.000 OA
ATOM     19  H   UNL     1      47.236   7.153  15.696  0.00  0.00    +0.000 HD
BRANCH  17  20
ATOM     20  C   UNL     1      48.461   6.506  17.831  0.00  0.00    +0.000 A 
ATOM     21  C   UNL     1      48.325   5.452  18.727  0.00  0.00    +0.000 A 
ATOM     22  S   UNL     1      47.800   5.950  20.271  0.00  0.00    +0.000 S 
ATOM     23  C   UNL     1      47.694   7.577  19.778  0.00  0.00    +0.000 A 
ATOM     24  N   UNL     1      47.269   8.547  20.624  0.00  0.00    +0.000 NA
ATOM     25  C   UNL     1      47.208   9.724  20.106  0.00  0.00    +0.000 A 
ATOM     26  N   UNL     1      47.554  10.029  18.812  0.00  0.00    +0.000 N 
ATOM     27  C   UNL     1      48.053   9.100  17.939  0.00  0.00    +0.000 A 
ATOM     28  O   UNL     1      48.474   9.437  16.843  0.00  0.00    +0.000 OA
ATOM     29  C   UNL     1      48.092   7.743  18.459  0.00  0.00    +0.000 A 
ATOM     30  H   UNL     1      47.524  10.978  18.471  0.00  0.00    +0.000 HD
ENDBRANCH  17  20
ENDBRANCH   2  16
TORSDOF 5
ENDMDL
MODEL 4
REMARK VINA RESULT:    -7.651      3.566      9.310
REMARK INTER + INTRA:         -10.273
REMARK INTER:                  -9.333
REMARK INTRA:                  -0.939
REMARK UNBOUND:                -0.386
REMARK  Name = 
REMARK  6 active torsions:
REMARK  status: ('A' for Active; 'I' for Inactive)
REMARK    1  A    between atoms: C_1  and  C_2
REMARK    2  A    between atoms: C_2  and  N_3
REMARK    3  A    between atoms: C_2  and  C_16
REMARK    4  A    between atoms: C_4  and  C_6
REMARK    5  A    between atoms: C_19  and  C_20
REMARK    6  A    between atoms: C_20  and  N_21
REMARK                            x       y       z     vdW  Elec       q    Type
REMARK                         _______ _______ _______ _____ _____    ______ ____
ROOT
ATOM      1  C   UNL     1      47.686   3.143  16.792  0.00  0.00    +0.000 C 
ATOM      2  C   UNL     1      47.972   4.568  16.308  0.00  0.00    +0.000 C 
ENDROOT
BRANCH   2   3
ATOM      3  C   UNL     1      48.029   5.532  17.483  0.00  0.00    +0.000 A 
ATOM      4  C   UNL     1      49.118   6.416  17.526  0.00  0.00    +0.000 A 
ATOM      5  C   UNL     1      49.341   7.240  18.629  0.00  0.00    +0.000 A 
ATOM      6  C   UNL     1      48.462   7.234  19.716  0.00  0.00    +0.000 A 
ATOM      7  C   UNL     1      47.335   6.402  19.655  0.00  0.00    +0.000 A 
ATOM      8  C   UNL     1      47.129   5.549  18.561  0.00  0.00    +0.000 A 
BRANCH   6   9
ATOM      9  C   UNL     1      48.766   8.046  20.959  0.00  0.00    +0.000 C 
BRANCH   9  10
ATOM     10  N   UNL     1      48.042   9.333  21.060  0.00  0.00    +0.000 NA
ATOM     11  C   UNL     1      47.743   9.866  19.723  0.00  0.00    +0.000 C 
ATOM     12  C   UNL     1      46.788  11.059  19.727  0.00  0.00    +0.000 C 
ATOM     13  C   UNL     1      45.518  10.748  20.501  0.00  0.00    +0.000 C 
ATOM     14  C   UNL     1      45.884  10.339  21.918  0.00  0.00    +0.000 C 
ATOM     15  C   UNL     1      46.862   9.162  21.926  0.00  0.00    +0.000 C 
ENDBRANCH   9  10
ENDBRANCH   6   9
ENDBRANCH   2   3
BRANCH   2  16
ATOM     16  N   UNL     1      47.026   4.957  15.292  0.00  0.00    +0.000 N 
ATOM     17  C   UNL     1      47.396   5.652  14.170  0.00  0.00    +0.000 C 
ATOM     18  O   UNL     1      48.544   6.031  13.968  0.00  0.00    +0.000 OA
ATOM     19  H   UNL     1      46.047   4.782  15.472  0.00  0.00    +0.000 HD
BRANCH  17  20
ATOM     20  C   UNL     1      46.330   5.872  13.190  0.00  0.00    +0.000 A 
ATOM     21  C   UNL     1      46.000   7.167  12.805  0.00  0.00    +0.000 A 
ATOM     22  S   UNL     1      44.758   7.223  11.638  0.00  0.00    +0.000 S 
ATOM     23  C   UNL     1      44.591   5.528  11.646  0.00  0.00    +0.000 A 
ATOM     24  N   UNL     1      43.664   4.905  10.879  0.00  0.00    +0.000 NA
ATOM     25  C   UNL     1      43.629   3.625  11.011  0.00  0.00    +0.000 A 
ATOM     26  N   UNL     1      44.456   2.899  11.833  0.00  0.00    +0.000 N 
ATOM     27  C   UNL     1      45.453   3.473  12.575  0.00  0.00    +0.000 A 
ATOM     28  O   UNL     1      46.252   2.780  13.188  0.00  0.00    +0.000 OA
ATOM     29  C   UNL     1      45.500   4.924  12.502  0.00  0.00    +0.000 A 
ATOM     30  H   UNL     1      44.410   1.892  11.865  0.00  0.00    +0.000 HD
ENDBRANCH  17  20
ENDBRANCH   2  16
TORSDOF 5
ENDMDL
MODEL 5
REMARK VINA RESULT:    -7.257      3.412      8.188
REMARK INTER + INTRA:          -9.763
REMARK INTER:                  -8.757
REMARK INTRA:                  -1.006
REMARK UNBOUND:                -0.386
REMARK  Name = 
REMARK  6 active torsions:
REMARK  status: ('A' for Active; 'I' for Inactive)
REMARK    1  A    between atoms: C_1  and  C_2
REMARK    2  A    between atoms: C_2  and  N_3
REMARK    3  A    between atoms: C_2  and  C_16
REMARK    4  A    between atoms: C_4  and  C_6
REMARK    5  A    between atoms: C_19  and  C_20
REMARK    6  A    between atoms: C_20  and  N_21
REMARK                            x       y       z     vdW  Elec       q    Type
REMARK                         _______ _______ _______ _____ _____    ______ ____
ROOT
ATOM      1  C   UNL     1      49.637   8.042  11.663  0.00  0.00    +0.000 C 
ATOM      2  C   UNL     1      48.467   7.653  12.572  0.00  0.00    +0.000 C 
ENDROOT
BRANCH   2   3
ATOM      3  C   UNL     1      48.967   7.278  13.958  0.00  0.00    +0.000 A 
ATOM      4  C   UNL     1      50.279   7.655  14.283  0.00  0.00    +0.000 A 
ATOM      5  C   UNL     1      50.882   7.238  15.470  0.00  0.00    +0.000 A 
ATOM      6  C   UNL     1      50.179   6.456  16.392  0.00  0.00    +0.000 A 
ATOM      7  C   UNL     1      48.846   6.129  16.108  0.00  0.00    +0.000 A 
ATOM      8  C   UNL     1      48.252   6.520  14.899  0.00  0.00    +0.000 A 
BRANCH   6   9
ATOM      9  C   UNL     1      50.870   5.911  17.627  0.00  0.00    +0.000 C 
BRANCH   9  10
ATOM     10  N   UNL     1      51.806   4.791  17.378  0.00  0.00    +0.000 NA
ATOM     11  C   UNL     1      53.085   5.021  18.065  0.00  0.00    +0.000 C 
ATOM     12  C   UNL     1      54.018   3.811  18.068  0.00  0.00    +0.000 C 
ATOM     13  C   UNL     1      53.315   2.573  18.597  0.00  0.00    +0.000 C 
ATOM     14  C   UNL     1      52.077   2.305  17.758  0.00  0.00    +0.000 C 
ATOM     15  C   UNL     1      51.148   3.520  17.726  0.00  0.00    +0.000 C 
ENDBRANCH   9  10
ENDBRANCH   6   9
ENDBRANCH   2   3
BRANCH   2  16
ATOM     16  N   UNL     1      47.665   6.628  11.954  0.00  0.00    +0.000 N 
ATOM     17  C   UNL     1      46.347   6.820  11.629  0.00  0.00    +0.000 C 
ATOM     18  O   UNL     1      45.743   7.857  11.878  0.00  0.00    +0.000 OA
ATOM     19  H   UNL     1      48.079   5.712  11.844  0.00  0.00    +0.000 HD
BRANCH  17  20
ATOM     20  C   UNL     1      45.712   5.713  10.911  0.00  0.00    +0.000 A 
ATOM     21  C   UNL     1      45.837   5.623   9.529  0.00  0.00    +0.000 A 
ATOM     22  S   UNL     1      45.056   4.257   8.873  0.00  0.00    +0.000 S 
ATOM     23  C   UNL     1      44.489   3.770  10.403  0.00  0.00    +0.000 A 
ATOM     24  N   UNL     1      43.714   2.669  10.554  0.00  0.00    +0.000 NA
ATOM     25  C   UNL     1      43.332   2.440  11.762  0.00  0.00    +0.000 A 
ATOM     26  N   UNL     1      43.672   3.208  12.849  0.00  0.00    +0.000 N 
ATOM     27  C   UNL     1      44.508   4.289  12.761  0.00  0.00    +0.000 A 
ATOM     28  O   UNL     1      44.892   4.863  13.769  0.00  0.00    +0.000 OA
ATOM     29  C   UNL     1      44.924   4.622  11.409  0.00  0.00    +0.000 A 
ATOM     30  H   UNL     1      43.376   2.957  13.780  0.00  0.00    +0.000 HD
ENDBRANCH  17  20
ENDBRANCH   2  16
TORSDOF 5
ENDMDL
MODEL 6
REMARK VINA RESULT:    -7.256      2.955      8.818
REMARK INTER + INTRA:          -9.762
REMARK INTER:                  -8.888
REMARK INTRA:                  -0.874
REMARK UNBOUND:                -0.386
REMARK  Name = 
REMARK  6 active torsions:
REMARK  status: ('A' for Active; 'I' for Inactive)
REMARK    1  A    between atoms: C_1  and  C_2
REMARK    2  A    between atoms: C_2  and  N_3
REMARK    3  A    between atoms: C_2  and  C_16
REMARK    4  A    between atoms: C_4  and  C_6
REMARK    5  A    between atoms: C_19  and  C_20
REMARK    6  A    between atoms: C_20  and  N_21
REMARK                            x       y       z     vdW  Elec       q    Type
REMARK                         _______ _______ _______ _____ _____    ______ ____
ROOT
ATOM      1  C   UNL     1      48.603   7.823  11.613  0.00  0.00    +0.000 C 
ATOM      2  C   UNL     1      47.498   7.690  12.665  0.00  0.00    +0.000 C 
ENDROOT
BRANCH   2   3
ATOM      3  C   UNL     1      48.080   7.777  14.068  0.00  0.00    +0.000 A 
ATOM      4  C   UNL     1      48.499   6.574  14.657  0.00  0.00    +0.000 A 
ATOM      5  C   UNL     1      48.914   6.523  15.987  0.00  0.00    +0.000 A 
ATOM      6  C   UNL     1      48.958   7.682  16.767  0.00  0.00    +0.000 A 
ATOM      7  C   UNL     1      48.604   8.900  16.170  0.00  0.00    +0.000 A 
ATOM      8  C   UNL     1      48.155   8.945  14.842  0.00  0.00    +0.000 A 
BRANCH   6   9
ATOM      9  C   UNL     1      49.301   7.607  18.242  0.00  0.00    +0.000 C 
BRANCH   9  10
ATOM     10  N   UNL     1      48.557   6.581  19.007  0.00  0.00    +0.000 NA
ATOM     11  C   UNL     1      49.457   5.498  19.433  0.00  0.00    +0.000 C 
ATOM     12  C   UNL     1      48.832   4.525  20.432  0.00  0.00    +0.000 C 
ATOM     13  C   UNL     1      48.239   5.260  21.623  0.00  0.00    +0.000 C 
ATOM     14  C   UNL     1      47.214   6.267  21.128  0.00  0.00    +0.000 C 
ATOM     15  C   UNL     1      47.823   7.230  20.107  0.00  0.00    +0.000 C 
ENDBRANCH   9  10
ENDBRANCH   6   9
ENDBRANCH   2   3
BRANCH   2  16
ATOM     16  N   UNL     1      46.723   6.496  12.438  0.00  0.00    +0.000 N 
ATOM     17  C   UNL     1      45.517   6.514  11.787  0.00  0.00    +0.000 C 
ATOM     18  O   UNL     1      44.989   7.547  11.389  0.00  0.00    +0.000 OA
ATOM     19  H   UNL     1      47.052   5.637  12.858  0.00  0.00    +0.000 HD
BRANCH  17  20
ATOM     20  C   UNL     1      44.916   5.201  11.546  0.00  0.00    +0.000 A 
ATOM     21  C   UNL     1      44.175   4.585  12.550  0.00  0.00    +0.000 A 
ATOM     22  S   UNL     1      43.532   3.078  12.078  0.00  0.00    +0.000 S 
ATOM     23  C   UNL     1      44.257   3.180  10.540  0.00  0.00    +0.000 A 
ATOM     24  N   UNL     1      44.129   2.185   9.629  0.00  0.00    +0.000 NA
ATOM     25  C   UNL     1      44.758   2.384   8.524  0.00  0.00    +0.000 A 
ATOM     26  N   UNL     1      45.497   3.505   8.233  0.00  0.00    +0.000 N 
ATOM     27  C   UNL     1      45.601   4.566   9.091  0.00  0.00    +0.000 A 
ATOM     28  O   UNL     1      46.156   5.598   8.741  0.00  0.00    +0.000 OA
ATOM     29  C   UNL     1      44.953   4.370  10.377  0.00  0.00    +0.000 A 
ATOM     30  H   UNL     1      45.936   3.624   7.333  0.00  0.00    +0.000 HD
ENDBRANCH  17  20
ENDBRANCH   2  16
TORSDOF 5
ENDMDL
MODEL 7
REMARK VINA RESULT:    -7.208      3.089      8.701
REMARK INTER + INTRA:          -9.700
REMARK INTER:                  -8.602
REMARK INTRA:                  -1.098
REMARK UNBOUND:                -0.386
REMARK  Name = 
REMARK  6 active torsions:
REMARK  status: ('A' for Active; 'I' for Inactive)
REMARK    1  A    between atoms: C_1  and  C_2
REMARK    2  A    between atoms: C_2  and  N_3
REMARK    3  A    between atoms: C_2  and  C_16
REMARK    4  A    between atoms: C_4  and  C_6
REMARK    5  A    between atoms: C_19  and  C_20
REMARK    6  A    between atoms: C_20  and  N_21
REMARK                            x       y       z     vdW  Elec       q    Type
REMARK                         _______ _______ _______ _____ _____    ______ ____
ROOT
ATOM      1  C   UNL     1      49.448   7.875  12.248  0.00  0.00    +0.000 C 
ATOM      2  C   UNL     1      48.328   7.365  13.160  0.00  0.00    +0.000 C 
ENDROOT
BRANCH   2   3
ATOM      3  C   UNL     1      48.899   6.852  14.473  0.00  0.00    +0.000 A 
ATOM      4  C   UNL     1      48.122   5.923  15.183  0.00  0.00    +0.000 A 
ATOM      5  C   UNL     1      48.485   5.499  16.461  0.00  0.00    +0.000 A 
ATOM      6  C   UNL     1      49.659   5.964  17.062  0.00  0.00    +0.000 A 
ATOM      7  C   UNL     1      50.476   6.841  16.336  0.00  0.00    +0.000 A 
ATOM      8  C   UNL     1      50.093   7.293  15.064  0.00  0.00    +0.000 A 
BRANCH   6   9
ATOM      9  C   UNL     1      49.994   5.590  18.493  0.00  0.00    +0.000 C 
BRANCH   9  10
ATOM     10  N   UNL     1      48.873   5.714  19.452  0.00  0.00    +0.000 NA
ATOM     11  C   UNL     1      49.100   4.862  20.628  0.00  0.00    +0.000 C 
ATOM     12  C   UNL     1      48.122   5.110  21.776  0.00  0.00    +0.000 C 
ATOM     13  C   UNL     1      48.074   6.582  22.153  0.00  0.00    +0.000 C 
ATOM     14  C   UNL     1      47.697   7.399  20.929  0.00  0.00    +0.000 C 
ATOM     15  C   UNL     1      48.654   7.137  19.764  0.00  0.00    +0.000 C 
ENDBRANCH   9  10
ENDBRANCH   6   9
ENDBRANCH   2   3
BRANCH   2  16
ATOM     16  N   UNL     1      47.515   6.395  12.469  0.00  0.00    +0.000 N 
ATOM     17  C   UNL     1      46.381   6.742  11.782  0.00  0.00    +0.000 C 
ATOM     18  O   UNL     1      45.952   7.890  11.738  0.00  0.00    +0.000 OA
ATOM     19  H   UNL     1      47.754   5.419  12.581  0.00  0.00    +0.000 HD
BRANCH  17  20
ATOM     20  C   UNL     1      45.735   5.651  11.050  0.00  0.00    +0.000 A 
ATOM     21  C   UNL     1      45.855   5.580   9.666  0.00  0.00    +0.000 A 
ATOM     22  S   UNL     1      45.061   4.229   8.993  0.00  0.00    +0.000 S 
ATOM     23  C   UNL     1      44.496   3.724  10.519  0.00  0.00    +0.000 A 
ATOM     24  N   UNL     1      43.713   2.627  10.656  0.00  0.00    +0.000 NA
ATOM     25  C   UNL     1      43.334   2.384  11.862  0.00  0.00    +0.000 A 
ATOM     26  N   UNL     1      43.683   3.133  12.959  0.00  0.00    +0.000 N 
ATOM     27  C   UNL     1      44.527   4.209  12.883  0.00  0.00    +0.000 A 
ATOM     28  O   UNL     1      44.919   4.766  13.899  0.00  0.00    +0.000 OA
ATOM     29  C   UNL     1      44.941   4.558  11.535  0.00  0.00    +0.000 A 
ATOM     30  H   UNL     1      43.389   2.871  13.887  0.00  0.00    +0.000 HD
ENDBRANCH  17  20
ENDBRANCH   2  16
TORSDOF 5
ENDMDL
MODEL 8
REMARK VINA RESULT:    -7.089      2.857      4.867
REMARK INTER + INTRA:          -9.547
REMARK INTER:                 -10.184
REMARK INTRA:                   0.637
REMARK UNBOUND:                -0.386
REMARK  Name = 
REMARK  6 active torsions:
REMARK  status: ('A' for Active; 'I' for Inactive)
REMARK    1  A    between atoms: C_1  and  C_2
REMARK    2  A    between atoms: C_2  and  N_3
REMARK    3  A    between atoms: C_2  and  C_16
REMARK    4  A    between atoms: C_4  and  C_6
REMARK    5  A    between atoms: C_19  and  C_20
REMARK    6  A    between atoms: C_20  and  N_21
REMARK                            x       y       z     vdW  Elec       q    Type
REMARK                         _______ _______ _______ _____ _____    ______ ____
ROOT
ATOM      1  C   UNL     1      46.838   4.432  14.353  0.00  0.00    +0.000 C 
ATOM      2  C   UNL     1      45.957   5.405  13.564  0.00  0.00    +0.000 C 
ENDROOT
BRANCH   2   3
ATOM      3  C   UNL     1      45.649   4.849  12.182  0.00  0.00    +0.000 A 
ATOM      4  C   UNL     1      45.932   5.680  11.087  0.00  0.00    +0.000 A 
ATOM      5  C   UNL     1      45.558   5.325   9.791  0.00  0.00    +0.000 A 
ATOM      6  C   UNL     1      44.918   4.108   9.540  0.00  0.00    +0.000 A 
ATOM      7  C   UNL     1      44.689   3.241  10.617  0.00  0.00    +0.000 A 
ATOM      8  C   UNL     1      45.035   3.613  11.925  0.00  0.00    +0.000 A 
BRANCH   6   9
ATOM      9  C   UNL     1      44.413   3.775   8.149  0.00  0.00    +0.000 C 
BRANCH   9  10
ATOM     10  N   UNL     1      45.255   2.825   7.387  0.00  0.00    +0.000 NA
ATOM     11  C   UNL     1      46.286   3.544   6.624  0.00  0.00    +0.000 C 
ATOM     12  C   UNL     1      47.350   2.637   6.006  0.00  0.00    +0.000 C 
ATOM     13  C   UNL     1      47.965   1.718   7.047  0.00  0.00    +0.000 C 
ATOM     14  C   UNL     1      46.865   0.900   7.703  0.00  0.00    +0.000 C 
ATOM     15  C   UNL     1      45.781   1.797   8.302  0.00  0.00    +0.000 C 
ENDBRANCH   9  10
ENDBRANCH   6   9
ENDBRANCH   2   3
BRANCH   2  16
ATOM     16  N   UNL     1      46.550   6.718  13.537  0.00  0.00    +0.000 N 
ATOM     17  C   UNL     1      47.870   6.922  13.228  0.00  0.00    +0.000 C 
ATOM     18  O   UNL     1      48.651   6.006  12.996  0.00  0.00    +0.000 OA
ATOM     19  H   UNL     1      45.982   7.495  13.845  0.00  0.00    +0.000 HD
BRANCH  17  20
ATOM     20  C   UNL     1      48.283   8.325  13.141  0.00  0.00    +0.000 A 
ATOM     21  C   UNL     1      49.567   8.693  13.526  0.00  0.00    +0.000 A 
ATOM     22  S   UNL     1      49.873  10.359  13.327  0.00  0.00    +0.000 S 
ATOM     23  C   UNL     1      48.291  10.646  12.767  0.00  0.00    +0.000 A 
ATOM     24  N   UNL     1      47.870  11.892  12.441  0.00  0.00    +0.000 NA
ATOM     25  C   UNL     1      46.641  11.964  12.064  0.00  0.00    +0.000 A 
ATOM     26  N   UNL     1      45.788  10.891  11.964  0.00  0.00    +0.000 N 
ATOM     27  C   UNL     1      46.183   9.605  12.216  0.00  0.00    +0.000 A 
ATOM     28  O   UNL     1      45.434   8.667  11.986  0.00  0.00    +0.000 OA
ATOM     29  C   UNL     1      47.549   9.475  12.697  0.00  0.00    +0.000 A 
ATOM     30  H   UNL     1      44.846  11.002  11.625  0.00  0.00    +0.000 HD
ENDBRANCH  17  20
ENDBRANCH   2  16
TORSDOF 5
ENDMDL
MODEL 9
REMARK VINA RESULT:    -6.987      3.504      5.262
REMARK INTER + INTRA:          -9.415
REMARK INTER:                  -9.306
REMARK INTRA:                  -0.109
REMARK UNBOUND:                -0.386
REMARK  Name = 
REMARK  6 active torsions:
REMARK  status: ('A' for Active; 'I' for Inactive)
REMARK    1  A    between atoms: C_1  and  C_2
REMARK    2  A    between atoms: C_2  and  N_3
REMARK    3  A    between atoms: C_2  and  C_16
REMARK    4  A    between atoms: C_4  and  C_6
REMARK    5  A    between atoms: C_19  and  C_20
REMARK    6  A    between atoms: C_20  and  N_21
REMARK                            x       y       z     vdW  Elec       q    Type
REMARK                         _______ _______ _______ _____ _____    ______ ____
ROOT
ATOM      1  C   UNL     1      47.377   5.662  13.902  0.00  0.00    +0.000 C 
ATOM      2  C   UNL     1      46.438   6.408  12.950  0.00  0.00    +0.000 C 
ENDROOT
BRANCH   2   3
ATOM      3  C   UNL     1      45.750   5.436  12.003  0.00  0.00    +0.000 A 
ATOM      4  C   UNL     1      45.624   4.108  12.439  0.00  0.00    +0.000 A 
ATOM      5  C   UNL     1      45.140   3.110  11.594  0.00  0.00    +0.000 A 
ATOM      6  C   UNL     1      44.731   3.412  10.292  0.00  0.00    +0.000 A 
ATOM      7  C   UNL     1      44.791   4.746   9.868  0.00  0.00    +0.000 A 
ATOM      8  C   UNL     1      45.310   5.744  10.707  0.00  0.00    +0.000 A 
BRANCH   6   9
ATOM      9  C   UNL     1      44.311   2.308   9.340  0.00  0.00    +0.000 C 
BRANCH   9  10
ATOM     10  N   UNL     1      45.108   2.217   8.096  0.00  0.00    +0.000 NA
ATOM     11  C   UNL     1      45.617   3.541   7.708  0.00  0.00    +0.000 C 
ATOM     12  C   UNL     1      46.648   3.507   6.580  0.00  0.00    +0.000 C 
ATOM     13  C   UNL     1      47.780   2.544   6.896  0.00  0.00    +0.000 C 
ATOM     14  C   UNL     1      47.203   1.161   7.150  0.00  0.00    +0.000 C 
ATOM     15  C   UNL     1      46.150   1.188   8.259  0.00  0.00    +0.000 C 
ENDBRANCH   9  10
ENDBRANCH   6   9
ENDBRANCH   2   3
BRANCH   2  16
ATOM     16  N   UNL     1      47.141   7.469  12.273  0.00  0.00    +0.000 N 
ATOM     17  C   UNL     1      47.014   8.785  12.635  0.00  0.00    +0.000 C 
ATOM     18  O   UNL     1      46.264   9.161  13.530  0.00  0.00    +0.000 OA
ATOM     19  H   UNL     1      47.672   7.226  11.448  0.00  0.00    +0.000 HD
BRANCH  17  20
ATOM     20  C   UNL     1      47.880   9.719  11.914  0.00  0.00    +0.000 A 
ATOM     21  C   UNL     1      47.360  10.918  11.439  0.00  0.00    +0.000 A 
ATOM     22  S   UNL     1      48.522  11.886  10.651  0.00  0.00    +0.000 S 
ATOM     23  C   UNL     1      49.740  10.718  10.879  0.00  0.00    +0.000 A 
ATOM     24  N   UNL     1      50.997  10.904  10.408  0.00  0.00    +0.000 NA
ATOM     25  C   UNL     1      51.803   9.924  10.624  0.00  0.00    +0.000 A 
ATOM     26  N   UNL     1      51.472   8.769  11.290  0.00  0.00    +0.000 N 
ATOM     27  C   UNL     1      50.238   8.562  11.844  0.00  0.00    +0.000 A 
ATOM     28  O   UNL     1      50.025   7.581  12.543  0.00  0.00    +0.000 OA
ATOM     29  C   UNL     1      49.273   9.616  11.582  0.00  0.00    +0.000 A 
ATOM     30  H   UNL     1      52.158   8.051  11.466  0.00  0.00    +0.000 HD
ENDBRANCH  17  20
ENDBRANCH   2  16
TORSDOF 5
ENDMDL
