MODEL 1
REMARK VINA RESULT:    -7.495      0.000      0.000
REMARK INTER + INTRA:         -10.438
REMARK INTER:                  -9.686
REMARK INTRA:                  -0.752
REMARK UNBOUND:                -0.752
REMARK  Name = 
REMARK  5 active torsions:
REMARK  status: ('A' for Active; 'I' for Inactive)
REMARK    1  A    between atoms: C_2  and  C_4
REMARK    2  A    between atoms: C_8  and  C_9
REMARK    3  A    between atoms: C_9  and  O_10
REMARK    4  A    between atoms: O_10  and  C_11
REMARK    5  A    between atoms: C_15  and  N_16
REMARK                            x       y       z     vdW  Elec       q    Type
REMARK                         _______ _______ _______ _____ _____    ______ ____
ROOT
ATOM      1  O   UNL     1      44.775   6.303  11.835  0.00  0.00    +0.000 OA
ENDROOT
BRANCH   1   2
ATOM      2  C   UNL     1      44.518   5.041  11.377  0.00  0.00    +0.000 A 
ATOM      3  C   UNL     1      43.624   4.285  12.124  0.00  0.00    +0.000 A 
ATOM      4  C   UNL     1      43.349   2.971  11.747  0.00  0.00    +0.000 A 
ATOM      5  C   UNL     1      43.941   2.427  10.600  0.00  0.00    +0.000 A 
ATOM      6  C   UNL     1      44.795   3.188   9.795  0.00  0.00    +0.000 A 
ATOM      7  C   UNL     1      45.081   4.494  10.226  0.00  0.00    +0.000 A 
BRANCH   6   8
ATOM      8  N   UNL     1      45.391   2.720   8.638  0.00  0.00    +0.000 N 
ATOM      9  C   UNL     1      45.634   1.301   8.393  0.00  0.00    +0.000 C 
ATOM     10  C   UNL     1      46.979   1.164   7.669  0.00  0.00    +0.000 C 
ATOM     11  C   UNL     1      47.064   2.053   6.424  0.00  0.00    +0.000 C 
ATOM     12  C   UNL     1      46.679   3.498   6.737  0.00  0.00    +0.000 C 
ATOM     13  C   UNL     1      45.322   3.551   7.430  0.00  0.00    +0.000 C 
ENDBRANCH   6   8
ENDBRANCH   1   2
BRANCH   1  14
ATOM     14  C   UNL     1      46.090   6.798  11.559  0.00  0.00    +0.000 C 
BRANCH  14  19
ATOM     15  C   UNL     1      47.594   5.478  14.803  0.00  0.00    +0.000 A 
ATOM     16  C   UNL     1      48.522   6.478  15.109  0.00  0.00    +0.000 A 
ATOM     17  C   UNL     1      48.649   7.591  14.278  0.00  0.00    +0.000 A 
ATOM     18  C   UNL     1      47.862   7.699  13.134  0.00  0.00    +0.000 A 
ATOM     19  C   UNL     1      46.955   6.687  12.792  0.00  0.00    +0.000 A 
ATOM     20  C   UNL     1      46.814   5.582  13.646  0.00  0.00    +0.000 A 
BRANCH  15  22
ATOM     21  N   UNL     1      46.988   4.473  16.940  0.00  0.00    +0.000 N 
ATOM     22  C   UNL     1      47.425   4.275  15.660  0.00  0.00    +0.000 C 
ATOM     23  O   UNL     1      47.626   3.144  15.234  0.00  0.00    +0.000 OA
ATOM     24  H   UNL     1      46.789   3.637  17.478  0.00  0.00    +0.000 HD
ATOM     25  H   UNL     1      46.573   5.340  17.248  0.00  0.00    +0.000 HD
ENDBRANCH  15  22
ENDBRANCH  14  19
ENDBRANCH   1  14
TORSDOF 5
ENDMDL
MODEL 2
REMARK VINA RESULT:    -7.415      2.186      7.692
REMARK INTER + INTRA:         -10.335
REMARK INTER:                  -9.465
REMARK INTRA:                  -0.870
REMARK UNBOUND:                -0.752
REMARK  Name = 
REMARK  5 active torsions:
REMARK  status: ('A' for Active; 'I' for Inactive)
REMARK    1  A    between atoms: C_2  and  C_4
REMARK    2  A    between atoms: C_8  and  C_9
REMARK    3  A    between atoms: C_9  and  O_10
REMARK    4  A    between atoms: O_10  and  C_11
REMARK    5  A    between atoms: C_15  and  N_16
REMARK                            x       y       z     vdW  Elec       q    Type
REMARK                         _______ _______ _______ _____ _____    ______ ____
ROOT
ATOM      1  O   UNL     1      44.966   5.191  11.425  0.00  0.00    +0.000 OA
ENDROOT
BRANCH   1   2
ATOM      2  C   UNL     1      46.036   5.638  12.149  0.00  0.00    +0.000 A 
ATOM      3  C   UNL     1      46.814   6.623  11.554  0.00  0.00    +0.000 A 
ATOM      4  C   UNL     1      47.950   7.095  12.210  0.00  0.00    +0.000 A 
ATOM      5  C   UNL     1      48.286   6.606  13.480  0.00  0.00    +0.000 A 
ATOM      6  C   UNL     1      47.484   5.661  14.127  0.00  0.00    +0.000 A 
ATOM      7  C   UNL     1      46.370   5.179  13.421  0.00  0.00    +0.000 A 
BRANCH   6   8
ATOM      8  N   UNL     1      47.746   5.157  15.389  0.00  0.00    +0.000 N 
ATOM      9  C   UNL     1      47.551   3.752  15.734  0.00  0.00    +0.000 C 
ATOM     10  C   UNL     1      47.013   3.683  17.169  0.00  0.00    +0.000 C 
ATOM     11  C   UNL     1      47.880   4.471  18.156  0.00  0.00    +0.000 C 
ATOM     12  C   UNL     1      48.139   5.895  17.665  0.00  0.00    +0.000 C 
ATOM     13  C   UNL     1      48.696   5.877  16.246  0.00  0.00    +0.000 C 
ENDBRANCH   6   8
ENDBRANCH   1   2
BRANCH   1  14
ATOM     14  C   UNL     1      45.065   5.379  10.009  0.00  0.00    +0.000 C 
BRANCH  14  19
ATOM     15  C   UNL     1      46.328   2.789   7.514  0.00  0.00    +0.000 A 
ATOM     16  C   UNL     1      45.762   1.614   8.020  0.00  0.00    +0.000 A 
ATOM     17  C   UNL     1      44.955   1.660   9.155  0.00  0.00    +0.000 A 
ATOM     18  C   UNL     1      44.724   2.875   9.797  0.00  0.00    +0.000 A 
ATOM     19  C   UNL     1      45.315   4.056   9.327  0.00  0.00    +0.000 A 
ATOM     20  C   UNL     1      46.105   4.006   8.168  0.00  0.00    +0.000 A 
BRANCH  15  22
ATOM     21  N   UNL     1      48.537   2.614   6.498  0.00  0.00    +0.000 N 
ATOM     22  C   UNL     1      47.195   2.787   6.306  0.00  0.00    +0.000 C 
ATOM     23  O   UNL     1      46.730   2.892   5.177  0.00  0.00    +0.000 OA
ATOM     24  H   UNL     1      49.099   2.521   5.659  0.00  0.00    +0.000 HD
ATOM     25  H   UNL     1      48.926   2.274   7.364  0.00  0.00    +0.000 HD
ENDBRANCH  15  22
ENDBRANCH  14  19
ENDBRANCH   1  14
TORSDOF 5
ENDMDL
MODEL 3
REMARK VINA RESULT:    -7.267      2.644      3.673
REMARK INTER + INTRA:         -10.144
REMARK INTER:                  -9.327
REMARK INTRA:                  -0.817
REMARK UNBOUND:                -0.752
REMARK  Name = 
REMARK  5 active torsions:
REMARK  status: ('A' for Active; 'I' for Inactive)
REMARK    1  A    between atoms: C_2  and  C_4
REMARK    2  A    between atoms: C_8  and  C_9
REMARK    3  A    between atoms: C_9  and  O_10
REMARK    4  A    between atoms: O_10  and  C_11
REMARK    5  A    between atoms: C_15  and  N_16
REMARK                            x       y       z     vdW  Elec       q    Type
REMARK                         _______ _______ _______ _____ _____    ______ ____
ROOT
ATOM      1  O   UNL     1      44.539   6.416  11.671  0.00  0.00    +0.000 OA
ENDROOT
BRANCH   1   2
ATOM      2  C   UNL     1      44.383   5.116  11.279  0.00  0.00    +0.000 A 
ATOM      3  C   UNL     1      43.580   4.321  12.086  0.00  0.00    +0.000 A 
ATOM      4  C   UNL     1      43.413   2.972  11.779  0.00  0.00    +0.000 A 
ATOM      5  C   UNL     1      44.023   2.426  10.641  0.00  0.00    +0.000 A 
ATOM      6  C   UNL     1      44.785   3.220   9.777  0.00  0.00    +0.000 A 
ATOM      7  C   UNL     1      44.964   4.564  10.139  0.00  0.00    +0.000 A 
BRANCH   6   8
ATOM      8  N   UNL     1      45.392   2.749   8.626  0.00  0.00    +0.000 N 
ATOM      9  C   UNL     1      45.664   1.333   8.399  0.00  0.00    +0.000 C 
ATOM     10  C   UNL     1      47.012   1.216   7.677  0.00  0.00    +0.000 C 
ATOM     11  C   UNL     1      47.080   2.091   6.421  0.00  0.00    +0.000 C 
ATOM     12  C   UNL     1      46.665   3.531   6.716  0.00  0.00    +0.000 C 
ATOM     13  C   UNL     1      45.306   3.564   7.408  0.00  0.00    +0.000 C 
ENDBRANCH   6   8
ENDBRANCH   1   2
BRANCH   1  14
ATOM     14  C   UNL     1      45.417   6.618  12.784  0.00  0.00    +0.000 C 
BRANCH  14  19
ATOM     15  C   UNL     1      47.151   9.911  11.958  0.00  0.00    +0.000 A 
ATOM     16  C   UNL     1      48.460   9.483  11.713  0.00  0.00    +0.000 A 
ATOM     17  C   UNL     1      48.780   8.129  11.794  0.00  0.00    +0.000 A 
ATOM     18  C   UNL     1      47.799   7.201  12.135  0.00  0.00    +0.000 A 
ATOM     19  C   UNL     1      46.491   7.616  12.422  0.00  0.00    +0.000 A 
ATOM     20  C   UNL     1      46.170   8.978  12.314  0.00  0.00    +0.000 A 
BRANCH  15  22
ATOM     21  N   UNL     1      45.467  11.660  12.164  0.00  0.00    +0.000 N 
ATOM     22  C   UNL     1      46.766  11.344  11.882  0.00  0.00    +0.000 C 
ATOM     23  O   UNL     1      47.583  12.220  11.622  0.00  0.00    +0.000 OA
ATOM     24  H   UNL     1      45.245  12.649  12.200  0.00  0.00    +0.000 HD
ATOM     25  H   UNL     1      44.835  11.021  12.623  0.00  0.00    +0.000 HD
ENDBRANCH  15  22
ENDBRANCH  14  19
ENDBRANCH   1  14
TORSDOF 5
ENDMDL
MODEL 4
REMARK VINA RESULT:    -7.257      2.631      7.182
REMARK INTER + INTRA:         -10.130
REMARK INTER:                  -9.184
REMARK INTRA:                  -0.946
REMARK UNBOUND:                -0.752
REMARK  Name = 
REMARK  5 active torsions:
REMARK  status: ('A' for Active; 'I' for Inactive)
REMARK    1  A    between atoms: C_2  and  C_4
REMARK    2  A    between atoms: C_8  and  C_9
REMARK    3  A    between atoms: C_9  and  O_10
REMARK    4  A    between atoms: O_10  and  C_11
REMARK    5  A    between atoms: C_15  and  N_16
REMARK                            x       y       z     vdW  Elec       q    Type
REMARK                         _______ _______ _______ _____ _____    ______ ____
ROOT
ATOM      1  O   UNL     1      44.441   5.165  11.045  0.00  0.00    +0.000 OA
ENDROOT
BRANCH   1   2
ATOM      2  C   UNL     1      45.502   5.401  11.875  0.00  0.00    +0.000 A 
ATOM      3  C   UNL     1      45.694   4.488  12.904  0.00  0.00    +0.000 A 
ATOM      4  C   UNL     1      46.725   4.688  13.820  0.00  0.00    +0.000 A 
ATOM      5  C   UNL     1      47.588   5.785  13.684  0.00  0.00    +0.000 A 
ATOM      6  C   UNL     1      47.454   6.683  12.621  0.00  0.00    +0.000 A 
ATOM      7  C   UNL     1      46.381   6.474  11.740  0.00  0.00    +0.000 A 
BRANCH   6   8
ATOM      8  N   UNL     1      48.286   7.770  12.416  0.00  0.00    +0.000 N 
ATOM      9  C   UNL     1      47.828   9.150  12.546  0.00  0.00    +0.000 C 
ATOM     10  C   UNL     1      48.517   9.987  11.461  0.00  0.00    +0.000 C 
ATOM     11  C   UNL     1      50.039   9.812  11.469  0.00  0.00    +0.000 C 
ATOM     12  C   UNL     1      50.437   8.337  11.452  0.00  0.00    +0.000 C 
ATOM     13  C   UNL     1      49.733   7.582  12.574  0.00  0.00    +0.000 C 
ENDBRANCH   6   8
ENDBRANCH   1   2
BRANCH   1  14
ATOM     14  C   UNL     1      44.719   5.295   9.646  0.00  0.00    +0.000 C 
BRANCH  14  19
ATOM     15  C   UNL     1      46.405   2.698   7.423  0.00  0.00    +0.000 A 
ATOM     16  C   UNL     1      45.939   1.504   7.984  0.00  0.00    +0.000 A 
ATOM     17  C   UNL     1      45.063   1.537   9.068  0.00  0.00    +0.000 A 
ATOM     18  C   UNL     1      44.664   2.759   9.604  0.00  0.00    +0.000 A 
ATOM     19  C   UNL     1      45.152   3.964   9.079  0.00  0.00    +0.000 A 
ATOM     20  C   UNL     1      46.013   3.924   7.972  0.00  0.00    +0.000 A 
BRANCH  15  22
ATOM     21  N   UNL     1      48.598   2.217   6.473  0.00  0.00    +0.000 N 
ATOM     22  C   UNL     1      47.340   2.710   6.268  0.00  0.00    +0.000 C 
ATOM     23  O   UNL     1      46.994   3.103   5.160  0.00  0.00    +0.000 OA
ATOM     24  H   UNL     1      49.189   2.145   5.653  0.00  0.00    +0.000 HD
ATOM     25  H   UNL     1      48.842   1.658   7.278  0.00  0.00    +0.000 HD
ENDBRANCH  15  22
ENDBRANCH  14  19
ENDBRANCH   1  14
TORSDOF 5
ENDMDL
MODEL 5
REMARK VINA RESULT:    -7.203      1.781      2.091
REMARK INTER + INTRA:         -10.061
REMARK INTER:                  -9.189
REMARK INTRA:                  -0.873
REMARK UNBOUND:                -0.752
REMARK  Name = 
REMARK  5 active torsions:
REMARK  status: ('A' for Active; 'I' for Inactive)
REMARK    1  A    between atoms: C_2  and  C_4
REMARK    2  A    between atoms: C_8  and  C_9
REMARK    3  A    between atoms: C_9  and  O_10
REMARK    4  A    between atoms: O_10  and  C_11
REMARK    5  A    between atoms: C_15  and  N_16
REMARK                            x       y       z     vdW  Elec       q    Type
REMARK                         _______ _______ _______ _____ _____    ______ ____
ROOT
ATOM      1  O   UNL     1      45.117   6.512  11.631  0.00  0.00    +0.000 OA
ENDROOT
BRANCH   1   2
ATOM      2  C   UNL     1      44.769   5.257  11.212  0.00  0.00    +0.000 A 
ATOM      3  C   UNL     1      43.818   4.594  11.977  0.00  0.00    +0.000 A 
ATOM      4  C   UNL     1      43.448   3.294  11.641  0.00  0.00    +0.000 A 
ATOM      5  C   UNL     1      44.004   2.669  10.517  0.00  0.00    +0.000 A 
ATOM      6  C   UNL     1      44.917   3.338   9.695  0.00  0.00    +0.000 A 
ATOM      7  C   UNL     1      45.297   4.632  10.084  0.00  0.00    +0.000 A 
BRANCH   6   8
ATOM      8  N   UNL     1      45.483   2.788   8.558  0.00  0.00    +0.000 N 
ATOM      9  C   UNL     1      45.674   1.351   8.387  0.00  0.00    +0.000 C 
ATOM     10  C   UNL     1      47.005   1.128   7.658  0.00  0.00    +0.000 C 
ATOM     11  C   UNL     1      47.107   1.946   6.367  0.00  0.00    +0.000 C 
ATOM     12  C   UNL     1      46.776   3.419   6.607  0.00  0.00    +0.000 C 
ATOM     13  C   UNL     1      45.430   3.556   7.309  0.00  0.00    +0.000 C 
ENDBRANCH   6   8
ENDBRANCH   1   2
BRANCH   1  14
ATOM     14  C   UNL     1      45.722   6.577  12.927  0.00  0.00    +0.000 C 
BRANCH  14  19
ATOM     15  C   UNL     1      49.358   7.282  13.828  0.00  0.00    +0.000 A 
ATOM     16  C   UNL     1      49.876   7.698  12.597  0.00  0.00    +0.000 A 
ATOM     17  C   UNL     1      49.046   7.771  11.480  0.00  0.00    +0.000 A 
ATOM     18  C   UNL     1      47.704   7.415  11.584  0.00  0.00    +0.000 A 
ATOM     19  C   UNL     1      47.178   6.958  12.800  0.00  0.00    +0.000 A 
ATOM     20  C   UNL     1      48.012   6.911  13.927  0.00  0.00    +0.000 A 
BRANCH  15  22
ATOM     21  N   UNL     1      51.150   8.160  15.228  0.00  0.00    +0.000 N 
ATOM     22  C   UNL     1      50.206   7.189  15.046  0.00  0.00    +0.000 C 
ATOM     23  O   UNL     1      50.045   6.306  15.880  0.00  0.00    +0.000 OA
ATOM     24  H   UNL     1      51.654   8.134  16.108  0.00  0.00    +0.000 HD
ATOM     25  H   UNL     1      51.148   9.029  14.715  0.00  0.00    +0.000 HD
ENDBRANCH  15  22
ENDBRANCH  14  19
ENDBRANCH   1  14
TORSDOF 5
ENDMDL
MODEL 6
REMARK VINA RESULT:    -7.149      2.329      3.000
REMARK INTER + INTRA:          -9.991
REMARK INTER:                  -9.116
REMARK INTRA:                  -0.875
REMARK UNBOUND:                -0.752
REMARK  Name = 
REMARK  5 active torsions:
REMARK  status: ('A' for Active; 'I' for Inactive)
REMARK    1  A    between atoms: C_2  and  C_4
REMARK    2  A    between atoms: C_8  and  C_9
REMARK    3  A    between atoms: C_9  and  O_10
REMARK    4  A    between atoms: O_10  and  C_11
REMARK    5  A    between atoms: C_15  and  N_16
REMARK                            x       y       z     vdW  Elec       q    Type
REMARK                         _______ _______ _______ _____ _____    ______ ____
ROOT
ATOM      1  O   UNL     1      45.289   6.287  12.797  0.00  0.00    +0.000 OA
ENDROOT
BRANCH   1   2
ATOM      2  C   UNL     1      44.813   5.151  12.203  0.00  0.00    +0.000 A 
ATOM      3  C   UNL     1      43.820   4.466  12.891  0.00  0.00    +0.000 A 
ATOM      4  C   UNL     1      43.321   3.273  12.372  0.00  0.00    +0.000 A 
ATOM      5  C   UNL     1      43.789   2.784  11.145  0.00  0.00    +0.000 A 
ATOM      6  C   UNL     1      44.743   3.488  10.403  0.00  0.00    +0.000 A 
ATOM      7  C   UNL     1      45.253   4.665  10.973  0.00  0.00    +0.000 A 
BRANCH   6   8
ATOM      8  N   UNL     1      45.228   3.075   9.175  0.00  0.00    +0.000 N 
ATOM      9  C   UNL     1      45.233   1.676   8.758  0.00  0.00    +0.000 C 
ATOM     10  C   UNL     1      46.521   1.417   7.966  0.00  0.00    +0.000 C 
ATOM     11  C   UNL     1      46.719   2.425   6.830  0.00  0.00    +0.000 C 
ATOM     12  C   UNL     1      46.580   3.865   7.323  0.00  0.00    +0.000 C 
ATOM     13  C   UNL     1      45.266   4.046   8.075  0.00  0.00    +0.000 C 
ENDBRANCH   6   8
ENDBRANCH   1   2
BRANCH   1  14
ATOM     14  C   UNL     1      44.938   7.512  12.143  0.00  0.00    +0.000 C 
BRANCH  14  19
ATOM     15  C   UNL     1      48.570   8.659  12.005  0.00  0.00    +0.000 A 
ATOM     16  C   UNL     1      48.422  10.042  11.854  0.00  0.00    +0.000 A 
ATOM     17  C   UNL     1      47.148  10.607  11.817  0.00  0.00    +0.000 A 
ATOM     18  C   UNL     1      46.022   9.794  11.915  0.00  0.00    +0.000 A 
ATOM     19  C   UNL     1      46.152   8.403  12.028  0.00  0.00    +0.000 A 
ATOM     20  C   UNL     1      47.437   7.843  12.089  0.00  0.00    +0.000 A 
BRANCH  15  22
ATOM     21  N   UNL     1      50.272   7.403  13.216  0.00  0.00    +0.000 N 
ATOM     22  C   UNL     1      49.909   8.014  12.049  0.00  0.00    +0.000 C 
ATOM     23  O   UNL     1      50.646   7.988  11.071  0.00  0.00    +0.000 OA
ATOM     24  H   UNL     1      51.146   6.888  13.197  0.00  0.00    +0.000 HD
ATOM     25  H   UNL     1      49.612   7.180  13.945  0.00  0.00    +0.000 HD
ENDBRANCH  15  22
ENDBRANCH  14  19
ENDBRANCH   1  14
TORSDOF 5
ENDMDL
MODEL 7
REMARK VINA RESULT:    -6.949      2.088      3.031
REMARK INTER + INTRA:          -9.733
REMARK INTER:                  -9.102
REMARK INTRA:                  -0.631
REMARK UNBOUND:                -0.752
REMARK  Name = 
REMARK  5 active torsions:
REMARK  status: ('A' for Active; 'I' for Inactive)
REMARK    1  A    between atoms: C_2  and  C_4
REMARK    2  A    between atoms: C_8  and  C_9
REMARK    3  A    between atoms: C_9  and  O_10
REMARK    4  A    between atoms: O_10  and  C_11
REMARK    5  A    between atoms: C_15  and  N_16
REMARK                            x       y       z     vdW  Elec       q    Type
REMARK                         _______ _______ _______ _____ _____    ______ ____
ROOT
ATOM      1  O   UNL     1      45.530   4.279  14.126  0.00  0.00    +0.000 OA
ENDROOT
BRANCH   1   2
ATOM      2  C   UNL     1      44.885   4.457  12.934  0.00  0.00    +0.000 A 
ATOM      3  C   UNL     1      43.764   5.276  12.956  0.00  0.00    +0.000 A 
ATOM      4  C   UNL     1      43.025   5.466  11.790  0.00  0.00    +0.000 A 
ATOM      5  C   UNL     1      43.431   4.864  10.591  0.00  0.00    +0.000 A 
ATOM      6  C   UNL     1      44.591   4.086  10.528  0.00  0.00    +0.000 A 
ATOM      7  C   UNL     1      45.289   3.884  11.730  0.00  0.00    +0.000 A 
BRANCH   6   8
ATOM      8  N   UNL     1      45.060   3.486   9.373  0.00  0.00    +0.000 N 
ATOM      9  C   UNL     1      44.813   2.082   9.057  0.00  0.00    +0.000 C 
ATOM     10  C   UNL     1      46.071   1.515   8.386  0.00  0.00    +0.000 C 
ATOM     11  C   UNL     1      46.535   2.367   7.201  0.00  0.00    +0.000 C 
ATOM     12  C   UNL     1      46.654   3.843   7.581  0.00  0.00    +0.000 C 
ATOM     13  C   UNL     1      45.358   4.336   8.214  0.00  0.00    +0.000 C 
ENDBRANCH   6   8
ENDBRANCH   1   2
BRANCH   1  14
ATOM     14  C   UNL     1      46.953   4.431  14.081  0.00  0.00    +0.000 C 
BRANCH  14  19
ATOM     15  C   UNL     1      48.475   5.528  17.398  0.00  0.00    +0.000 A 
ATOM     16  C   UNL     1      48.624   4.303  18.057  0.00  0.00    +0.000 A 
ATOM     17  C   UNL     1      48.252   3.120  17.422  0.00  0.00    +0.000 A 
ATOM     18  C   UNL     1      47.716   3.157  16.137  0.00  0.00    +0.000 A 
ATOM     19  C   UNL     1      47.524   4.378  15.477  0.00  0.00    +0.000 A 
ATOM     20  C   UNL     1      47.924   5.564  16.112  0.00  0.00    +0.000 A 
BRANCH  15  22
ATOM     21  N   UNL     1      48.041   7.889  17.823  0.00  0.00    +0.000 N 
ATOM     22  C   UNL     1      48.858   6.815  18.037  0.00  0.00    +0.000 C 
ATOM     23  O   UNL     1      49.842   6.909  18.762  0.00  0.00    +0.000 OA
ATOM     24  H   UNL     1      48.265   8.731  18.342  0.00  0.00    +0.000 HD
ATOM     25  H   UNL     1      47.105   7.800  17.456  0.00  0.00    +0.000 HD
ENDBRANCH  15  22
ENDBRANCH  14  19
ENDBRANCH   1  14
TORSDOF 5
ENDMDL
MODEL 8
REMARK VINA RESULT:    -6.842      3.208      8.791
REMARK INTER + INTRA:          -9.595
REMARK INTER:                  -8.921
REMARK INTRA:                  -0.673
REMARK UNBOUND:                -0.752
REMARK  Name = 
REMARK  5 active torsions:
REMARK  status: ('A' for Active; 'I' for Inactive)
REMARK    1  A    between atoms: C_2  and  C_4
REMARK    2  A    between atoms: C_8  and  C_9
REMARK    3  A    between atoms: C_9  and  O_10
REMARK    4  A    between atoms: O_10  and  C_11
REMARK    5  A    between atoms: C_15  and  N_16
REMARK                            x       y       z     vdW  Elec       q    Type
REMARK                         _______ _______ _______ _____ _____    ______ ____
ROOT
ATOM      1  O   UNL     1      46.549   4.266  15.151  0.00  0.00    +0.000 OA
ENDROOT
BRANCH   1   2
ATOM      2  C   UNL     1      47.371   3.973  16.204  0.00  0.00    +0.000 A 
ATOM      3  C   UNL     1      48.180   2.853  16.061  0.00  0.00    +0.000 A 
ATOM      4  C   UNL     1      49.008   2.462  17.111  0.00  0.00    +0.000 A 
ATOM      5  C   UNL     1      49.054   3.215  18.292  0.00  0.00    +0.000 A 
ATOM      6  C   UNL     1      48.297   4.382  18.437  0.00  0.00    +0.000 A 
ATOM      7  C   UNL     1      47.444   4.724  17.375  0.00  0.00    +0.000 A 
BRANCH   6   8
ATOM      8  N   UNL     1      48.315   5.183  19.565  0.00  0.00    +0.000 N 
ATOM      9  C   UNL     1      48.645   4.670  20.892  0.00  0.00    +0.000 C 
ATOM     10  C   UNL     1      47.748   5.379  21.915  0.00  0.00    +0.000 C 
ATOM     11  C   UNL     1      47.805   6.904  21.784  0.00  0.00    +0.000 C 
ATOM     12  C   UNL     1      47.569   7.355  20.343  0.00  0.00    +0.000 C 
ATOM     13  C   UNL     1      48.515   6.627  19.394  0.00  0.00    +0.000 C 
ENDBRANCH   6   8
ENDBRANCH   1   2
BRANCH   1  14
ATOM     14  C   UNL     1      47.145   5.048  14.110  0.00  0.00    +0.000 C 
BRANCH  14  19
ATOM     15  C   UNL     1      44.671   4.038  11.391  0.00  0.00    +0.000 A 
ATOM     16  C   UNL     1      44.503   5.245  10.703  0.00  0.00    +0.000 A 
ATOM     17  C   UNL     1      45.205   6.381  11.104  0.00  0.00    +0.000 A 
ATOM     18  C   UNL     1      46.062   6.319  12.201  0.00  0.00    +0.000 A 
ATOM     19  C   UNL     1      46.212   5.129  12.925  0.00  0.00    +0.000 A 
ATOM     20  C   UNL     1      45.523   3.983  12.501  0.00  0.00    +0.000 A 
BRANCH  15  22
ATOM     21  N   UNL     1      44.410   2.120   9.910  0.00  0.00    +0.000 N 
ATOM     22  C   UNL     1      43.944   2.803  10.998  0.00  0.00    +0.000 C 
ATOM     23  O   UNL     1      42.990   2.382  11.642  0.00  0.00    +0.000 OA
ATOM     24  H   UNL     1      43.961   1.231   9.715  0.00  0.00    +0.000 HD
ATOM     25  H   UNL     1      45.324   2.281   9.513  0.00  0.00    +0.000 HD
ENDBRANCH  15  22
ENDBRANCH  14  19
ENDBRANCH   1  14
TORSDOF 5
ENDMDL
MODEL 9
REMARK VINA RESULT:    -6.684      1.978      7.416
REMARK INTER + INTRA:          -9.390
REMARK INTER:                  -8.515
REMARK INTRA:                  -0.874
REMARK UNBOUND:                -0.752
REMARK  Name = 
REMARK  5 active torsions:
REMARK  status: ('A' for Active; 'I' for Inactive)
REMARK    1  A    between atoms: C_2  and  C_4
REMARK    2  A    between atoms: C_8  and  C_9
REMARK    3  A    between atoms: C_9  and  O_10
REMARK    4  A    between atoms: O_10  and  C_11
REMARK    5  A    between atoms: C_15  and  N_16
REMARK                            x       y       z     vdW  Elec       q    Type
REMARK                         _______ _______ _______ _____ _____    ______ ____
ROOT
ATOM      1  O   UNL     1      47.098   6.764  11.753  0.00  0.00    +0.000 OA
ENDROOT
BRANCH   1   2
ATOM      2  C   UNL     1      47.844   6.866  12.895  0.00  0.00    +0.000 A 
ATOM      3  C   UNL     1      48.815   7.859  12.910  0.00  0.00    +0.000 A 
ATOM      4  C   UNL     1      49.648   7.991  14.019  0.00  0.00    +0.000 A 
ATOM      5  C   UNL     1      49.484   7.153  15.130  0.00  0.00    +0.000 A 
ATOM      6  C   UNL     1      48.473   6.187  15.165  0.00  0.00    +0.000 A 
ATOM      7  C   UNL     1      47.678   6.055  14.016  0.00  0.00    +0.000 A 
BRANCH   6   8
ATOM      8  N   UNL     1      48.242   5.346  16.239  0.00  0.00    +0.000 N 
ATOM      9  C   UNL     1      48.506   5.739  17.620  0.00  0.00    +0.000 C 
ATOM     10  C   UNL     1      49.054   4.517  18.369  0.00  0.00    +0.000 C 
ATOM     11  C   UNL     1      48.156   3.286  18.212  0.00  0.00    +0.000 C 
ATOM     12  C   UNL     1      47.827   3.011  16.745  0.00  0.00    +0.000 C 
ATOM     13  C   UNL     1      47.264   4.263  16.082  0.00  0.00    +0.000 C 
ENDBRANCH   6   8
ENDBRANCH   1   2
BRANCH   1  14
ATOM     14  C   UNL     1      45.689   6.953  11.925  0.00  0.00    +0.000 C 
BRANCH  14  19
ATOM     15  C   UNL     1      44.420   3.664  10.474  0.00  0.00    +0.000 A 
ATOM     16  C   UNL     1      43.615   3.191  11.516  0.00  0.00    +0.000 A 
ATOM     17  C   UNL     1      43.464   3.944  12.679  0.00  0.00    +0.000 A 
ATOM     18  C   UNL     1      44.129   5.160  12.813  0.00  0.00    +0.000 A 
ATOM     19  C   UNL     1      44.970   5.631  11.796  0.00  0.00    +0.000 A 
ATOM     20  C   UNL     1      45.097   4.881  10.616  0.00  0.00    +0.000 A 
BRANCH  15  22
ATOM     21  N   UNL     1      44.281   3.518   8.045  0.00  0.00    +0.000 N 
ATOM     22  C   UNL     1      44.609   2.895   9.217  0.00  0.00    +0.000 C 
ATOM     23  O   UNL     1      45.080   1.764   9.215  0.00  0.00    +0.000 OA
ATOM     24  H   UNL     1      44.505   3.015   7.194  0.00  0.00    +0.000 HD
ATOM     25  H   UNL     1      44.137   4.514   7.977  0.00  0.00    +0.000 HD
ENDBRANCH  15  22
ENDBRANCH  14  19
ENDBRANCH   1  14
TORSDOF 5
ENDMDL
