MODEL 1
REMARK VINA RESULT:    -8.709      0.000      0.000
REMARK INTER + INTRA:         -12.425
REMARK INTER:                 -11.763
REMARK INTRA:                  -0.661
REMARK UNBOUND:                -0.661
REMARK  Name = 
REMARK  7 active torsions:
REMARK  status: ('A' for Active; 'I' for Inactive)
REMARK    1  A    between atoms: C_1  and  C_2
REMARK    2  A    between atoms: C_7  and  N_8
REMARK    3  A    between atoms: N_8  and  C_9
REMARK    4  A    between atoms: C_9  and  C_10
REMARK    5  A    between atoms: C_13  and  C_14
REMARK    6  A    between atoms: C_14  and  N_15
REMARK    7  A    between atoms: C_16  and  C_18
REMARK                            x       y       z     vdW  Elec       q    Type
REMARK                         _______ _______ _______ _____ _____    ______ ____
ROOT
ATOM      1  C   UNL     1      44.779   4.023  10.554  0.00  0.00    +0.000 A 
ATOM      2  C   UNL     1      44.632   4.045  11.946  0.00  0.00    +0.000 A 
ATOM      3  C   UNL     1      45.102   5.130  12.692  0.00  0.00    +0.000 A 
ATOM      4  C   UNL     1      45.738   6.217  12.070  0.00  0.00    +0.000 A 
ATOM      5  C   UNL     1      45.889   6.188  10.677  0.00  0.00    +0.000 A 
ATOM      6  C   UNL     1      45.412   5.110   9.931  0.00  0.00    +0.000 A 
ENDROOT
BRANCH   1   7
ATOM      7  C   UNL     1      44.336   2.848   9.714  0.00  0.00    +0.000 C 
BRANCH   7   8
ATOM      8  N   UNL     1      45.432   2.004   9.283  0.00  0.00    +0.000 N 
ATOM      9  H   UNL     1      46.054   1.700  10.024  0.00  0.00    +0.000 HD
BRANCH   8  16
ATOM     10  C   UNL     1      46.788  -0.380   7.803  0.00  0.00    +0.000 C 
ATOM     11  C   UNL     1      46.739   1.055   7.352  0.00  0.00    +0.000 A 
ATOM     12  C   UNL     1      47.418   1.345   6.146  0.00  0.00    +0.000 A 
ATOM     13  C   UNL     1      47.442   2.628   5.610  0.00  0.00    +0.000 A 
ATOM     14  C   UNL     1      46.780   3.651   6.267  0.00  0.00    +0.000 A 
ATOM     15  C   UNL     1      46.104   3.379   7.461  0.00  0.00    +0.000 A 
ATOM     16  C   UNL     1      46.053   2.086   8.033  0.00  0.00    +0.000 A 
ENDBRANCH   8  16
ENDBRANCH   7   8
ENDBRANCH   1   7
BRANCH   4  17
ATOM     17  C   UNL     1      46.277   7.389  12.858  0.00  0.00    +0.000 C 
BRANCH  17  18
ATOM     18  N   UNL     1      46.910   6.959  14.072  0.00  0.00    +0.000 N 
ATOM     19  C   UNL     1      48.222   6.527  14.105  0.00  0.00    +0.000 C 
ATOM     20  O   UNL     1      48.935   6.485  13.116  0.00  0.00    +0.000 OA
ATOM     21  H   UNL     1      46.301   6.607  14.796  0.00  0.00    +0.000 HD
BRANCH  19  22
ATOM     22  C   UNL     1      48.718   6.183  15.446  0.00  0.00    +0.000 A 
ATOM     23  C   UNL     1      49.675   6.984  16.053  0.00  0.00    +0.000 A 
ATOM     24  S   UNL     1      50.107   6.458  17.619  0.00  0.00    +0.000 S 
ATOM     25  C   UNL     1      49.052   5.125  17.526  0.00  0.00    +0.000 A 
ATOM     26  N   UNL     1      48.955   4.231  18.546  0.00  0.00    +0.000 NA
ATOM     27  C   UNL     1      48.132   3.260  18.331  0.00  0.00    +0.000 A 
ATOM     28  N   UNL     1      47.385   3.105  17.192  0.00  0.00    +0.000 N 
ATOM     29  C   UNL     1      47.413   4.007  16.161  0.00  0.00    +0.000 A 
ATOM     30  O   UNL     1      46.667   3.892  15.191  0.00  0.00    +0.000 OA
ATOM     31  C   UNL     1      48.353   5.100  16.332  0.00  0.00    +0.000 A 
ATOM     32  H   UNL     1      46.736   2.338  17.097  0.00  0.00    +0.000 HD
ENDBRANCH  19  22
ENDBRANCH  17  18
ENDBRANCH   4  17
TORSDOF 6
ENDMDL
MODEL 2
REMARK VINA RESULT:    -8.654      1.035      1.619
REMARK INTER + INTRA:         -12.351
REMARK INTER:                 -11.414
REMARK INTRA:                  -0.938
REMARK UNBOUND:                -0.661
REMARK  Name = 
REMARK  7 active torsions:
REMARK  status: ('A' for Active; 'I' for Inactive)
REMARK    1  A    between atoms: C_1  and  C_2
REMARK    2  A    between atoms: C_7  and  N_8
REMARK    3  A    between atoms: N_8  and  C_9
REMARK    4  A    between atoms: C_9  and  C_10
REMARK    5  A    between atoms: C_13  and  C_14
REMARK    6  A    between atoms: C_14  and  N_15
REMARK    7  A    between atoms: C_16  and  C_18
REMARK                            x       y       z     vdW  Elec       q    Type
REMARK                         _______ _______ _______ _____ _____    ______ ____
ROOT
ATOM      1  C   UNL     1      44.909   5.443  10.742  0.00  0.00    +0.000 A 
ATOM      2  C   UNL     1      46.166   5.950  10.390  0.00  0.00    +0.000 A 
ATOM      3  C   UNL     1      46.858   6.798  11.261  0.00  0.00    +0.000 A 
ATOM      4  C   UNL     1      46.311   7.169  12.500  0.00  0.00    +0.000 A 
ATOM      5  C   UNL     1      45.049   6.665  12.845  0.00  0.00    +0.000 A 
ATOM      6  C   UNL     1      44.362   5.811  11.982  0.00  0.00    +0.000 A 
ENDROOT
BRANCH   1   7
ATOM      7  C   UNL     1      44.102   4.569   9.811  0.00  0.00    +0.000 C 
BRANCH   7   8
ATOM      8  N   UNL     1      44.670   4.467   8.482  0.00  0.00    +0.000 N 
ATOM      9  H   UNL     1      44.103   4.871   7.744  0.00  0.00    +0.000 HD
BRANCH   8  16
ATOM     10  C   UNL     1      44.329   1.478   9.291  0.00  0.00    +0.000 C 
ATOM     11  C   UNL     1      45.419   2.065   8.437  0.00  0.00    +0.000 A 
ATOM     12  C   UNL     1      46.409   1.158   7.992  0.00  0.00    +0.000 A 
ATOM     13  C   UNL     1      47.467   1.566   7.187  0.00  0.00    +0.000 A 
ATOM     14  C   UNL     1      47.554   2.893   6.801  0.00  0.00    +0.000 A 
ATOM     15  C   UNL     1      46.582   3.800   7.232  0.00  0.00    +0.000 A 
ATOM     16  C   UNL     1      45.489   3.422   8.047  0.00  0.00    +0.000 A 
ENDBRANCH   8  16
ENDBRANCH   7   8
ENDBRANCH   1   7
BRANCH   4  17
ATOM     17  C   UNL     1      47.029   8.104  13.446  0.00  0.00    +0.000 C 
BRANCH  17  18
ATOM     18  N   UNL     1      47.497   7.413  14.613  0.00  0.00    +0.000 N 
ATOM     19  C   UNL     1      48.756   6.846  14.677  0.00  0.00    +0.000 C 
ATOM     20  O   UNL     1      49.557   6.895  13.759  0.00  0.00    +0.000 OA
ATOM     21  H   UNL     1      46.790   7.010  15.211  0.00  0.00    +0.000 HD
BRANCH  19  22
ATOM     22  C   UNL     1      49.083   6.232  15.973  0.00  0.00    +0.000 A 
ATOM     23  C   UNL     1      50.073   6.789  16.769  0.00  0.00    +0.000 A 
ATOM     24  S   UNL     1      50.295   5.971  18.251  0.00  0.00    +0.000 S 
ATOM     25  C   UNL     1      49.095   4.827  17.867  0.00  0.00    +0.000 A 
ATOM     26  N   UNL     1      48.796   3.807  18.714  0.00  0.00    +0.000 NA
ATOM     27  C   UNL     1      47.881   3.004  18.285  0.00  0.00    +0.000 A 
ATOM     28  N   UNL     1      47.226   3.132  17.088  0.00  0.00    +0.000 N 
ATOM     29  C   UNL     1      47.458   4.172  16.226  0.00  0.00    +0.000 A 
ATOM     30  O   UNL     1      46.793   4.313  15.202  0.00  0.00    +0.000 OA
ATOM     31  C   UNL     1      48.508   5.085  16.640  0.00  0.00    +0.000 A 
ATOM     32  H   UNL     1      46.497   2.486  16.823  0.00  0.00    +0.000 HD
ENDBRANCH  19  22
ENDBRANCH  17  18
ENDBRANCH   4  17
TORSDOF 6
ENDMDL
MODEL 3
REMARK VINA RESULT:    -8.388      0.919      1.804
REMARK INTER + INTRA:         -11.992
REMARK INTER:                 -11.058
REMARK INTRA:                  -0.934
REMARK UNBOUND:                -0.661
REMARK  Name = 
REMARK  7 active torsions:
REMARK  status: ('A' for Active; 'I' for Inactive)
REMARK    1  A    between atoms: C_1  and  C_2
REMARK    2  A    between atoms: C_7  and  N_8
REMARK    3  A    between atoms: N_8  and  C_9
REMARK    4  A    between atoms: C_9  and  C_10
REMARK    5  A    between atoms: C_13  and  C_14
REMARK    6  A    between atoms: C_14  and  N_15
REMARK    7  A    between atoms: C_16  and  C_18
REMARK                            x       y       z     vdW  Elec       q    Type
REMARK                         _______ _______ _______ _____ _____    ______ ____
ROOT
ATOM      1  C   UNL     1      44.948   4.096  11.148  0.00  0.00    +0.000 A 
ATOM      2  C   UNL     1      45.099   5.329  10.499  0.00  0.00    +0.000 A 
ATOM      3  C   UNL     1      45.772   6.382  11.125  0.00  0.00    +0.000 A 
ATOM      4  C   UNL     1      46.305   6.237  12.417  0.00  0.00    +0.000 A 
ATOM      5  C   UNL     1      46.146   5.005  13.065  0.00  0.00    +0.000 A 
ATOM      6  C   UNL     1      45.483   3.950  12.437  0.00  0.00    +0.000 A 
ENDROOT
BRANCH   1   7
ATOM      7  C   UNL     1      44.182   2.949  10.532  0.00  0.00    +0.000 C 
BRANCH   7   8
ATOM      8  N   UNL     1      44.331   2.864   9.093  0.00  0.00    +0.000 N 
ATOM      9  H   UNL     1      43.472   2.677   8.586  0.00  0.00    +0.000 HD
BRANCH   8  16
ATOM     10  C   UNL     1      46.397   4.674   7.622  0.00  0.00    +0.000 C 
ATOM     11  C   UNL     1      46.406   3.172   7.703  0.00  0.00    +0.000 A 
ATOM     12  C   UNL     1      47.447   2.524   6.999  0.00  0.00    +0.000 A 
ATOM     13  C   UNL     1      47.580   1.140   6.999  0.00  0.00    +0.000 A 
ATOM     14  C   UNL     1      46.675   0.371   7.712  0.00  0.00    +0.000 A 
ATOM     15  C   UNL     1      45.641   0.998   8.412  0.00  0.00    +0.000 A 
ATOM     16  C   UNL     1      45.477   2.403   8.440  0.00  0.00    +0.000 A 
ENDBRANCH   8  16
ENDBRANCH   7   8
ENDBRANCH   1   7
BRANCH   4  17
ATOM     17  C   UNL     1      47.014   7.370  13.123  0.00  0.00    +0.000 C 
BRANCH  17  18
ATOM     18  N   UNL     1      47.424   6.990  14.445  0.00  0.00    +0.000 N 
ATOM     19  C   UNL     1      48.749   6.767  14.769  0.00  0.00    +0.000 C 
ATOM     20  O   UNL     1      49.660   6.882  13.966  0.00  0.00    +0.000 OA
ATOM     21  H   UNL     1      46.736   6.513  15.010  0.00  0.00    +0.000 HD
BRANCH  19  22
ATOM     22  C   UNL     1      48.985   6.445  16.184  0.00  0.00    +0.000 A 
ATOM     23  C   UNL     1      49.538   7.399  17.026  0.00  0.00    +0.000 A 
ATOM     24  S   UNL     1      49.707   6.867  18.639  0.00  0.00    +0.000 S 
ATOM     25  C   UNL     1      49.076   5.332  18.261  0.00  0.00    +0.000 A 
ATOM     26  N   UNL     1      48.970   4.362  19.207  0.00  0.00    +0.000 NA
ATOM     27  C   UNL     1      48.493   3.242  18.775  0.00  0.00    +0.000 A 
ATOM     28  N   UNL     1      48.100   3.006  17.484  0.00  0.00    +0.000 N 
ATOM     29  C   UNL     1      48.141   3.969  16.509  0.00  0.00    +0.000 A 
ATOM     30  O   UNL     1      47.698   3.757  15.383  0.00  0.00    +0.000 OA
ATOM     31  C   UNL     1      48.707   5.238  16.930  0.00  0.00    +0.000 A 
ATOM     32  H   UNL     1      47.707   2.116  17.215  0.00  0.00    +0.000 HD
ENDBRANCH  19  22
ENDBRANCH  17  18
ENDBRANCH   4  17
TORSDOF 6
ENDMDL
MODEL 4
REMARK VINA RESULT:    -8.203      1.835      2.321
REMARK INTER + INTRA:         -11.742
REMARK INTER:                 -10.786
REMARK INTRA:                  -0.955
REMARK UNBOUND:                -0.661
REMARK  Name = 
REMARK  7 active torsions:
REMARK  status: ('A' for Active; 'I' for Inactive)
REMARK    1  A    between atoms: C_1  and  C_2
REMARK    2  A    between atoms: C_7  and  N_8
REMARK    3  A    between atoms: N_8  and  C_9
REMARK    4  A    between atoms: C_9  and  C_10
REMARK    5  A    between atoms: C_13  and  C_14
REMARK    6  A    between atoms: C_14  and  N_15
REMARK    7  A    between atoms: C_16  and  C_18
REMARK                            x       y       z     vdW  Elec       q    Type
REMARK                         _______ _______ _______ _____ _____    ______ ____
ROOT
ATOM      1  C   UNL     1      44.952   5.051  11.397  0.00  0.00    +0.000 A 
ATOM      2  C   UNL     1      45.443   4.383  12.526  0.00  0.00    +0.000 A 
ATOM      3  C   UNL     1      46.541   4.889  13.228  0.00  0.00    +0.000 A 
ATOM      4  C   UNL     1      47.183   6.069  12.818  0.00  0.00    +0.000 A 
ATOM      5  C   UNL     1      46.693   6.731  11.683  0.00  0.00    +0.000 A 
ATOM      6  C   UNL     1      45.591   6.232  10.988  0.00  0.00    +0.000 A 
ENDROOT
BRANCH   1   7
ATOM      7  C   UNL     1      43.804   4.511  10.576  0.00  0.00    +0.000 C 
BRANCH   7   8
ATOM      8  N   UNL     1      44.068   4.507   9.151  0.00  0.00    +0.000 N 
ATOM      9  H   UNL     1      43.271   4.743   8.569  0.00  0.00    +0.000 HD
BRANCH   8  16
ATOM     10  C   UNL     1      44.168   1.406   9.438  0.00  0.00    +0.000 C 
ATOM     11  C   UNL     1      45.125   2.275   8.668  0.00  0.00    +0.000 A 
ATOM     12  C   UNL     1      46.201   1.602   8.045  0.00  0.00    +0.000 A 
ATOM     13  C   UNL     1      47.152   2.283   7.292  0.00  0.00    +0.000 A 
ATOM     14  C   UNL     1      47.043   3.654   7.140  0.00  0.00    +0.000 A 
ATOM     15  C   UNL     1      45.984   4.332   7.750  0.00  0.00    +0.000 A 
ATOM     16  C   UNL     1      44.995   3.674   8.518  0.00  0.00    +0.000 A 
ENDBRANCH   8  16
ENDBRANCH   7   8
ENDBRANCH   1   7
BRANCH   4  17
ATOM     17  C   UNL     1      48.386   6.622  13.546  0.00  0.00    +0.000 C 
BRANCH  17  18
ATOM     18  N   UNL     1      48.153   6.705  14.959  0.00  0.00    +0.000 N 
ATOM     19  C   UNL     1      49.185   6.680  15.879  0.00  0.00    +0.000 C 
ATOM     20  O   UNL     1      50.359   6.593  15.561  0.00  0.00    +0.000 OA
ATOM     21  H   UNL     1      47.251   6.388  15.286  0.00  0.00    +0.000 HD
BRANCH  19  22
ATOM     22  C   UNL     1      48.758   6.836  17.278  0.00  0.00    +0.000 A 
ATOM     23  C   UNL     1      48.244   8.050  17.711  0.00  0.00    +0.000 A 
ATOM     24  S   UNL     1      47.768   8.041  19.350  0.00  0.00    +0.000 S 
ATOM     25  C   UNL     1      48.261   6.423  19.546  0.00  0.00    +0.000 A 
ATOM     26  N   UNL     1      48.153   5.794  20.746  0.00  0.00    +0.000 NA
ATOM     27  C   UNL     1      48.585   4.577  20.753  0.00  0.00    +0.000 A 
ATOM     28  N   UNL     1      49.103   3.924  19.666  0.00  0.00    +0.000 N 
ATOM     29  C   UNL     1      49.183   4.501  18.425  0.00  0.00    +0.000 A 
ATOM     30  O   UNL     1      49.569   3.863  17.448  0.00  0.00    +0.000 OA
ATOM     31  C   UNL     1      48.750   5.885  18.367  0.00  0.00    +0.000 A 
ATOM     32  H   UNL     1      49.396   2.960  19.730  0.00  0.00    +0.000 HD
ENDBRANCH  19  22
ENDBRANCH  17  18
ENDBRANCH   4  17
TORSDOF 6
ENDMDL
MODEL 5
REMARK VINA RESULT:    -8.187      1.865      2.406
REMARK INTER + INTRA:         -11.720
REMARK INTER:                 -11.097
REMARK INTRA:                  -0.623
REMARK UNBOUND:                -0.661
REMARK  Name = 
REMARK  7 active torsions:
REMARK  status: ('A' for Active; 'I' for Inactive)
REMARK    1  A    between atoms: C_1  and  C_2
REMARK    2  A    between atoms: C_7  and  N_8
REMARK    3  A    between atoms: N_8  and  C_9
REMARK    4  A    between atoms: C_9  and  C_10
REMARK    5  A    between atoms: C_13  and  C_14
REMARK    6  A    between atoms: C_14  and  N_15
REMARK    7  A    between atoms: C_16  and  C_18
REMARK                            x       y       z     vdW  Elec       q    Type
REMARK                         _______ _______ _______ _____ _____    ______ ____
ROOT
ATOM      1  C   UNL     1      45.063   3.842  10.848  0.00  0.00    +0.000 A 
ATOM      2  C   UNL     1      45.340   5.157  10.453  0.00  0.00    +0.000 A 
ATOM      3  C   UNL     1      46.033   6.023  11.305  0.00  0.00    +0.000 A 
ATOM      4  C   UNL     1      46.459   5.603  12.576  0.00  0.00    +0.000 A 
ATOM      5  C   UNL     1      46.173   4.288  12.970  0.00  0.00    +0.000 A 
ATOM      6  C   UNL     1      45.491   3.421  12.116  0.00  0.00    +0.000 A 
ENDROOT
BRANCH   1   7
ATOM      7  C   UNL     1      44.271   2.891   9.983  0.00  0.00    +0.000 C 
BRANCH   7   8
ATOM      8  N   UNL     1      45.088   1.879   9.343  0.00  0.00    +0.000 N 
ATOM      9  H   UNL     1      45.524   1.218   9.978  0.00  0.00    +0.000 HD
BRANCH   8  16
ATOM     10  C   UNL     1      46.690  -0.337   7.848  0.00  0.00    +0.000 C 
ATOM     11  C   UNL     1      46.601   1.120   7.481  0.00  0.00    +0.000 A 
ATOM     12  C   UNL     1      47.362   1.518   6.358  0.00  0.00    +0.000 A 
ATOM     13  C   UNL     1      47.362   2.832   5.903  0.00  0.00    +0.000 A 
ATOM     14  C   UNL     1      46.593   3.778   6.559  0.00  0.00    +0.000 A 
ATOM     15  C   UNL     1      45.836   3.398   7.671  0.00  0.00    +0.000 A 
ATOM     16  C   UNL     1      45.806   2.070   8.159  0.00  0.00    +0.000 A 
ENDBRANCH   8  16
ENDBRANCH   7   8
ENDBRANCH   1   7
BRANCH   4  17
ATOM     17  C   UNL     1      47.186   6.528  13.524  0.00  0.00    +0.000 C 
BRANCH  17  18
ATOM     18  N   UNL     1      47.337   5.937  14.823  0.00  0.00    +0.000 N 
ATOM     19  C   UNL     1      48.510   6.042  15.548  0.00  0.00    +0.000 C 
ATOM     20  O   UNL     1      49.491   6.643  15.144  0.00  0.00    +0.000 OA
ATOM     21  H   UNL     1      46.753   5.139  15.024  0.00  0.00    +0.000 HD
BRANCH  19  22
ATOM     22  C   UNL     1      48.459   5.424  16.881  0.00  0.00    +0.000 A 
ATOM     23  C   UNL     1      48.612   4.052  17.012  0.00  0.00    +0.000 A 
ATOM     24  S   UNL     1      48.563   3.513  18.631  0.00  0.00    +0.000 S 
ATOM     25  C   UNL     1      48.305   5.092  19.211  0.00  0.00    +0.000 A 
ATOM     26  N   UNL     1      48.144   5.338  20.538  0.00  0.00    +0.000 NA
ATOM     27  C   UNL     1      47.935   6.577  20.832  0.00  0.00    +0.000 A 
ATOM     28  N   UNL     1      47.886   7.600  19.921  0.00  0.00    +0.000 N 
ATOM     29  C   UNL     1      48.093   7.407  18.580  0.00  0.00    +0.000 A 
ATOM     30  O   UNL     1      48.132   8.353  17.797  0.00  0.00    +0.000 OA
ATOM     31  C   UNL     1      48.292   6.023  18.187  0.00  0.00    +0.000 A 
ATOM     32  H   UNL     1      47.749   8.555  20.218  0.00  0.00    +0.000 HD
ENDBRANCH  19  22
ENDBRANCH  17  18
ENDBRANCH   4  17
TORSDOF 6
ENDMDL
MODEL 6
REMARK VINA RESULT:    -7.953      3.267      5.332
REMARK INTER + INTRA:         -11.404
REMARK INTER:                 -10.938
REMARK INTRA:                  -0.466
REMARK UNBOUND:                -0.661
REMARK  Name = 
REMARK  7 active torsions:
REMARK  status: ('A' for Active; 'I' for Inactive)
REMARK    1  A    between atoms: C_1  and  C_2
REMARK    2  A    between atoms: C_7  and  N_8
REMARK    3  A    between atoms: N_8  and  C_9
REMARK    4  A    between atoms: C_9  and  C_10
REMARK    5  A    between atoms: C_13  and  C_14
REMARK    6  A    between atoms: C_14  and  N_15
REMARK    7  A    between atoms: C_16  and  C_18
REMARK                            x       y       z     vdW  Elec       q    Type
REMARK                         _______ _______ _______ _____ _____    ______ ____
ROOT
ATOM      1  C   UNL     1      45.028   3.769  10.857  0.00  0.00    +0.000 A 
ATOM      2  C   UNL     1      45.307   5.081  10.454  0.00  0.00    +0.000 A 
ATOM      3  C   UNL     1      45.961   5.965  11.318  0.00  0.00    +0.000 A 
ATOM      4  C   UNL     1      46.345   5.566  12.609  0.00  0.00    +0.000 A 
ATOM      5  C   UNL     1      46.058   4.254  13.010  0.00  0.00    +0.000 A 
ATOM      6  C   UNL     1      45.415   3.369  12.145  0.00  0.00    +0.000 A 
ENDROOT
BRANCH   1   7
ATOM      7  C   UNL     1      44.276   2.798   9.977  0.00  0.00    +0.000 C 
BRANCH   7   8
ATOM      8  N   UNL     1      45.131   1.815   9.344  0.00  0.00    +0.000 N 
ATOM      9  H   UNL     1      45.579   1.165   9.981  0.00  0.00    +0.000 HD
BRANCH   8  16
ATOM     10  C   UNL     1      46.739  -0.367   7.806  0.00  0.00    +0.000 C 
ATOM     11  C   UNL     1      46.654   1.098   7.473  0.00  0.00    +0.000 A 
ATOM     12  C   UNL     1      47.423   1.522   6.364  0.00  0.00    +0.000 A 
ATOM     13  C   UNL     1      47.427   2.846   5.940  0.00  0.00    +0.000 A 
ATOM     14  C   UNL     1      46.655   3.777   6.614  0.00  0.00    +0.000 A 
ATOM     15  C   UNL     1      45.891   3.372   7.712  0.00  0.00    +0.000 A 
ATOM     16  C   UNL     1      45.856   2.033   8.168  0.00  0.00    +0.000 A 
ENDBRANCH   8  16
ENDBRANCH   7   8
ENDBRANCH   1   7
BRANCH   4  17
ATOM     17  C   UNL     1      47.031   6.510  13.570  0.00  0.00    +0.000 C 
BRANCH  17  18
ATOM     18  N   UNL     1      46.687   7.876  13.298  0.00  0.00    +0.000 N 
ATOM     19  C   UNL     1      47.453   8.679  12.473  0.00  0.00    +0.000 C 
ATOM     20  O   UNL     1      48.465   8.287  11.916  0.00  0.00    +0.000 OA
ATOM     21  H   UNL     1      46.134   8.349  13.998  0.00  0.00    +0.000 HD
BRANCH  19  22
ATOM     22  C   UNL     1      46.914  10.031  12.265  0.00  0.00    +0.000 A 
ATOM     23  C   UNL     1      47.740  11.134  12.420  0.00  0.00    +0.000 A 
ATOM     24  S   UNL     1      46.959  12.619  12.104  0.00  0.00    +0.000 S 
ATOM     25  C   UNL     1      45.481  11.840  11.779  0.00  0.00    +0.000 A 
ATOM     26  N   UNL     1      44.365  12.549  11.463  0.00  0.00    +0.000 NA
ATOM     27  C   UNL     1      43.312  11.829  11.262  0.00  0.00    +0.000 A 
ATOM     28  N   UNL     1      43.273  10.461  11.335  0.00  0.00    +0.000 N 
ATOM     29  C   UNL     1      44.384   9.703  11.600  0.00  0.00    +0.000 A 
ATOM     30  O   UNL     1      44.341   8.475  11.571  0.00  0.00    +0.000 OA
ATOM     31  C   UNL     1      45.590  10.463  11.875  0.00  0.00    +0.000 A 
ATOM     32  H   UNL     1      42.424   9.954  11.137  0.00  0.00    +0.000 HD
ENDBRANCH  19  22
ENDBRANCH  17  18
ENDBRANCH   4  17
TORSDOF 6
ENDMDL
MODEL 7
REMARK VINA RESULT:    -7.718      3.311      8.197
REMARK INTER + INTRA:         -11.087
REMARK INTER:                  -9.777
REMARK INTRA:                  -1.310
REMARK UNBOUND:                -0.661
REMARK  Name = 
REMARK  7 active torsions:
REMARK  status: ('A' for Active; 'I' for Inactive)
REMARK    1  A    between atoms: C_1  and  C_2
REMARK    2  A    between atoms: C_7  and  N_8
REMARK    3  A    between atoms: N_8  and  C_9
REMARK    4  A    between atoms: C_9  and  C_10
REMARK    5  A    between atoms: C_13  and  C_14
REMARK    6  A    between atoms: C_14  and  N_15
REMARK    7  A    between atoms: C_16  and  C_18
REMARK                            x       y       z     vdW  Elec       q    Type
REMARK                         _______ _______ _______ _____ _____    ______ ____
ROOT
ATOM      1  C   UNL     1      49.917   6.690  16.323  0.00  0.00    +0.000 A 
ATOM      2  C   UNL     1      48.648   6.280  15.897  0.00  0.00    +0.000 A 
ATOM      3  C   UNL     1      48.199   6.586  14.608  0.00  0.00    +0.000 A 
ATOM      4  C   UNL     1      49.001   7.315  13.715  0.00  0.00    +0.000 A 
ATOM      5  C   UNL     1      50.268   7.729  14.148  0.00  0.00    +0.000 A 
ATOM      6  C   UNL     1      50.720   7.416  15.429  0.00  0.00    +0.000 A 
ENDROOT
BRANCH   1   7
ATOM      7  C   UNL     1      50.421   6.429  17.723  0.00  0.00    +0.000 C 
BRANCH   7   8
ATOM      8  N   UNL     1      49.996   5.152  18.259  0.00  0.00    +0.000 N 
ATOM      9  H   UNL     1      49.671   5.179  19.220  0.00  0.00    +0.000 HD
BRANCH   8  16
ATOM     10  C   UNL     1      48.391   2.832  16.936  0.00  0.00    +0.000 C 
ATOM     11  C   UNL     1      49.838   2.811  17.349  0.00  0.00    +0.000 A 
ATOM     12  C   UNL     1      50.519   1.589  17.143  0.00  0.00    +0.000 A 
ATOM     13  C   UNL     1      51.862   1.436  17.469  0.00  0.00    +0.000 A 
ATOM     14  C   UNL     1      52.558   2.507  18.003  0.00  0.00    +0.000 A 
ATOM     15  C   UNL     1      51.897   3.721  18.211  0.00  0.00    +0.000 A 
ATOM     16  C   UNL     1      50.534   3.916  17.887  0.00  0.00    +0.000 A 
ENDBRANCH   8  16
ENDBRANCH   7   8
ENDBRANCH   1   7
BRANCH   4  17
ATOM     17  C   UNL     1      48.527   7.679  12.326  0.00  0.00    +0.000 C 
BRANCH  17  18
ATOM     18  N   UNL     1      47.698   6.650  11.767  0.00  0.00    +0.000 N 
ATOM     19  C   UNL     1      46.339   6.821  11.578  0.00  0.00    +0.000 C 
ATOM     20  O   UNL     1      45.751   7.850  11.863  0.00  0.00    +0.000 OA
ATOM     21  H   UNL     1      48.021   5.700  11.882  0.00  0.00    +0.000 HD
BRANCH  19  22
ATOM     22  C   UNL     1      45.665   5.681  10.939  0.00  0.00    +0.000 A 
ATOM     23  C   UNL     1      45.754   5.509   9.565  0.00  0.00    +0.000 A 
ATOM     24  S   UNL     1      44.943   4.117   9.000  0.00  0.00    +0.000 S 
ATOM     25  C   UNL     1      44.419   3.713  10.568  0.00  0.00    +0.000 A 
ATOM     26  N   UNL     1      43.640   2.622  10.792  0.00  0.00    +0.000 NA
ATOM     27  C   UNL     1      43.301   2.449  12.026  0.00  0.00    +0.000 A 
ATOM     28  N   UNL     1      43.680   3.261  13.062  0.00  0.00    +0.000 N 
ATOM     29  C   UNL     1      44.506   4.341  12.892  0.00  0.00    +0.000 A 
ATOM     30  O   UNL     1      44.903   5.000  13.851  0.00  0.00    +0.000 OA
ATOM     31  C   UNL     1      44.886   4.608  11.516  0.00  0.00    +0.000 A 
ATOM     32  H   UNL     1      43.406   3.054  14.011  0.00  0.00    +0.000 HD
ENDBRANCH  19  22
ENDBRANCH  17  18
ENDBRANCH   4  17
TORSDOF 6
ENDMDL
MODEL 8
REMARK VINA RESULT:    -7.346      4.143      9.840
REMARK INTER + INTRA:         -10.584
REMARK INTER:                  -9.115
REMARK INTRA:                  -1.469
REMARK UNBOUND:                -0.661
REMARK  Name = 
REMARK  7 active torsions:
REMARK  status: ('A' for Active; 'I' for Inactive)
REMARK    1  A    between atoms: C_1  and  C_2
REMARK    2  A    between atoms: C_7  and  N_8
REMARK    3  A    between atoms: N_8  and  C_9
REMARK    4  A    between atoms: C_9  and  C_10
REMARK    5  A    between atoms: C_13  and  C_14
REMARK    6  A    between atoms: C_14  and  N_15
REMARK    7  A    between atoms: C_16  and  C_18
REMARK                            x       y       z     vdW  Elec       q    Type
REMARK                         _______ _______ _______ _____ _____    ______ ____
ROOT
ATOM      1  C   UNL     1      50.136   5.507  19.341  0.00  0.00    +0.000 A 
ATOM      2  C   UNL     1      49.163   4.630  19.836  0.00  0.00    +0.000 A 
ATOM      3  C   UNL     1      48.285   3.979  18.964  0.00  0.00    +0.000 A 
ATOM      4  C   UNL     1      48.349   4.193  17.577  0.00  0.00    +0.000 A 
ATOM      5  C   UNL     1      49.320   5.077  17.086  0.00  0.00    +0.000 A 
ATOM      6  C   UNL     1      50.203   5.719  17.955  0.00  0.00    +0.000 A 
ENDROOT
BRANCH   1   7
ATOM      7  C   UNL     1      51.068   6.273  20.249  0.00  0.00    +0.000 C 
BRANCH   7   8
ATOM      8  N   UNL     1      50.413   7.342  20.977  0.00  0.00    +0.000 N 
ATOM      9  H   UNL     1      50.258   7.155  21.962  0.00  0.00    +0.000 HD
BRANCH   8  16
ATOM     10  C   UNL     1      47.361   7.338  21.603  0.00  0.00    +0.000 C 
ATOM     11  C   UNL     1      48.082   8.220  20.620  0.00  0.00    +0.000 A 
ATOM     12  C   UNL     1      47.269   9.110  19.882  0.00  0.00    +0.000 A 
ATOM     13  C   UNL     1      47.807   9.989  18.948  0.00  0.00    +0.000 A 
ATOM     14  C   UNL     1      49.176  10.002  18.737  0.00  0.00    +0.000 A 
ATOM     15  C   UNL     1      49.991   9.127  19.461  0.00  0.00    +0.000 A 
ATOM     16  C   UNL     1      49.481   8.224  20.422  0.00  0.00    +0.000 A 
ENDBRANCH   8  16
ENDBRANCH   7   8
ENDBRANCH   1   7
BRANCH   4  17
ATOM     17  C   UNL     1      47.395   3.520  16.617  0.00  0.00    +0.000 C 
BRANCH  17  18
ATOM     18  N   UNL     1      46.868   4.451  15.661  0.00  0.00    +0.000 N 
ATOM     19  C   UNL     1      46.814   4.167  14.309  0.00  0.00    +0.000 C 
ATOM     20  O   UNL     1      47.201   3.112  13.834  0.00  0.00    +0.000 OA
ATOM     21  H   UNL     1      46.907   5.427  15.915  0.00  0.00    +0.000 HD
BRANCH  19  22
ATOM     22  C   UNL     1      46.187   5.216  13.490  0.00  0.00    +0.000 A 
ATOM     23  C   UNL     1      46.856   6.411  13.272  0.00  0.00    +0.000 A 
ATOM     24  S   UNL     1      46.000   7.497  12.272  0.00  0.00    +0.000 S 
ATOM     25  C   UNL     1      44.692   6.418  12.120  0.00  0.00    +0.000 A 
ATOM     26  N   UNL     1      43.586   6.748  11.402  0.00  0.00    +0.000 NA
ATOM     27  C   UNL     1      42.665   5.843  11.391  0.00  0.00    +0.000 A 
ATOM     28  N   UNL     1      42.752   4.630  12.022  0.00  0.00    +0.000 N 
ATOM     29  C   UNL     1      43.867   4.235  12.714  0.00  0.00    +0.000 A 
ATOM     30  O   UNL     1      43.953   3.107  13.195  0.00  0.00    +0.000 OA
ATOM     31  C   UNL     1      44.920   5.231  12.795  0.00  0.00    +0.000 A 
ATOM     32  H   UNL     1      42.008   3.952  11.950  0.00  0.00    +0.000 HD
ENDBRANCH  19  22
ENDBRANCH  17  18
ENDBRANCH   4  17
TORSDOF 6
ENDMDL
MODEL 9
REMARK VINA RESULT:    -7.344      3.878      7.996
REMARK INTER + INTRA:         -10.581
REMARK INTER:                  -8.750
REMARK INTRA:                  -1.831
REMARK UNBOUND:                -0.661
REMARK  Name = 
REMARK  7 active torsions:
REMARK  status: ('A' for Active; 'I' for Inactive)
REMARK    1  A    between atoms: C_1  and  C_2
REMARK    2  A    between atoms: C_7  and  N_8
REMARK    3  A    between atoms: N_8  and  C_9
REMARK    4  A    between atoms: C_9  and  C_10
REMARK    5  A    between atoms: C_13  and  C_14
REMARK    6  A    between atoms: C_14  and  N_15
REMARK    7  A    between atoms: C_16  and  C_18
REMARK                            x       y       z     vdW  Elec       q    Type
REMARK                         _______ _______ _______ _____ _____    ______ ____
ROOT
ATOM      1  C   UNL     1      50.406   6.455  18.031  0.00  0.00    +0.000 A 
ATOM      2  C   UNL     1      50.702   6.274  16.674  0.00  0.00    +0.000 A 
ATOM      3  C   UNL     1      50.064   7.047  15.700  0.00  0.00    +0.000 A 
ATOM      4  C   UNL     1      49.107   8.014  16.052  0.00  0.00    +0.000 A 
ATOM      5  C   UNL     1      48.809   8.187  17.411  0.00  0.00    +0.000 A 
ATOM      6  C   UNL     1      49.453   7.423  18.384  0.00  0.00    +0.000 A 
ENDROOT
BRANCH   1   7
ATOM      7  C   UNL     1      51.030   5.606  19.113  0.00  0.00    +0.000 C 
BRANCH   7   8
ATOM      8  N   UNL     1      50.287   4.393  19.394  0.00  0.00    +0.000 N 
ATOM      9  H   UNL     1      50.699   3.794  20.101  0.00  0.00    +0.000 HD
BRANCH   8  16
ATOM     10  C   UNL     1      51.384   2.250  17.416  0.00  0.00    +0.000 C 
ATOM     11  C   UNL     1      49.975   2.773  17.494  0.00  0.00    +0.000 A 
ATOM     12  C   UNL     1      49.073   2.255  16.536  0.00  0.00    +0.000 A 
ATOM     13  C   UNL     1      47.738   2.644  16.503  0.00  0.00    +0.000 A 
ATOM     14  C   UNL     1      47.273   3.556  17.434  0.00  0.00    +0.000 A 
ATOM     15  C   UNL     1      48.154   4.076  18.387  0.00  0.00    +0.000 A 
ATOM     16  C   UNL     1      49.516   3.700  18.456  0.00  0.00    +0.000 A 
ENDBRANCH   8  16
ENDBRANCH   7   8
ENDBRANCH   1   7
BRANCH   4  17
ATOM     17  C   UNL     1      48.386   8.844  15.015  0.00  0.00    +0.000 C 
BRANCH  17  18
ATOM     18  N   UNL     1      47.339   8.097  14.380  0.00  0.00    +0.000 N 
ATOM     19  C   UNL     1      47.152   8.107  13.010  0.00  0.00    +0.000 C 
ATOM     20  O   UNL     1      47.862   8.740  12.246  0.00  0.00    +0.000 OA
ATOM     21  H   UNL     1      46.526   7.894  14.944  0.00  0.00    +0.000 HD
BRANCH  19  22
ATOM     22  C   UNL     1      46.067   7.235  12.536  0.00  0.00    +0.000 A 
ATOM     23  C   UNL     1      45.007   7.779  11.826  0.00  0.00    +0.000 A 
ATOM     24  S   UNL     1      43.859   6.620  11.323  0.00  0.00    +0.000 S 
ATOM     25  C   UNL     1      44.725   5.355  12.063  0.00  0.00    +0.000 A 
ATOM     26  N   UNL     1      44.268   4.075  12.032  0.00  0.00    +0.000 NA
ATOM     27  C   UNL     1      45.015   3.224  12.651  0.00  0.00    +0.000 A 
ATOM     28  N   UNL     1      46.188   3.531  13.289  0.00  0.00    +0.000 N 
ATOM     29  C   UNL     1      46.714   4.797  13.303  0.00  0.00    +0.000 A 
ATOM     30  O   UNL     1      47.811   5.028  13.806  0.00  0.00    +0.000 OA
ATOM     31  C   UNL     1      45.893   5.805  12.656  0.00  0.00    +0.000 A 
ATOM     32  H   UNL     1      46.743   2.813  13.731  0.00  0.00    +0.000 HD
ENDBRANCH  19  22
ENDBRANCH  17  18
ENDBRANCH   4  17
TORSDOF 6
ENDMDL
