MODEL 1
REMARK VINA RESULT:    -7.941      0.000      0.000
REMARK INTER + INTRA:         -13.306
REMARK INTER:                 -12.119
REMARK INTRA:                  -1.186
REMARK UNBOUND:                -1.186
REMARK  Name = 
REMARK  9 active torsions:
REMARK  status: ('A' for Active; 'I' for Inactive)
REMARK    1  A    between atoms: C_2  and  C_3
REMARK    2  A    between atoms: C_3  and  C_4
REMARK    3  A    between atoms: C_3  and  N_11
REMARK    4  A    between atoms: C_4  and  C_5
REMARK    5  A    between atoms: N_11  and  C_12
REMARK    6  A    between atoms: C_12  and  C_13
REMARK    7  A    between atoms: C_16  and  C_17
REMARK    8  A    between atoms: C_17  and  N_18
REMARK    9  A    between atoms: C_19  and  C_21
REMARK                            x       y       z     vdW  Elec       q    Type
REMARK                         _______ _______ _______ _____ _____    ______ ____
ROOT
ATOM      1  C   UNL     1      46.729   5.016  13.517  0.00  0.00    +0.000 A 
ATOM      2  C   UNL     1      47.394   6.218  13.239  0.00  0.00    +0.000 A 
ATOM      3  C   UNL     1      48.231   6.808  14.191  0.00  0.00    +0.000 A 
ATOM      4  C   UNL     1      48.419   6.208  15.442  0.00  0.00    +0.000 A 
ATOM      5  C   UNL     1      47.708   5.041  15.746  0.00  0.00    +0.000 A 
ATOM      6  C   UNL     1      46.880   4.446  14.790  0.00  0.00    +0.000 A 
ENDROOT
BRANCH   1   7
ATOM      7  C   UNL     1      45.845   4.351  12.485  0.00  0.00    +0.000 C 
BRANCH   7   8
ATOM      8  N   UNL     1      45.692   5.182  11.285  0.00  0.00    +0.000 NA
ATOM      9  H   UNL     1      45.641   6.160  11.561  0.00  0.00    +0.000 HD
BRANCH   8  10
ATOM     10  C   UNL     1      44.487   4.830  10.487  0.00  0.00    +0.000 C 
BRANCH  10  12
ATOM     11  N   UNL     1      42.261   5.438  11.787  0.00  0.00    +0.000 NA
ATOM     12  C   UNL     1      43.225   5.142  11.207  0.00  0.00    +0.000 C 
ENDBRANCH  10  12
BRANCH  10  13
ATOM     13  C   UNL     1      44.562   3.321  10.139  0.00  0.00    +0.000 C 
BRANCH  13  14
ATOM     14  C   UNL     1      45.392   2.977   8.919  0.00  0.00    +0.000 A 
ATOM     15  C   UNL     1      45.766   3.957   7.990  0.00  0.00    +0.000 A 
ATOM     16  C   UNL     1      46.529   3.615   6.869  0.00  0.00    +0.000 A 
ATOM     17  C   UNL     1      46.925   2.293   6.667  0.00  0.00    +0.000 A 
ATOM     18  C   UNL     1      46.565   1.313   7.586  0.00  0.00    +0.000 A 
ATOM     19  C   UNL     1      45.804   1.653   8.706  0.00  0.00    +0.000 A 
ENDBRANCH  13  14
ENDBRANCH  10  13
ENDBRANCH   8  10
ENDBRANCH   7   8
ENDBRANCH   1   7
BRANCH   4  20
ATOM     20  C   UNL     1      49.318   6.838  16.472  0.00  0.00    +0.000 C 
BRANCH  20  21
ATOM     21  N   UNL     1      50.364   5.924  16.841  0.00  0.00    +0.000 N 
ATOM     22  C   UNL     1      50.529   5.485  18.126  0.00  0.00    +0.000 C 
ATOM     23  O   UNL     1      49.766   5.807  19.032  0.00  0.00    +0.000 OA
ATOM     24  H   UNL     1      51.132   5.835  16.184  0.00  0.00    +0.000 HD
BRANCH  22  25
ATOM     25  C   UNL     1      51.636   4.545  18.343  0.00  0.00    +0.000 A 
ATOM     26  C   UNL     1      52.786   4.971  18.992  0.00  0.00    +0.000 A 
ATOM     27  S   UNL     1      53.923   3.727  19.252  0.00  0.00    +0.000 S 
ATOM     28  C   UNL     1      52.942   2.586  18.456  0.00  0.00    +0.000 A 
ATOM     29  N   UNL     1      53.340   1.292  18.325  0.00  0.00    +0.000 NA
ATOM     30  C   UNL     1      52.507   0.545  17.679  0.00  0.00    +0.000 A 
ATOM     31  N   UNL     1      51.317   0.971  17.151  0.00  0.00    +0.000 N 
ATOM     32  C   UNL     1      50.870   2.264  17.274  0.00  0.00    +0.000 A 
ATOM     33  O   UNL     1      49.789   2.607  16.808  0.00  0.00    +0.000 OA
ATOM     34  C   UNL     1      51.763   3.146  18.002  0.00  0.00    +0.000 A 
ATOM     35  H   UNL     1      50.711   0.336  16.655  0.00  0.00    +0.000 HD
ENDBRANCH  22  25
ENDBRANCH  20  21
ENDBRANCH   4  20
TORSDOF 9
ENDMDL
MODEL 2
REMARK VINA RESULT:    -7.868      2.726      3.577
REMARK INTER + INTRA:         -13.194
REMARK INTER:                 -12.149
REMARK INTRA:                  -1.045
REMARK UNBOUND:                -1.186
REMARK  Name = 
REMARK  9 active torsions:
REMARK  status: ('A' for Active; 'I' for Inactive)
REMARK    1  A    between atoms: C_2  and  C_3
REMARK    2  A    between atoms: C_3  and  C_4
REMARK    3  A    between atoms: C_3  and  N_11
REMARK    4  A    between atoms: C_4  and  C_5
REMARK    5  A    between atoms: N_11  and  C_12
REMARK    6  A    between atoms: C_12  and  C_13
REMARK    7  A    between atoms: C_16  and  C_17
REMARK    8  A    between atoms: C_17  and  N_18
REMARK    9  A    between atoms: C_19  and  C_21
REMARK                            x       y       z     vdW  Elec       q    Type
REMARK                         _______ _______ _______ _____ _____    ______ ____
ROOT
ATOM      1  C   UNL     1      44.306   6.298  11.733  0.00  0.00    +0.000 A 
ATOM      2  C   UNL     1      45.198   5.670  12.613  0.00  0.00    +0.000 A 
ATOM      3  C   UNL     1      46.216   6.397  13.238  0.00  0.00    +0.000 A 
ATOM      4  C   UNL     1      46.364   7.768  12.992  0.00  0.00    +0.000 A 
ATOM      5  C   UNL     1      45.515   8.384  12.066  0.00  0.00    +0.000 A 
ATOM      6  C   UNL     1      44.490   7.660  11.451  0.00  0.00    +0.000 A 
ENDROOT
BRANCH   1   7
ATOM      7  C   UNL     1      43.181   5.530  11.075  0.00  0.00    +0.000 C 
BRANCH   7   8
ATOM      8  N   UNL     1      43.578   5.005   9.763  0.00  0.00    +0.000 NA
ATOM      9  H   UNL     1      42.801   5.105   9.113  0.00  0.00    +0.000 HD
BRANCH   8  10
ATOM     10  C   UNL     1      43.998   3.579   9.814  0.00  0.00    +0.000 C 
BRANCH  10  12
ATOM     11  N   UNL     1      43.241   2.375  12.048  0.00  0.00    +0.000 NA
ATOM     12  C   UNL     1      43.542   2.902  11.057  0.00  0.00    +0.000 C 
ENDBRANCH  10  12
BRANCH  10  13
ATOM     13  C   UNL     1      45.542   3.525   9.694  0.00  0.00    +0.000 C 
BRANCH  13  14
ATOM     14  C   UNL     1      46.073   2.926   8.407  0.00  0.00    +0.000 A 
ATOM     15  C   UNL     1      46.315   1.552   8.287  0.00  0.00    +0.000 A 
ATOM     16  C   UNL     1      46.809   1.022   7.090  0.00  0.00    +0.000 A 
ATOM     17  C   UNL     1      47.064   1.860   6.005  0.00  0.00    +0.000 A 
ATOM     18  C   UNL     1      46.820   3.225   6.111  0.00  0.00    +0.000 A 
ATOM     19  C   UNL     1      46.327   3.755   7.304  0.00  0.00    +0.000 A 
ENDBRANCH  13  14
ENDBRANCH  10  13
ENDBRANCH   8  10
ENDBRANCH   7   8
ENDBRANCH   1   7
BRANCH   4  20
ATOM     20  C   UNL     1      47.459   8.557  13.660  0.00  0.00    +0.000 C 
BRANCH  20  21
ATOM     21  N   UNL     1      47.808   7.953  14.916  0.00  0.00    +0.000 N 
ATOM     22  C   UNL     1      48.896   7.135  15.055  0.00  0.00    +0.000 C 
ATOM     23  O   UNL     1      49.667   6.907  14.127  0.00  0.00    +0.000 OA
ATOM     24  H   UNL     1      47.077   7.929  15.619  0.00  0.00    +0.000 HD
BRANCH  22  25
ATOM     25  C   UNL     1      49.129   6.604  16.404  0.00  0.00    +0.000 A 
ATOM     26  C   UNL     1      49.795   7.375  17.345  0.00  0.00    +0.000 A 
ATOM     27  S   UNL     1      49.884   6.647  18.885  0.00  0.00    +0.000 S 
ATOM     28  C   UNL     1      49.085   5.249  18.332  0.00  0.00    +0.000 A 
ATOM     29  N   UNL     1      48.837   4.208  19.172  0.00  0.00    +0.000 NA
ATOM     30  C   UNL     1      48.245   3.205  18.611  0.00  0.00    +0.000 A 
ATOM     31  N   UNL     1      47.882   3.146  17.292  0.00  0.00    +0.000 N 
ATOM     32  C   UNL     1      48.099   4.180  16.413  0.00  0.00    +0.000 A 
ATOM     33  O   UNL     1      47.741   4.103  15.243  0.00  0.00    +0.000 OA
ATOM     34  C   UNL     1      48.752   5.339  16.994  0.00  0.00    +0.000 A 
ATOM     35  H   UNL     1      47.423   2.331  16.915  0.00  0.00    +0.000 HD
ENDBRANCH  22  25
ENDBRANCH  20  21
ENDBRANCH   4  20
TORSDOF 9
ENDMDL
MODEL 3
REMARK VINA RESULT:    -7.320      3.572      4.132
REMARK INTER + INTRA:         -12.358
REMARK INTER:                 -11.433
REMARK INTRA:                  -0.924
REMARK UNBOUND:                -1.186
REMARK  Name = 
REMARK  9 active torsions:
REMARK  status: ('A' for Active; 'I' for Inactive)
REMARK    1  A    between atoms: C_2  and  C_3
REMARK    2  A    between atoms: C_3  and  C_4
REMARK    3  A    between atoms: C_3  and  N_11
REMARK    4  A    between atoms: C_4  and  C_5
REMARK    5  A    between atoms: N_11  and  C_12
REMARK    6  A    between atoms: C_12  and  C_13
REMARK    7  A    between atoms: C_16  and  C_17
REMARK    8  A    between atoms: C_17  and  N_18
REMARK    9  A    between atoms: C_19  and  C_21
REMARK                            x       y       z     vdW  Elec       q    Type
REMARK                         _______ _______ _______ _____ _____    ______ ____
ROOT
ATOM      1  C   UNL     1      46.103   4.902  13.441  0.00  0.00    +0.000 A 
ATOM      2  C   UNL     1      46.484   6.111  12.843  0.00  0.00    +0.000 A 
ATOM      3  C   UNL     1      47.557   6.851  13.348  0.00  0.00    +0.000 A 
ATOM      4  C   UNL     1      48.269   6.399  14.466  0.00  0.00    +0.000 A 
ATOM      5  C   UNL     1      47.851   5.225  15.104  0.00  0.00    +0.000 A 
ATOM      6  C   UNL     1      46.786   4.479  14.591  0.00  0.00    +0.000 A 
ENDROOT
BRANCH   1   7
ATOM      7  C   UNL     1      44.964   4.075  12.886  0.00  0.00    +0.000 C 
BRANCH   7   8
ATOM      8  N   UNL     1      45.335   3.419  11.626  0.00  0.00    +0.000 NA
ATOM      9  H   UNL     1      46.348   3.424  11.532  0.00  0.00    +0.000 HD
BRANCH   8  10
ATOM     10  C   UNL     1      44.725   4.068  10.435  0.00  0.00    +0.000 C 
BRANCH  10  12
ATOM     11  N   UNL     1      42.571   5.472  11.072  0.00  0.00    +0.000 NA
ATOM     12  C   UNL     1      43.533   4.884  10.787  0.00  0.00    +0.000 C 
ENDBRANCH  10  12
BRANCH  10  13
ATOM     13  C   UNL     1      44.351   2.960   9.418  0.00  0.00    +0.000 C 
BRANCH  13  14
ATOM     14  C   UNL     1      45.439   2.591   8.431  0.00  0.00    +0.000 A 
ATOM     15  C   UNL     1      45.968   1.295   8.378  0.00  0.00    +0.000 A 
ATOM     16  C   UNL     1      46.976   0.978   7.461  0.00  0.00    +0.000 A 
ATOM     17  C   UNL     1      47.461   1.951   6.588  0.00  0.00    +0.000 A 
ATOM     18  C   UNL     1      46.938   3.240   6.626  0.00  0.00    +0.000 A 
ATOM     19  C   UNL     1      45.932   3.557   7.541  0.00  0.00    +0.000 A 
ENDBRANCH  13  14
ENDBRANCH  10  13
ENDBRANCH   8  10
ENDBRANCH   7   8
ENDBRANCH   1   7
BRANCH   4  20
ATOM     20  C   UNL     1      49.424   7.191  15.017  0.00  0.00    +0.000 C 
BRANCH  20  21
ATOM     21  N   UNL     1      49.264   7.381  16.433  0.00  0.00    +0.000 N 
ATOM     22  C   UNL     1      48.553   8.429  16.952  0.00  0.00    +0.000 C 
ATOM     23  O   UNL     1      47.970   9.242  16.241  0.00  0.00    +0.000 OA
ATOM     24  H   UNL     1      49.916   6.881  17.028  0.00  0.00    +0.000 HD
BRANCH  22  25
ATOM     25  C   UNL     1      48.470   8.481  18.417  0.00  0.00    +0.000 A 
ATOM     26  C   UNL     1      48.858   9.631  19.090  0.00  0.00    +0.000 A 
ATOM     27  S   UNL     1      48.597   9.556  20.774  0.00  0.00    +0.000 S 
ATOM     28  C   UNL     1      48.009   7.962  20.670  0.00  0.00    +0.000 A 
ATOM     29  N   UNL     1      47.604   7.293  21.782  0.00  0.00    +0.000 NA
ATOM     30  C   UNL     1      47.204   6.084  21.557  0.00  0.00    +0.000 A 
ATOM     31  N   UNL     1      47.174   5.485  20.326  0.00  0.00    +0.000 N 
ATOM     32  C   UNL     1      47.560   6.129  19.175  0.00  0.00    +0.000 A 
ATOM     33  O   UNL     1      47.501   5.570  18.085  0.00  0.00    +0.000 OA
ATOM     34  C   UNL     1      48.008   7.496  19.369  0.00  0.00    +0.000 A 
ATOM     35  H   UNL     1      46.852   4.535  20.217  0.00  0.00    +0.000 HD
ENDBRANCH  22  25
ENDBRANCH  20  21
ENDBRANCH   4  20
TORSDOF 9
ENDMDL
MODEL 4
REMARK VINA RESULT:    -7.306      3.901     10.298
REMARK INTER + INTRA:         -12.336
REMARK INTER:                  -9.868
REMARK INTRA:                  -2.469
REMARK UNBOUND:                -1.186
REMARK  Name = 
REMARK  9 active torsions:
REMARK  status: ('A' for Active; 'I' for Inactive)
REMARK    1  A    between atoms: C_2  and  C_3
REMARK    2  A    between atoms: C_3  and  C_4
REMARK    3  A    between atoms: C_3  and  N_11
REMARK    4  A    between atoms: C_4  and  C_5
REMARK    5  A    between atoms: N_11  and  C_12
REMARK    6  A    between atoms: C_12  and  C_13
REMARK    7  A    between atoms: C_16  and  C_17
REMARK    8  A    between atoms: C_17  and  N_18
REMARK    9  A    between atoms: C_19  and  C_21
REMARK                            x       y       z     vdW  Elec       q    Type
REMARK                         _______ _______ _______ _____ _____    ______ ____
ROOT
ATOM      1  C   UNL     1      51.352   4.455  17.749  0.00  0.00    +0.000 A 
ATOM      2  C   UNL     1      50.468   5.468  17.351  0.00  0.00    +0.000 A 
ATOM      3  C   UNL     1      49.145   5.169  17.012  0.00  0.00    +0.000 A 
ATOM      4  C   UNL     1      48.679   3.849  17.062  0.00  0.00    +0.000 A 
ATOM      5  C   UNL     1      49.575   2.828  17.399  0.00  0.00    +0.000 A 
ATOM      6  C   UNL     1      50.894   3.128  17.748  0.00  0.00    +0.000 A 
ENDROOT
BRANCH   1   7
ATOM      7  C   UNL     1      52.777   4.768  18.148  0.00  0.00    +0.000 C 
BRANCH   7   8
ATOM      8  N   UNL     1      52.855   5.979  18.974  0.00  0.00    +0.000 NA
ATOM      9  H   UNL     1      53.459   6.658  18.515  0.00  0.00    +0.000 HD
BRANCH   8  10
ATOM     10  C   UNL     1      53.366   5.712  20.345  0.00  0.00    +0.000 C 
BRANCH  10  12
ATOM     11  N   UNL     1      53.673   3.130  20.849  0.00  0.00    +0.000 NA
ATOM     12  C   UNL     1      53.558   4.260  20.601  0.00  0.00    +0.000 C 
ENDBRANCH  10  12
BRANCH  10  13
ATOM     13  C   UNL     1      52.367   6.322  21.361  0.00  0.00    +0.000 C 
BRANCH  13  14
ATOM     14  C   UNL     1      50.902   6.097  21.047  0.00  0.00    +0.000 A 
ATOM     15  C   UNL     1      50.308   4.838  21.199  0.00  0.00    +0.000 A 
ATOM     16  C   UNL     1      48.954   4.653  20.898  0.00  0.00    +0.000 A 
ATOM     17  C   UNL     1      48.184   5.724  20.445  0.00  0.00    +0.000 A 
ATOM     18  C   UNL     1      48.762   6.981  20.298  0.00  0.00    +0.000 A 
ATOM     19  C   UNL     1      50.113   7.166  20.598  0.00  0.00    +0.000 A 
ENDBRANCH  13  14
ENDBRANCH  10  13
ENDBRANCH   8  10
ENDBRANCH   7   8
ENDBRANCH   1   7
BRANCH   4  20
ATOM     20  C   UNL     1      47.256   3.520  16.698  0.00  0.00    +0.000 C 
BRANCH  20  21
ATOM     21  N   UNL     1      46.757   4.472  15.744  0.00  0.00    +0.000 N 
ATOM     22  C   UNL     1      46.822   4.255  14.394  0.00  0.00    +0.000 C 
ATOM     23  O   UNL     1      47.267   3.215  13.919  0.00  0.00    +0.000 OA
ATOM     24  H   UNL     1      46.610   5.415  16.088  0.00  0.00    +0.000 HD
BRANCH  22  25
ATOM     25  C   UNL     1      46.260   5.315  13.548  0.00  0.00    +0.000 A 
ATOM     26  C   UNL     1      47.003   6.457  13.287  0.00  0.00    +0.000 A 
ATOM     27  S   UNL     1      46.242   7.533  12.205  0.00  0.00    +0.000 S 
ATOM     28  C   UNL     1      44.866   6.538  12.092  0.00  0.00    +0.000 A 
ATOM     29  N   UNL     1      43.812   6.889  11.308  0.00  0.00    +0.000 NA
ATOM     30  C   UNL     1      42.828   6.051  11.338  0.00  0.00    +0.000 A 
ATOM     31  N   UNL     1      42.801   4.899  12.078  0.00  0.00    +0.000 N 
ATOM     32  C   UNL     1      43.850   4.499  12.870  0.00  0.00    +0.000 A 
ATOM     33  O   UNL     1      43.801   3.450  13.504  0.00  0.00    +0.000 OA
ATOM     34  C   UNL     1      44.988   5.399  12.866  0.00  0.00    +0.000 A 
ATOM     35  H   UNL     1      42.000   4.287  12.058  0.00  0.00    +0.000 HD
ENDBRANCH  22  25
ENDBRANCH  20  21
ENDBRANCH   4  20
TORSDOF 9
ENDMDL
MODEL 5
REMARK VINA RESULT:    -7.188      2.577      3.351
REMARK INTER + INTRA:         -12.155
REMARK INTER:                 -11.086
REMARK INTRA:                  -1.070
REMARK UNBOUND:                -1.186
REMARK  Name = 
REMARK  9 active torsions:
REMARK  status: ('A' for Active; 'I' for Inactive)
REMARK    1  A    between atoms: C_2  and  C_3
REMARK    2  A    between atoms: C_3  and  C_4
REMARK    3  A    between atoms: C_3  and  N_11
REMARK    4  A    between atoms: C_4  and  C_5
REMARK    5  A    between atoms: N_11  and  C_12
REMARK    6  A    between atoms: C_12  and  C_13
REMARK    7  A    between atoms: C_16  and  C_17
REMARK    8  A    between atoms: C_17  and  N_18
REMARK    9  A    between atoms: C_19  and  C_21
REMARK                            x       y       z     vdW  Elec       q    Type
REMARK                         _______ _______ _______ _____ _____    ______ ____
ROOT
ATOM      1  C   UNL     1      45.351   7.265  11.929  0.00  0.00    +0.000 A 
ATOM      2  C   UNL     1      46.502   6.615  11.461  0.00  0.00    +0.000 A 
ATOM      3  C   UNL     1      47.760   6.925  11.986  0.00  0.00    +0.000 A 
ATOM      4  C   UNL     1      47.894   7.895  12.987  0.00  0.00    +0.000 A 
ATOM      5  C   UNL     1      46.755   8.590  13.411  0.00  0.00    +0.000 A 
ATOM      6  C   UNL     1      45.496   8.272  12.895  0.00  0.00    +0.000 A 
ENDROOT
BRANCH   1   7
ATOM      7  C   UNL     1      43.980   6.917  11.392  0.00  0.00    +0.000 C 
BRANCH   7   8
ATOM      8  N   UNL     1      43.356   5.832  12.160  0.00  0.00    +0.000 NA
ATOM      9  H   UNL     1      43.771   5.799  13.089  0.00  0.00    +0.000 HD
BRANCH   8  10
ATOM     10  C   UNL     1      43.502   4.504  11.507  0.00  0.00    +0.000 C 
BRANCH  10  12
ATOM     11  N   UNL     1      45.565   3.176  12.504  0.00  0.00    +0.000 NA
ATOM     12  C   UNL     1      44.659   3.738  12.041  0.00  0.00    +0.000 C 
ENDBRANCH  10  12
BRANCH  10  13
ATOM     13  C   UNL     1      43.650   4.729   9.980  0.00  0.00    +0.000 C 
BRANCH  13  14
ATOM     14  C   UNL     1      44.563   3.753   9.266  0.00  0.00    +0.000 A 
ATOM     15  C   UNL     1      44.403   2.368   9.403  0.00  0.00    +0.000 A 
ATOM     16  C   UNL     1      45.260   1.487   8.737  0.00  0.00    +0.000 A 
ATOM     17  C   UNL     1      46.283   1.981   7.927  0.00  0.00    +0.000 A 
ATOM     18  C   UNL     1      46.447   3.355   7.778  0.00  0.00    +0.000 A 
ATOM     19  C   UNL     1      45.591   4.235   8.442  0.00  0.00    +0.000 A 
ENDBRANCH  13  14
ENDBRANCH  10  13
ENDBRANCH   8  10
ENDBRANCH   7   8
ENDBRANCH   1   7
BRANCH   4  20
ATOM     20  C   UNL     1      49.245   8.235  13.555  0.00  0.00    +0.000 C 
BRANCH  20  21
ATOM     21  N   UNL     1      49.489   7.467  14.745  0.00  0.00    +0.000 N 
ATOM     22  C   UNL     1      49.241   7.961  15.997  0.00  0.00    +0.000 C 
ATOM     23  O   UNL     1      48.751   9.072  16.177  0.00  0.00    +0.000 OA
ATOM     24  H   UNL     1      50.102   6.665  14.641  0.00  0.00    +0.000 HD
BRANCH  22  25
ATOM     25  C   UNL     1      49.531   7.052  17.112  0.00  0.00    +0.000 A 
ATOM     26  C   UNL     1      50.338   7.477  18.157  0.00  0.00    +0.000 A 
ATOM     27  S   UNL     1      50.484   6.334  19.415  0.00  0.00    +0.000 S 
ATOM     28  C   UNL     1      49.519   5.207  18.580  0.00  0.00    +0.000 A 
ATOM     29  N   UNL     1      49.246   3.988  19.117  0.00  0.00    +0.000 NA
ATOM     30  C   UNL     1      48.522   3.228  18.363  0.00  0.00    +0.000 A 
ATOM     31  N   UNL     1      48.050   3.573  17.124  0.00  0.00    +0.000 N 
ATOM     32  C   UNL     1      48.289   4.798  16.551  0.00  0.00    +0.000 A 
ATOM     33  O   UNL     1      47.834   5.083  15.449  0.00  0.00    +0.000 OA
ATOM     34  C   UNL     1      49.090   5.698  17.362  0.00  0.00    +0.000 A 
ATOM     35  H   UNL     1      47.490   2.931  16.584  0.00  0.00    +0.000 HD
ENDBRANCH  22  25
ENDBRANCH  20  21
ENDBRANCH   4  20
TORSDOF 9
ENDMDL
MODEL 6
REMARK VINA RESULT:    -7.142      3.845      9.651
REMARK INTER + INTRA:         -12.086
REMARK INTER:                  -8.911
REMARK INTRA:                  -3.175
REMARK UNBOUND:                -1.186
REMARK  Name = 
REMARK  9 active torsions:
REMARK  status: ('A' for Active; 'I' for Inactive)
REMARK    1  A    between atoms: C_2  and  C_3
REMARK    2  A    between atoms: C_3  and  C_4
REMARK    3  A    between atoms: C_3  and  N_11
REMARK    4  A    between atoms: C_4  and  C_5
REMARK    5  A    between atoms: N_11  and  C_12
REMARK    6  A    between atoms: C_12  and  C_13
REMARK    7  A    between atoms: C_16  and  C_17
REMARK    8  A    between atoms: C_17  and  N_18
REMARK    9  A    between atoms: C_19  and  C_21
REMARK                            x       y       z     vdW  Elec       q    Type
REMARK                         _______ _______ _______ _____ _____    ______ ____
ROOT
ATOM      1  C   UNL     1      50.629   5.127  17.314  0.00  0.00    +0.000 A 
ATOM      2  C   UNL     1      51.393   6.140  16.719  0.00  0.00    +0.000 A 
ATOM      3  C   UNL     1      50.785   7.131  15.943  0.00  0.00    +0.000 A 
ATOM      4  C   UNL     1      49.399   7.127  15.742  0.00  0.00    +0.000 A 
ATOM      5  C   UNL     1      48.641   6.082  16.283  0.00  0.00    +0.000 A 
ATOM      6  C   UNL     1      49.248   5.098  17.069  0.00  0.00    +0.000 A 
ENDROOT
BRANCH   1   7
ATOM      7  C   UNL     1      51.270   4.067  18.182  0.00  0.00    +0.000 C 
BRANCH   7   8
ATOM      8  N   UNL     1      50.651   4.008  19.512  0.00  0.00    +0.000 NA
ATOM      9  H   UNL     1      49.639   4.037  19.411  0.00  0.00    +0.000 HD
BRANCH   8  10
ATOM     10  C   UNL     1      51.091   5.114  20.404  0.00  0.00    +0.000 C 
BRANCH  10  12
ATOM     11  N   UNL     1      52.736   4.236  22.284  0.00  0.00    +0.000 NA
ATOM     12  C   UNL     1      52.000   4.642  21.481  0.00  0.00    +0.000 C 
ENDBRANCH  10  12
BRANCH  10  13
ATOM     13  C   UNL     1      49.827   5.782  21.005  0.00  0.00    +0.000 C 
BRANCH  13  14
ATOM     14  C   UNL     1      49.245   6.920  20.191  0.00  0.00    +0.000 A 
ATOM     15  C   UNL     1      50.055   7.947  19.689  0.00  0.00    +0.000 A 
ATOM     16  C   UNL     1      49.495   8.990  18.945  0.00  0.00    +0.000 A 
ATOM     17  C   UNL     1      48.123   9.015  18.694  0.00  0.00    +0.000 A 
ATOM     18  C   UNL     1      47.311   7.996  19.181  0.00  0.00    +0.000 A 
ATOM     19  C   UNL     1      47.869   6.955  19.924  0.00  0.00    +0.000 A 
ENDBRANCH  13  14
ENDBRANCH  10  13
ENDBRANCH   8  10
ENDBRANCH   7   8
ENDBRANCH   1   7
BRANCH   4  20
ATOM     20  C   UNL     1      48.738   8.190  14.907  0.00  0.00    +0.000 C 
BRANCH  20  21
ATOM     21  N   UNL     1      47.548   7.668  14.293  0.00  0.00    +0.000 N 
ATOM     22  C   UNL     1      47.572   7.025  13.085  0.00  0.00    +0.000 C 
ATOM     23  O   UNL     1      48.616   6.814  12.476  0.00  0.00    +0.000 OA
ATOM     24  H   UNL     1      46.667   8.030  14.644  0.00  0.00    +0.000 HD
BRANCH  22  25
ATOM     25  C   UNL     1      46.277   6.538  12.594  0.00  0.00    +0.000 A 
ATOM     26  C   UNL     1      45.371   7.429  12.036  0.00  0.00    +0.000 A 
ATOM     27  S   UNL     1      43.966   6.680  11.424  0.00  0.00    +0.000 S 
ATOM     28  C   UNL     1      44.494   5.144  11.934  0.00  0.00    +0.000 A 
ATOM     29  N   UNL     1      43.737   4.036  11.714  0.00  0.00    +0.000 NA
ATOM     30  C   UNL     1      44.251   2.943  12.176  0.00  0.00    +0.000 A 
ATOM     31  N   UNL     1      45.446   2.857  12.838  0.00  0.00    +0.000 N 
ATOM     32  C   UNL     1      46.249   3.948  13.068  0.00  0.00    +0.000 A 
ATOM     33  O   UNL     1      47.325   3.832  13.645  0.00  0.00    +0.000 OA
ATOM     34  C   UNL     1      45.725   5.202  12.559  0.00  0.00    +0.000 A 
ATOM     35  H   UNL     1      45.791   1.972  13.175  0.00  0.00    +0.000 HD
ENDBRANCH  22  25
ENDBRANCH  20  21
ENDBRANCH   4  20
TORSDOF 9
ENDMDL
MODEL 7
REMARK VINA RESULT:    -7.073      4.304      9.210
REMARK INTER + INTRA:         -11.980
REMARK INTER:                 -10.053
REMARK INTRA:                  -1.928
REMARK UNBOUND:                -1.186
REMARK  Name = 
REMARK  9 active torsions:
REMARK  status: ('A' for Active; 'I' for Inactive)
REMARK    1  A    between atoms: C_2  and  C_3
REMARK    2  A    between atoms: C_3  and  C_4
REMARK    3  A    between atoms: C_3  and  N_11
REMARK    4  A    between atoms: C_4  and  C_5
REMARK    5  A    between atoms: N_11  and  C_12
REMARK    6  A    between atoms: C_12  and  C_13
REMARK    7  A    between atoms: C_16  and  C_17
REMARK    8  A    between atoms: C_17  and  N_18
REMARK    9  A    between atoms: C_19  and  C_21
REMARK                            x       y       z     vdW  Elec       q    Type
REMARK                         _______ _______ _______ _____ _____    ______ ____
ROOT
ATOM      1  C   UNL     1      48.898   8.151  16.070  0.00  0.00    +0.000 A 
ATOM      2  C   UNL     1      49.230   7.010  15.325  0.00  0.00    +0.000 A 
ATOM      3  C   UNL     1      48.847   6.897  13.985  0.00  0.00    +0.000 A 
ATOM      4  C   UNL     1      48.120   7.920  13.363  0.00  0.00    +0.000 A 
ATOM      5  C   UNL     1      47.734   9.031  14.122  0.00  0.00    +0.000 A 
ATOM      6  C   UNL     1      48.126   9.150  15.457  0.00  0.00    +0.000 A 
ENDROOT
BRANCH   1   7
ATOM      7  C   UNL     1      49.333   8.301  17.511  0.00  0.00    +0.000 C 
BRANCH   7   8
ATOM      8  N   UNL     1      48.186   8.491  18.407  0.00  0.00    +0.000 NA
ATOM      9  H   UNL     1      48.378   9.268  19.036  0.00  0.00    +0.000 HD
BRANCH   8  10
ATOM     10  C   UNL     1      47.867   7.277  19.204  0.00  0.00    +0.000 C 
BRANCH  10  12
ATOM     11  N   UNL     1      47.426   7.791  21.765  0.00  0.00    +0.000 NA
ATOM     12  C   UNL     1      47.607   7.595  20.633  0.00  0.00    +0.000 C 
ENDBRANCH  10  12
BRANCH  10  13
ATOM     13  C   UNL     1      49.050   6.285  19.069  0.00  0.00    +0.000 C 
BRANCH  13  14
ATOM     14  C   UNL     1      48.751   5.019  18.292  0.00  0.00    +0.000 A 
ATOM     15  C   UNL     1      47.471   4.759  17.785  0.00  0.00    +0.000 A 
ATOM     16  C   UNL     1      47.217   3.582  17.075  0.00  0.00    +0.000 A 
ATOM     17  C   UNL     1      48.238   2.655  16.864  0.00  0.00    +0.000 A 
ATOM     18  C   UNL     1      49.515   2.907  17.356  0.00  0.00    +0.000 A 
ATOM     19  C   UNL     1      49.770   4.082  18.065  0.00  0.00    +0.000 A 
ENDBRANCH  13  14
ENDBRANCH  10  13
ENDBRANCH   8  10
ENDBRANCH   7   8
ENDBRANCH   1   7
BRANCH   4  20
ATOM     20  C   UNL     1      47.703   7.803  11.922  0.00  0.00    +0.000 C 
BRANCH  20  21
ATOM     21  N   UNL     1      46.990   6.573  11.711  0.00  0.00    +0.000 N 
ATOM     22  C   UNL     1      45.625   6.501  11.780  0.00  0.00    +0.000 C 
ATOM     23  O   UNL     1      44.926   7.489  11.980  0.00  0.00    +0.000 OA
ATOM     24  H   UNL     1      47.536   5.721  11.783  0.00  0.00    +0.000 HD
BRANCH  22  25
ATOM     25  C   UNL     1      45.042   5.177  11.530  0.00  0.00    +0.000 A 
ATOM     26  C   UNL     1      44.364   4.518  12.545  0.00  0.00    +0.000 A 
ATOM     27  S   UNL     1      43.663   3.043  12.053  0.00  0.00    +0.000 S 
ATOM     28  C   UNL     1      44.289   3.206  10.478  0.00  0.00    +0.000 A 
ATOM     29  N   UNL     1      44.053   2.259   9.530  0.00  0.00    +0.000 NA
ATOM     30  C   UNL     1      44.609   2.503   8.389  0.00  0.00    +0.000 A 
ATOM     31  N   UNL     1      45.379   3.600   8.110  0.00  0.00    +0.000 N 
ATOM     32  C   UNL     1      45.631   4.587   9.032  0.00  0.00    +0.000 A 
ATOM     33  O   UNL     1      46.307   5.567   8.742  0.00  0.00    +0.000 OA
ATOM     34  C   UNL     1      45.019   4.370  10.331  0.00  0.00    +0.000 A 
ATOM     35  H   UNL     1      45.788   3.729   7.197  0.00  0.00    +0.000 HD
ENDBRANCH  22  25
ENDBRANCH  20  21
ENDBRANCH   4  20
TORSDOF 9
ENDMDL
MODEL 8
REMARK VINA RESULT:    -7.068      1.899      3.112
REMARK INTER + INTRA:         -11.974
REMARK INTER:                 -10.521
REMARK INTRA:                  -1.452
REMARK UNBOUND:                -1.186
REMARK  Name = 
REMARK  9 active torsions:
REMARK  status: ('A' for Active; 'I' for Inactive)
REMARK    1  A    between atoms: C_2  and  C_3
REMARK    2  A    between atoms: C_3  and  C_4
REMARK    3  A    between atoms: C_3  and  N_11
REMARK    4  A    between atoms: C_4  and  C_5
REMARK    5  A    between atoms: N_11  and  C_12
REMARK    6  A    between atoms: C_12  and  C_13
REMARK    7  A    between atoms: C_16  and  C_17
REMARK    8  A    between atoms: C_17  and  N_18
REMARK    9  A    between atoms: C_19  and  C_21
REMARK                            x       y       z     vdW  Elec       q    Type
REMARK                         _______ _______ _______ _____ _____    ______ ____
ROOT
ATOM      1  C   UNL     1      47.473   5.810  13.929  0.00  0.00    +0.000 A 
ATOM      2  C   UNL     1      48.105   6.231  15.107  0.00  0.00    +0.000 A 
ATOM      3  C   UNL     1      48.210   5.374  16.206  0.00  0.00    +0.000 A 
ATOM      4  C   UNL     1      47.682   4.079  16.152  0.00  0.00    +0.000 A 
ATOM      5  C   UNL     1      46.995   3.677  15.000  0.00  0.00    +0.000 A 
ATOM      6  C   UNL     1      46.901   4.529  13.896  0.00  0.00    +0.000 A 
ENDROOT
BRANCH   1   7
ATOM      7  C   UNL     1      47.380   6.716  12.721  0.00  0.00    +0.000 C 
BRANCH   7   8
ATOM      8  N   UNL     1      46.163   7.536  12.750  0.00  0.00    +0.000 NA
ATOM      9  H   UNL     1      45.610   7.284  13.567  0.00  0.00    +0.000 HD
BRANCH   8  10
ATOM     10  C   UNL     1      45.333   7.383  11.525  0.00  0.00    +0.000 C 
BRANCH  10  12
ATOM     11  N   UNL     1      43.904   9.562  11.051  0.00  0.00    +0.000 NA
ATOM     12  C   UNL     1      44.504   8.587  11.254  0.00  0.00    +0.000 C 
ENDBRANCH  10  12
BRANCH  10  13
ATOM     13  C   UNL     1      44.440   6.129  11.700  0.00  0.00    +0.000 C 
BRANCH  13  14
ATOM     14  C   UNL     1      44.661   5.028  10.682  0.00  0.00    +0.000 A 
ATOM     15  C   UNL     1      45.434   5.239   9.534  0.00  0.00    +0.000 A 
ATOM     16  C   UNL     1      45.621   4.210   8.606  0.00  0.00    +0.000 A 
ATOM     17  C   UNL     1      45.038   2.961   8.818  0.00  0.00    +0.000 A 
ATOM     18  C   UNL     1      44.274   2.737   9.959  0.00  0.00    +0.000 A 
ATOM     19  C   UNL     1      44.088   3.764  10.886  0.00  0.00    +0.000 A 
ENDBRANCH  13  14
ENDBRANCH  10  13
ENDBRANCH   8  10
ENDBRANCH   7   8
ENDBRANCH   1   7
BRANCH   4  20
ATOM     20  C   UNL     1      47.790   3.151  17.332  0.00  0.00    +0.000 C 
BRANCH  20  21
ATOM     21  N   UNL     1      49.169   2.968  17.693  0.00  0.00    +0.000 N 
ATOM     22  C   UNL     1      50.016   2.180  16.963  0.00  0.00    +0.000 C 
ATOM     23  O   UNL     1      49.662   1.621  15.929  0.00  0.00    +0.000 OA
ATOM     24  H   UNL     1      49.418   3.214  18.646  0.00  0.00    +0.000 HD
BRANCH  22  25
ATOM     25  C   UNL     1      51.398   2.102  17.452  0.00  0.00    +0.000 A 
ATOM     26  C   UNL     1      51.981   0.863  17.678  0.00  0.00    +0.000 A 
ATOM     27  S   UNL     1      53.619   0.955  18.143  0.00  0.00    +0.000 S 
ATOM     28  C   UNL     1      53.591   2.657  18.113  0.00  0.00    +0.000 A 
ATOM     29  N   UNL     1      54.702   3.380  18.421  0.00  0.00    +0.000 NA
ATOM     30  C   UNL     1      54.528   4.660  18.380  0.00  0.00    +0.000 A 
ATOM     31  N   UNL     1      53.350   5.282  18.064  0.00  0.00    +0.000 N 
ATOM     32  C   UNL     1      52.209   4.591  17.732  0.00  0.00    +0.000 A 
ATOM     33  O   UNL     1      51.176   5.180  17.433  0.00  0.00    +0.000 OA
ATOM     34  C   UNL     1      52.351   3.147  17.751  0.00  0.00    +0.000 A 
ATOM     35  H   UNL     1      53.280   6.288  18.052  0.00  0.00    +0.000 HD
ENDBRANCH  22  25
ENDBRANCH  20  21
ENDBRANCH   4  20
TORSDOF 9
ENDMDL
MODEL 9
REMARK VINA RESULT:    -6.981      4.381      9.711
REMARK INTER + INTRA:         -11.840
REMARK INTER:                  -9.265
REMARK INTRA:                  -2.575
REMARK UNBOUND:                -1.186
REMARK  Name = 
REMARK  9 active torsions:
REMARK  status: ('A' for Active; 'I' for Inactive)
REMARK    1  A    between atoms: C_2  and  C_3
REMARK    2  A    between atoms: C_3  and  C_4
REMARK    3  A    between atoms: C_3  and  N_11
REMARK    4  A    between atoms: C_4  and  C_5
REMARK    5  A    between atoms: N_11  and  C_12
REMARK    6  A    between atoms: C_12  and  C_13
REMARK    7  A    between atoms: C_16  and  C_17
REMARK    8  A    between atoms: C_17  and  N_18
REMARK    9  A    between atoms: C_19  and  C_21
REMARK                            x       y       z     vdW  Elec       q    Type
REMARK                         _______ _______ _______ _____ _____    ______ ____
ROOT
ATOM      1  C   UNL     1      48.415   5.643  20.389  0.00  0.00    +0.000 A 
ATOM      2  C   UNL     1      47.265   5.969  19.657  0.00  0.00    +0.000 A 
ATOM      3  C   UNL     1      46.986   5.332  18.445  0.00  0.00    +0.000 A 
ATOM      4  C   UNL     1      47.854   4.357  17.937  0.00  0.00    +0.000 A 
ATOM      5  C   UNL     1      49.034   4.075  18.634  0.00  0.00    +0.000 A 
ATOM      6  C   UNL     1      49.307   4.703  19.851  0.00  0.00    +0.000 A 
ENDROOT
BRANCH   1   7
ATOM      7  C   UNL     1      48.713   6.302  21.718  0.00  0.00    +0.000 C 
BRANCH   7   8
ATOM      8  N   UNL     1      49.883   7.185  21.635  0.00  0.00    +0.000 NA
ATOM      9  H   UNL     1      50.551   6.922  22.357  0.00  0.00    +0.000 HD
BRANCH   8  10
ATOM     10  C   UNL     1      49.534   8.623  21.784  0.00  0.00    +0.000 C 
BRANCH  10  12
ATOM     11  N   UNL     1      46.914   8.990  21.912  0.00  0.00    +0.000 NA
ATOM     12  C   UNL     1      48.066   8.837  21.888  0.00  0.00    +0.000 C 
ENDBRANCH  10  12
BRANCH  10  13
ATOM     13  C   UNL     1      50.117   9.391  20.571  0.00  0.00    +0.000 C 
BRANCH  13  14
ATOM     14  C   UNL     1      49.705   8.865  19.211  0.00  0.00    +0.000 A 
ATOM     15  C   UNL     1      48.521   9.288  18.593  0.00  0.00    +0.000 A 
ATOM     16  C   UNL     1      48.158   8.787  17.339  0.00  0.00    +0.000 A 
ATOM     17  C   UNL     1      48.976   7.861  16.691  0.00  0.00    +0.000 A 
ATOM     18  C   UNL     1      50.158   7.440  17.292  0.00  0.00    +0.000 A 
ATOM     19  C   UNL     1      50.521   7.940  18.543  0.00  0.00    +0.000 A 
ENDBRANCH  13  14
ENDBRANCH  10  13
ENDBRANCH   8  10
ENDBRANCH   7   8
ENDBRANCH   1   7
BRANCH   4  20
ATOM     20  C   UNL     1      47.560   3.668  16.631  0.00  0.00    +0.000 C 
BRANCH  20  21
ATOM     21  N   UNL     1      47.016   4.606  15.688  0.00  0.00    +0.000 N 
ATOM     22  C   UNL     1      46.886   4.311  14.358  0.00  0.00    +0.000 C 
ATOM     23  O   UNL     1      47.182   3.211  13.899  0.00  0.00    +0.000 OA
ATOM     24  H   UNL     1      46.991   5.576  15.985  0.00  0.00    +0.000 HD
BRANCH  22  25
ATOM     25  C   UNL     1      46.304   5.367  13.522  0.00  0.00    +0.000 A 
ATOM     26  C   UNL     1      47.028   6.522  13.264  0.00  0.00    +0.000 A 
ATOM     27  S   UNL     1      46.245   7.594  12.193  0.00  0.00    +0.000 S 
ATOM     28  C   UNL     1      44.884   6.578  12.082  0.00  0.00    +0.000 A 
ATOM     29  N   UNL     1      43.819   6.918  11.306  0.00  0.00    +0.000 NA
ATOM     30  C   UNL     1      42.849   6.065  11.335  0.00  0.00    +0.000 A 
ATOM     31  N   UNL     1      42.844   4.908  12.068  0.00  0.00    +0.000 N 
ATOM     32  C   UNL     1      43.902   4.519  12.852  0.00  0.00    +0.000 A 
ATOM     33  O   UNL     1      43.873   3.466  13.479  0.00  0.00    +0.000 OA
ATOM     34  C   UNL     1      45.027   5.436  12.847  0.00  0.00    +0.000 A 
ATOM     35  H   UNL     1      42.051   4.284  12.049  0.00  0.00    +0.000 HD
ENDBRANCH  22  25
ENDBRANCH  20  21
ENDBRANCH   4  20
TORSDOF 9
ENDMDL
