MODEL 1
REMARK VINA RESULT:    -8.259      0.000      0.000
REMARK INTER + INTRA:         -12.297
REMARK INTER:                 -11.156
REMARK INTRA:                  -1.141
REMARK UNBOUND:                -1.141
REMARK  Name = 
REMARK  6 active torsions:
REMARK  status: ('A' for Active; 'I' for Inactive)
REMARK    1  A    between atoms: C_2  and  C_4
REMARK    2  A    between atoms: C_7  and  C_8
REMARK    3  A    between atoms: C_8  and  C_9
REMARK    4  A    between atoms: C_9  and  O_10
REMARK    5  A    between atoms: O_10  and  C_11
REMARK    6  A    between atoms: C_15  and  C_16
REMARK                            x       y       z     vdW  Elec       q    Type
REMARK                         _______ _______ _______ _____ _____    ______ ____
ROOT
ATOM      1  C   UNL     1      43.520   5.157  10.881  0.00  0.00    +0.000 C 
ENDROOT
BRANCH   1   2
ATOM      2  C   UNL     1      43.656   3.649  10.678  0.00  0.00    +0.000 C 
BRANCH   2   6
ATOM      3  C   UNL     1      46.464   2.723   7.528  0.00  0.00    +0.000 A 
ATOM      4  C   UNL     1      46.055   4.045   7.740  0.00  0.00    +0.000 A 
ATOM      5  C   UNL     1      45.150   4.342   8.763  0.00  0.00    +0.000 A 
ATOM      6  C   UNL     1      44.645   3.326   9.584  0.00  0.00    +0.000 A 
ATOM      7  C   UNL     1      45.033   2.000   9.346  0.00  0.00    +0.000 A 
ATOM      8  C   UNL     1      45.934   1.700   8.321  0.00  0.00    +0.000 A 
BRANCH   3  10
ATOM      9  N   UNL     1      47.481   3.169   5.363  0.00  0.00    +0.000 N 
ATOM     10  C   UNL     1      47.443   2.367   6.471  0.00  0.00    +0.000 C 
ATOM     11  O   UNL     1      48.215   1.425   6.594  0.00  0.00    +0.000 OA
ATOM     12  H   UNL     1      48.234   2.990   4.712  0.00  0.00    +0.000 HD
ATOM     13  H   UNL     1      47.062   4.089   5.354  0.00  0.00    +0.000 HD
ENDBRANCH   3  10
ENDBRANCH   2   6
ENDBRANCH   1   2
BRANCH   1  14
ATOM     14  O   UNL     1      43.856   5.481  12.235  0.00  0.00    +0.000 OA
BRANCH  14  15
ATOM     15  C   UNL     1      45.181   5.752  12.466  0.00  0.00    +0.000 A 
ATOM     16  C   UNL     1      45.983   6.562  11.665  0.00  0.00    +0.000 A 
ATOM     17  C   UNL     1      47.318   6.768  11.995  0.00  0.00    +0.000 A 
ATOM     18  C   UNL     1      47.854   6.181  13.141  0.00  0.00    +0.000 A 
ATOM     19  C   UNL     1      47.063   5.402  14.007  0.00  0.00    +0.000 A 
ATOM     20  C   UNL     1      45.720   5.193  13.634  0.00  0.00    +0.000 A 
BRANCH  19  21
ATOM     21  C   UNL     1      47.616   4.879  15.281  0.00  0.00    +0.000 A 
ATOM     22  C   UNL     1      48.390   5.702  16.120  0.00  0.00    +0.000 A 
ATOM     23  C   UNL     1      48.887   5.245  17.345  0.00  0.00    +0.000 A 
ATOM     24  C   UNL     1      48.610   3.951  17.767  0.00  0.00    +0.000 A 
ATOM     25  C   UNL     1      47.852   3.112  16.955  0.00  0.00    +0.000 A 
ATOM     26  C   UNL     1      47.368   3.568  15.723  0.00  0.00    +0.000 A 
ENDBRANCH  19  21
ENDBRANCH  14  15
ENDBRANCH   1  14
TORSDOF 6
ENDMDL
MODEL 2
REMARK VINA RESULT:    -8.223      1.697      3.612
REMARK INTER + INTRA:         -12.248
REMARK INTER:                 -11.148
REMARK INTRA:                  -1.100
REMARK UNBOUND:                -1.141
REMARK  Name = 
REMARK  6 active torsions:
REMARK  status: ('A' for Active; 'I' for Inactive)
REMARK    1  A    between atoms: C_2  and  C_4
REMARK    2  A    between atoms: C_7  and  C_8
REMARK    3  A    between atoms: C_8  and  C_9
REMARK    4  A    between atoms: C_9  and  O_10
REMARK    5  A    between atoms: O_10  and  C_11
REMARK    6  A    between atoms: C_15  and  C_16
REMARK                            x       y       z     vdW  Elec       q    Type
REMARK                         _______ _______ _______ _____ _____    ______ ____
ROOT
ATOM      1  C   UNL     1      43.421   5.267  10.808  0.00  0.00    +0.000 C 
ENDROOT
BRANCH   1   2
ATOM      2  C   UNL     1      43.569   3.752  10.677  0.00  0.00    +0.000 C 
BRANCH   2   6
ATOM      3  C   UNL     1      46.447   2.703   7.632  0.00  0.00    +0.000 A 
ATOM      4  C   UNL     1      46.095   4.042   7.835  0.00  0.00    +0.000 A 
ATOM      5  C   UNL     1      45.167   4.379   8.824  0.00  0.00    +0.000 A 
ATOM      6  C   UNL     1      44.582   3.386   9.620  0.00  0.00    +0.000 A 
ATOM      7  C   UNL     1      44.914   2.043   9.390  0.00  0.00    +0.000 A 
ATOM      8  C   UNL     1      45.838   1.703   8.398  0.00  0.00    +0.000 A 
BRANCH   3  10
ATOM      9  N   UNL     1      47.603   3.134   5.534  0.00  0.00    +0.000 N 
ATOM     10  C   UNL     1      47.447   2.304   6.610  0.00  0.00    +0.000 C 
ATOM     11  O   UNL     1      48.137   1.300   6.737  0.00  0.00    +0.000 OA
ATOM     12  H   UNL     1      48.371   2.917   4.914  0.00  0.00    +0.000 HD
ATOM     13  H   UNL     1      47.257   4.084   5.538  0.00  0.00    +0.000 HD
ENDBRANCH   3  10
ENDBRANCH   2   6
ENDBRANCH   1   2
BRANCH   1  14
ATOM     14  O   UNL     1      43.597   5.640  12.180  0.00  0.00    +0.000 OA
BRANCH  14  15
ATOM     15  C   UNL     1      44.891   5.613  12.637  0.00  0.00    +0.000 A 
ATOM     16  C   UNL     1      45.447   4.589  13.401  0.00  0.00    +0.000 A 
ATOM     17  C   UNL     1      46.774   4.667  13.812  0.00  0.00    +0.000 A 
ATOM     18  C   UNL     1      47.558   5.761  13.443  0.00  0.00    +0.000 A 
ATOM     19  C   UNL     1      47.049   6.786  12.625  0.00  0.00    +0.000 A 
ATOM     20  C   UNL     1      45.696   6.692  12.243  0.00  0.00    +0.000 A 
BRANCH  19  21
ATOM     21  C   UNL     1      47.925   7.884  12.145  0.00  0.00    +0.000 A 
ATOM     22  C   UNL     1      47.457   9.210  12.102  0.00  0.00    +0.000 A 
ATOM     23  C   UNL     1      48.276  10.268  11.693  0.00  0.00    +0.000 A 
ATOM     24  C   UNL     1      49.593  10.023  11.326  0.00  0.00    +0.000 A 
ATOM     25  C   UNL     1      50.082   8.721  11.352  0.00  0.00    +0.000 A 
ATOM     26  C   UNL     1      49.256   7.662  11.749  0.00  0.00    +0.000 A 
ENDBRANCH  19  21
ENDBRANCH  14  15
ENDBRANCH   1  14
TORSDOF 6
ENDMDL
MODEL 3
REMARK VINA RESULT:    -7.972      2.096      4.336
REMARK INTER + INTRA:         -11.909
REMARK INTER:                 -10.901
REMARK INTRA:                  -1.008
REMARK UNBOUND:                -1.141
REMARK  Name = 
REMARK  6 active torsions:
REMARK  status: ('A' for Active; 'I' for Inactive)
REMARK    1  A    between atoms: C_2  and  C_4
REMARK    2  A    between atoms: C_7  and  C_8
REMARK    3  A    between atoms: C_8  and  C_9
REMARK    4  A    between atoms: C_9  and  O_10
REMARK    5  A    between atoms: O_10  and  C_11
REMARK    6  A    between atoms: C_15  and  C_16
REMARK                            x       y       z     vdW  Elec       q    Type
REMARK                         _______ _______ _______ _____ _____    ______ ____
ROOT
ATOM      1  C   UNL     1      44.195   3.439  12.134  0.00  0.00    +0.000 C 
ENDROOT
BRANCH   1   2
ATOM      2  C   UNL     1      43.589   3.711  10.758  0.00  0.00    +0.000 C 
BRANCH   2   6
ATOM      3  C   UNL     1      46.375   2.725   7.608  0.00  0.00    +0.000 A 
ATOM      4  C   UNL     1      45.804   1.711   8.385  0.00  0.00    +0.000 A 
ATOM      5  C   UNL     1      44.899   2.032   9.402  0.00  0.00    +0.000 A 
ATOM      6  C   UNL     1      44.555   3.367   9.651  0.00  0.00    +0.000 A 
ATOM      7  C   UNL     1      45.154   4.381   8.891  0.00  0.00    +0.000 A 
ATOM      8  C   UNL     1      46.063   4.062   7.878  0.00  0.00    +0.000 A 
BRANCH   3  10
ATOM      9  N   UNL     1      47.302   3.267   5.425  0.00  0.00    +0.000 N 
ATOM     10  C   UNL     1      47.320   2.426   6.503  0.00  0.00    +0.000 C 
ATOM     11  O   UNL     1      48.112   1.495   6.564  0.00  0.00    +0.000 OA
ATOM     12  H   UNL     1      48.034   3.127   4.741  0.00  0.00    +0.000 HD
ATOM     13  H   UNL     1      46.867   4.179   5.465  0.00  0.00    +0.000 HD
ENDBRANCH   3  10
ENDBRANCH   2   6
ENDBRANCH   1   2
BRANCH   1  14
ATOM     14  O   UNL     1      44.096   4.623  12.934  0.00  0.00    +0.000 OA
BRANCH  14  15
ATOM     15  C   UNL     1      45.236   5.384  13.005  0.00  0.00    +0.000 A 
ATOM     16  C   UNL     1      46.506   4.894  13.304  0.00  0.00    +0.000 A 
ATOM     17  C   UNL     1      47.594   5.759  13.349  0.00  0.00    +0.000 A 
ATOM     18  C   UNL     1      47.422   7.116  13.076  0.00  0.00    +0.000 A 
ATOM     19  C   UNL     1      46.167   7.639  12.715  0.00  0.00    +0.000 A 
ATOM     20  C   UNL     1      45.078   6.743  12.699  0.00  0.00    +0.000 A 
BRANCH  19  21
ATOM     21  C   UNL     1      46.019   9.061  12.314  0.00  0.00    +0.000 A 
ATOM     22  C   UNL     1      47.148   9.890  12.179  0.00  0.00    +0.000 A 
ATOM     23  C   UNL     1      47.040  11.221  11.763  0.00  0.00    +0.000 A 
ATOM     24  C   UNL     1      45.792  11.753  11.461  0.00  0.00    +0.000 A 
ATOM     25  C   UNL     1      44.657  10.959  11.592  0.00  0.00    +0.000 A 
ATOM     26  C   UNL     1      44.768   9.631  12.022  0.00  0.00    +0.000 A 
ENDBRANCH  19  21
ENDBRANCH  14  15
ENDBRANCH   1  14
TORSDOF 6
ENDMDL
MODEL 4
REMARK VINA RESULT:    -7.923      3.134      7.660
REMARK INTER + INTRA:         -11.843
REMARK INTER:                 -10.712
REMARK INTRA:                  -1.131
REMARK UNBOUND:                -1.141
REMARK  Name = 
REMARK  6 active torsions:
REMARK  status: ('A' for Active; 'I' for Inactive)
REMARK    1  A    between atoms: C_2  and  C_4
REMARK    2  A    between atoms: C_7  and  C_8
REMARK    3  A    between atoms: C_8  and  C_9
REMARK    4  A    between atoms: C_9  and  O_10
REMARK    5  A    between atoms: O_10  and  C_11
REMARK    6  A    between atoms: C_15  and  C_16
REMARK                            x       y       z     vdW  Elec       q    Type
REMARK                         _______ _______ _______ _____ _____    ______ ____
ROOT
ATOM      1  C   UNL     1      45.343   7.179  12.314  0.00  0.00    +0.000 C 
ENDROOT
BRANCH   1   2
ATOM      2  C   UNL     1      46.750   6.585  12.278  0.00  0.00    +0.000 C 
BRANCH   2   6
ATOM      3  C   UNL     1      47.679   4.429  15.904  0.00  0.00    +0.000 A 
ATOM      4  C   UNL     1      48.224   5.698  15.681  0.00  0.00    +0.000 A 
ATOM      5  C   UNL     1      47.919   6.396  14.509  0.00  0.00    +0.000 A 
ATOM      6  C   UNL     1      47.066   5.835  13.550  0.00  0.00    +0.000 A 
ATOM      7  C   UNL     1      46.549   4.550  13.763  0.00  0.00    +0.000 A 
ATOM      8  C   UNL     1      46.857   3.849  14.932  0.00  0.00    +0.000 A 
BRANCH   3  10
ATOM      9  N   UNL     1      46.957   2.860  17.619  0.00  0.00    +0.000 N 
ATOM     10  C   UNL     1      47.957   3.665  17.146  0.00  0.00    +0.000 C 
ATOM     11  O   UNL     1      49.044   3.714  17.706  0.00  0.00    +0.000 OA
ATOM     12  H   UNL     1      47.202   2.253  18.389  0.00  0.00    +0.000 HD
ATOM     13  H   UNL     1      46.169   2.593  17.044  0.00  0.00    +0.000 HD
ENDBRANCH   3  10
ENDBRANCH   2   6
ENDBRANCH   1   2
BRANCH   1  14
ATOM     14  O   UNL     1      44.657   6.835  11.105  0.00  0.00    +0.000 OA
BRANCH  14  15
ATOM     15  C   UNL     1      44.425   5.495  10.918  0.00  0.00    +0.000 A 
ATOM     16  C   UNL     1      43.497   4.738  11.630  0.00  0.00    +0.000 A 
ATOM     17  C   UNL     1      43.346   3.383  11.356  0.00  0.00    +0.000 A 
ATOM     18  C   UNL     1      44.108   2.782  10.353  0.00  0.00    +0.000 A 
ATOM     19  C   UNL     1      45.014   3.524   9.574  0.00  0.00    +0.000 A 
ATOM     20  C   UNL     1      45.162   4.890   9.889  0.00  0.00    +0.000 A 
BRANCH  19  21
ATOM     21  C   UNL     1      45.732   2.898   8.436  0.00  0.00    +0.000 A 
ATOM     22  C   UNL     1      46.123   3.667   7.323  0.00  0.00    +0.000 A 
ATOM     23  C   UNL     1      46.837   3.110   6.258  0.00  0.00    +0.000 A 
ATOM     24  C   UNL     1      47.189   1.765   6.286  0.00  0.00    +0.000 A 
ATOM     25  C   UNL     1      46.810   0.979   7.370  0.00  0.00    +0.000 A 
ATOM     26  C   UNL     1      46.083   1.537   8.429  0.00  0.00    +0.000 A 
ENDBRANCH  19  21
ENDBRANCH  14  15
ENDBRANCH   1  14
TORSDOF 6
ENDMDL
MODEL 5
REMARK VINA RESULT:    -7.357      3.843      7.214
REMARK INTER + INTRA:         -11.078
REMARK INTER:                 -10.109
REMARK INTRA:                  -0.970
REMARK UNBOUND:                -1.141
REMARK  Name = 
REMARK  6 active torsions:
REMARK  status: ('A' for Active; 'I' for Inactive)
REMARK    1  A    between atoms: C_2  and  C_4
REMARK    2  A    between atoms: C_7  and  C_8
REMARK    3  A    between atoms: C_8  and  C_9
REMARK    4  A    between atoms: C_9  and  O_10
REMARK    5  A    between atoms: O_10  and  C_11
REMARK    6  A    between atoms: C_15  and  C_16
REMARK                            x       y       z     vdW  Elec       q    Type
REMARK                         _______ _______ _______ _____ _____    ______ ____
ROOT
ATOM      1  C   UNL     1      44.918   7.048  12.586  0.00  0.00    +0.000 C 
ENDROOT
BRANCH   1   2
ATOM      2  C   UNL     1      45.590   8.411  12.436  0.00  0.00    +0.000 C 
BRANCH   2   6
ATOM      3  C   UNL     1      49.822   8.013  11.666  0.00  0.00    +0.000 A 
ATOM      4  C   UNL     1      49.044   6.878  11.922  0.00  0.00    +0.000 A 
ATOM      5  C   UNL     1      47.673   7.010  12.167  0.00  0.00    +0.000 A 
ATOM      6  C   UNL     1      47.067   8.272  12.157  0.00  0.00    +0.000 A 
ATOM      7  C   UNL     1      47.857   9.408  11.933  0.00  0.00    +0.000 A 
ATOM      8  C   UNL     1      49.228   9.280  11.693  0.00  0.00    +0.000 A 
BRANCH   3  10
ATOM      9  N   UNL     1      52.134   8.280  12.377  0.00  0.00    +0.000 N 
ATOM     10  C   UNL     1      51.274   7.916  11.377  0.00  0.00    +0.000 C 
ATOM     11  O   UNL     1      51.695   7.490  10.309  0.00  0.00    +0.000 OA
ATOM     12  H   UNL     1      53.113   8.091  12.211  0.00  0.00    +0.000 HD
ATOM     13  H   UNL     1      51.829   8.370  13.337  0.00  0.00    +0.000 HD
ENDBRANCH   3  10
ENDBRANCH   2   6
ENDBRANCH   1   2
BRANCH   1  14
ATOM     14  O   UNL     1      44.311   6.684  11.341  0.00  0.00    +0.000 OA
BRANCH  14  15
ATOM     15  C   UNL     1      44.190   5.335  11.115  0.00  0.00    +0.000 A 
ATOM     16  C   UNL     1      43.345   4.480  11.820  0.00  0.00    +0.000 A 
ATOM     17  C   UNL     1      43.303   3.126  11.505  0.00  0.00    +0.000 A 
ATOM     18  C   UNL     1      44.092   2.623  10.469  0.00  0.00    +0.000 A 
ATOM     19  C   UNL     1      44.914   3.464   9.698  0.00  0.00    +0.000 A 
ATOM     20  C   UNL     1      44.953   4.828  10.054  0.00  0.00    +0.000 A 
BRANCH  19  21
ATOM     21  C   UNL     1      45.659   2.937   8.527  0.00  0.00    +0.000 A 
ATOM     22  C   UNL     1      46.033   3.789   7.471  0.00  0.00    +0.000 A 
ATOM     23  C   UNL     1      46.771   3.327   6.376  0.00  0.00    +0.000 A 
ATOM     24  C   UNL     1      47.163   1.995   6.318  0.00  0.00    +0.000 A 
ATOM     25  C   UNL     1      46.802   1.127   7.345  0.00  0.00    +0.000 A 
ATOM     26  C   UNL     1      46.052   1.591   8.432  0.00  0.00    +0.000 A 
ENDBRANCH  19  21
ENDBRANCH  14  15
ENDBRANCH   1  14
TORSDOF 6
ENDMDL
MODEL 6
REMARK VINA RESULT:    -7.284      3.308      5.955
REMARK INTER + INTRA:         -10.980
REMARK INTER:                 -10.197
REMARK INTRA:                  -0.782
REMARK UNBOUND:                -1.141
REMARK  Name = 
REMARK  6 active torsions:
REMARK  status: ('A' for Active; 'I' for Inactive)
REMARK    1  A    between atoms: C_2  and  C_4
REMARK    2  A    between atoms: C_7  and  C_8
REMARK    3  A    between atoms: C_8  and  C_9
REMARK    4  A    between atoms: C_9  and  O_10
REMARK    5  A    between atoms: O_10  and  C_11
REMARK    6  A    between atoms: C_15  and  C_16
REMARK                            x       y       z     vdW  Elec       q    Type
REMARK                         _______ _______ _______ _____ _____    ______ ____
ROOT
ATOM      1  C   UNL     1      43.698   5.384  10.756  0.00  0.00    +0.000 C 
ENDROOT
BRANCH   1   2
ATOM      2  C   UNL     1      43.637   3.871  10.558  0.00  0.00    +0.000 C 
BRANCH   2   6
ATOM      3  C   UNL     1      46.524   2.538   7.633  0.00  0.00    +0.000 A 
ATOM      4  C   UNL     1      46.221   3.899   7.753  0.00  0.00    +0.000 A 
ATOM      5  C   UNL     1      45.290   4.328   8.703  0.00  0.00    +0.000 A 
ATOM      6  C   UNL     1      44.653   3.405   9.543  0.00  0.00    +0.000 A 
ATOM      7  C   UNL     1      44.935   2.040   9.396  0.00  0.00    +0.000 A 
ATOM      8  C   UNL     1      45.862   1.608   8.443  0.00  0.00    +0.000 A 
BRANCH   3  10
ATOM      9  N   UNL     1      48.586   2.860   6.382  0.00  0.00    +0.000 N 
ATOM     10  C   UNL     1      47.524   2.042   6.655  0.00  0.00    +0.000 C 
ATOM     11  O   UNL     1      47.434   0.935   6.142  0.00  0.00    +0.000 OA
ATOM     12  H   UNL     1      49.320   2.460   5.815  0.00  0.00    +0.000 HD
ATOM     13  H   UNL     1      48.828   3.640   6.980  0.00  0.00    +0.000 HD
ENDBRANCH   3  10
ENDBRANCH   2   6
ENDBRANCH   1   2
BRANCH   1  14
ATOM     14  O   UNL     1      44.665   5.688  11.767  0.00  0.00    +0.000 OA
BRANCH  14  15
ATOM     15  C   UNL     1      44.929   7.022  11.950  0.00  0.00    +0.000 A 
ATOM     16  C   UNL     1      45.947   7.532  12.754  0.00  0.00    +0.000 A 
ATOM     17  C   UNL     1      46.123   8.907  12.867  0.00  0.00    +0.000 A 
ATOM     18  C   UNL     1      45.295   9.780  12.160  0.00  0.00    +0.000 A 
ATOM     19  C   UNL     1      44.294   9.303  11.294  0.00  0.00    +0.000 A 
ATOM     20  C   UNL     1      44.123   7.906  11.217  0.00  0.00    +0.000 A 
BRANCH  19  21
ATOM     21  C   UNL     1      43.497  10.238  10.461  0.00  0.00    +0.000 A 
ATOM     22  C   UNL     1      42.105  10.347  10.635  0.00  0.00    +0.000 A 
ATOM     23  C   UNL     1      41.338  11.250   9.892  0.00  0.00    +0.000 A 
ATOM     24  C   UNL     1      41.951  12.077   8.959  0.00  0.00    +0.000 A 
ATOM     25  C   UNL     1      43.326  11.987   8.761  0.00  0.00    +0.000 A 
ATOM     26  C   UNL     1      44.088  11.072   9.497  0.00  0.00    +0.000 A 
ENDBRANCH  19  21
ENDBRANCH  14  15
ENDBRANCH   1  14
TORSDOF 6
ENDMDL
MODEL 7
REMARK VINA RESULT:    -7.276      3.331      7.440
REMARK INTER + INTRA:         -10.969
REMARK INTER:                  -9.743
REMARK INTRA:                  -1.226
REMARK UNBOUND:                -1.141
REMARK  Name = 
REMARK  6 active torsions:
REMARK  status: ('A' for Active; 'I' for Inactive)
REMARK    1  A    between atoms: C_2  and  C_4
REMARK    2  A    between atoms: C_7  and  C_8
REMARK    3  A    between atoms: C_8  and  C_9
REMARK    4  A    between atoms: C_9  and  O_10
REMARK    5  A    between atoms: O_10  and  C_11
REMARK    6  A    between atoms: C_15  and  C_16
REMARK                            x       y       z     vdW  Elec       q    Type
REMARK                         _______ _______ _______ _____ _____    ______ ____
ROOT
ATOM      1  C   UNL     1      45.919   4.644  14.026  0.00  0.00    +0.000 C 
ENDROOT
BRANCH   1   2
ATOM      2  C   UNL     1      47.325   5.038  13.580  0.00  0.00    +0.000 C 
BRANCH   2   6
ATOM      3  C   UNL     1      47.460   9.131  12.205  0.00  0.00    +0.000 A 
ATOM      4  C   UNL     1      46.234   8.536  12.523  0.00  0.00    +0.000 A 
ATOM      5  C   UNL     1      46.194   7.212  12.972  0.00  0.00    +0.000 A 
ATOM      6  C   UNL     1      47.374   6.471  13.109  0.00  0.00    +0.000 A 
ATOM      7  C   UNL     1      48.596   7.062  12.757  0.00  0.00    +0.000 A 
ATOM      8  C   UNL     1      48.639   8.383  12.303  0.00  0.00    +0.000 A 
BRANCH   3  10
ATOM      9  N   UNL     1      46.723  11.445  12.355  0.00  0.00    +0.000 N 
ATOM     10  C   UNL     1      47.551  10.540  11.749  0.00  0.00    +0.000 C 
ATOM     11  O   UNL     1      48.357  10.895  10.899  0.00  0.00    +0.000 OA
ATOM     12  H   UNL     1      46.883  12.416  12.125  0.00  0.00    +0.000 HD
ATOM     13  H   UNL     1      46.256  11.240  13.228  0.00  0.00    +0.000 HD
ENDBRANCH   3  10
ENDBRANCH   2   6
ENDBRANCH   1   2
BRANCH   1  14
ATOM     14  O   UNL     1      45.476   3.524  13.252  0.00  0.00    +0.000 OA
BRANCH  14  15
ATOM     15  C   UNL     1      44.918   3.830  12.036  0.00  0.00    +0.000 A 
ATOM     16  C   UNL     1      43.861   4.718  11.843  0.00  0.00    +0.000 A 
ATOM     17  C   UNL     1      43.373   4.954  10.563  0.00  0.00    +0.000 A 
ATOM     18  C   UNL     1      43.952   4.318   9.464  0.00  0.00    +0.000 A 
ATOM     19  C   UNL     1      45.057   3.458   9.612  0.00  0.00    +0.000 A 
ATOM     20  C   UNL     1      45.516   3.221  10.923  0.00  0.00    +0.000 A 
BRANCH  19  21
ATOM     21  C   UNL     1      45.736   2.879   8.426  0.00  0.00    +0.000 A 
ATOM     22  C   UNL     1      46.013   3.673   7.297  0.00  0.00    +0.000 A 
ATOM     23  C   UNL     1      46.688   3.162   6.184  0.00  0.00    +0.000 A 
ATOM     24  C   UNL     1      47.114   1.839   6.179  0.00  0.00    +0.000 A 
ATOM     25  C   UNL     1      46.848   1.028   7.278  0.00  0.00    +0.000 A 
ATOM     26  C   UNL     1      46.160   1.540   8.385  0.00  0.00    +0.000 A 
ENDBRANCH  19  21
ENDBRANCH  14  15
ENDBRANCH   1  14
TORSDOF 6
ENDMDL
MODEL 8
REMARK VINA RESULT:    -7.264      2.813      3.661
REMARK INTER + INTRA:         -10.953
REMARK INTER:                 -10.136
REMARK INTRA:                  -0.817
REMARK UNBOUND:                -1.141
REMARK  Name = 
REMARK  6 active torsions:
REMARK  status: ('A' for Active; 'I' for Inactive)
REMARK    1  A    between atoms: C_2  and  C_4
REMARK    2  A    between atoms: C_7  and  C_8
REMARK    3  A    between atoms: C_8  and  C_9
REMARK    4  A    between atoms: C_9  and  O_10
REMARK    5  A    between atoms: O_10  and  C_11
REMARK    6  A    between atoms: C_15  and  C_16
REMARK                            x       y       z     vdW  Elec       q    Type
REMARK                         _______ _______ _______ _____ _____    ______ ____
ROOT
ATOM      1  C   UNL     1      44.176   5.475  11.035  0.00  0.00    +0.000 C 
ENDROOT
BRANCH   1   2
ATOM      2  C   UNL     1      43.914   4.022  10.641  0.00  0.00    +0.000 C 
BRANCH   2   6
ATOM      3  C   UNL     1      46.564   2.728   7.484  0.00  0.00    +0.000 A 
ATOM      4  C   UNL     1      46.306   4.091   7.672  0.00  0.00    +0.000 A 
ATOM      5  C   UNL     1      45.452   4.507   8.697  0.00  0.00    +0.000 A 
ATOM      6  C   UNL     1      44.848   3.570   9.545  0.00  0.00    +0.000 A 
ATOM      7  C   UNL     1      45.083   2.204   9.331  0.00  0.00    +0.000 A 
ATOM      8  C   UNL     1      45.933   1.786   8.303  0.00  0.00    +0.000 A 
BRANCH   3  10
ATOM      9  N   UNL     1      47.554   2.985   5.277  0.00  0.00    +0.000 N 
ATOM     10  C   UNL     1      47.484   2.245   6.424  0.00  0.00    +0.000 C 
ATOM     11  O   UNL     1      48.184   1.253   6.578  0.00  0.00    +0.000 OA
ATOM     12  H   UNL     1      48.273   2.717   4.619  0.00  0.00    +0.000 HD
ATOM     13  H   UNL     1      47.207   3.934   5.230  0.00  0.00    +0.000 HD
ENDBRANCH   3  10
ENDBRANCH   2   6
ENDBRANCH   1   2
BRANCH   1  14
ATOM     14  O   UNL     1      45.311   5.529  11.906  0.00  0.00    +0.000 OA
BRANCH  14  15
ATOM     15  C   UNL     1      45.845   6.778  12.103  0.00  0.00    +0.000 A 
ATOM     16  C   UNL     1      45.113   7.917  12.433  0.00  0.00    +0.000 A 
ATOM     17  C   UNL     1      45.761   9.135  12.610  0.00  0.00    +0.000 A 
ATOM     18  C   UNL     1      47.147   9.217  12.477  0.00  0.00    +0.000 A 
ATOM     19  C   UNL     1      47.927   8.078  12.201  0.00  0.00    +0.000 A 
ATOM     20  C   UNL     1      47.241   6.862  12.005  0.00  0.00    +0.000 A 
BRANCH  19  21
ATOM     21  C   UNL     1      49.409   8.157  12.177  0.00  0.00    +0.000 A 
ATOM     22  C   UNL     1      50.130   7.773  11.030  0.00  0.00    +0.000 A 
ATOM     23  C   UNL     1      51.523   7.877  10.967  0.00  0.00    +0.000 A 
ATOM     24  C   UNL     1      52.231   8.379  12.053  0.00  0.00    +0.000 A 
ATOM     25  C   UNL     1      51.546   8.760  13.202  0.00  0.00    +0.000 A 
ATOM     26  C   UNL     1      50.152   8.642  13.267  0.00  0.00    +0.000 A 
ENDBRANCH  19  21
ENDBRANCH  14  15
ENDBRANCH   1  14
TORSDOF 6
ENDMDL
MODEL 9
REMARK VINA RESULT:    -6.984      4.020      8.696
REMARK INTER + INTRA:         -10.575
REMARK INTER:                  -9.887
REMARK INTRA:                  -0.688
REMARK UNBOUND:                -1.141
REMARK  Name = 
REMARK  6 active torsions:
REMARK  status: ('A' for Active; 'I' for Inactive)
REMARK    1  A    between atoms: C_2  and  C_4
REMARK    2  A    between atoms: C_7  and  C_8
REMARK    3  A    between atoms: C_8  and  C_9
REMARK    4  A    between atoms: C_9  and  O_10
REMARK    5  A    between atoms: O_10  and  C_11
REMARK    6  A    between atoms: C_15  and  C_16
REMARK                            x       y       z     vdW  Elec       q    Type
REMARK                         _______ _______ _______ _____ _____    ______ ____
ROOT
ATOM      1  C   UNL     1      46.780   4.608  13.942  0.00  0.00    +0.000 C 
ENDROOT
BRANCH   1   2
ATOM      2  C   UNL     1      47.385   3.432  14.706  0.00  0.00    +0.000 C 
BRANCH   2   6
ATOM      3  C   UNL     1      48.338   4.505  18.780  0.00  0.00    +0.000 A 
ATOM      4  C   UNL     1      48.097   5.502  17.828  0.00  0.00    +0.000 A 
ATOM      5  C   UNL     1      47.784   5.152  16.511  0.00  0.00    +0.000 A 
ATOM      6  C   UNL     1      47.708   3.806  16.132  0.00  0.00    +0.000 A 
ATOM      7  C   UNL     1      47.983   2.812  17.082  0.00  0.00    +0.000 A 
ATOM      8  C   UNL     1      48.300   3.160  18.398  0.00  0.00    +0.000 A 
BRANCH   3  10
ATOM      9  N   UNL     1      47.623   5.317  20.960  0.00  0.00    +0.000 N 
ATOM     10  C   UNL     1      48.648   4.833  20.195  0.00  0.00    +0.000 C 
ATOM     11  O   UNL     1      49.757   4.641  20.675  0.00  0.00    +0.000 OA
ATOM     12  H   UNL     1      47.815   5.416  21.948  0.00  0.00    +0.000 HD
ATOM     13  H   UNL     1      46.656   5.229  20.677  0.00  0.00    +0.000 HD
ENDBRANCH   3  10
ENDBRANCH   2   6
ENDBRANCH   1   2
BRANCH   1  14
ATOM     14  O   UNL     1      45.357   4.593  14.105  0.00  0.00    +0.000 OA
BRANCH  14  15
ATOM     15  C   UNL     1      44.629   4.639  12.943  0.00  0.00    +0.000 A 
ATOM     16  C   UNL     1      43.386   5.253  12.803  0.00  0.00    +0.000 A 
ATOM     17  C   UNL     1      42.736   5.239  11.574  0.00  0.00    +0.000 A 
ATOM     18  C   UNL     1      43.335   4.629  10.471  0.00  0.00    +0.000 A 
ATOM     19  C   UNL     1      44.614   4.049  10.558  0.00  0.00    +0.000 A 
ATOM     20  C   UNL     1      45.239   4.058  11.822  0.00  0.00    +0.000 A 
BRANCH  19  21
ATOM     21  C   UNL     1      45.289   3.506   9.353  0.00  0.00    +0.000 A 
ATOM     22  C   UNL     1      45.824   4.370   8.379  0.00  0.00    +0.000 A 
ATOM     23  C   UNL     1      46.501   3.884   7.255  0.00  0.00    +0.000 A 
ATOM     24  C   UNL     1      46.668   2.515   7.085  0.00  0.00    +0.000 A 
ATOM     25  C   UNL     1      46.143   1.637   8.028  0.00  0.00    +0.000 A 
ATOM     26  C   UNL     1      45.455   2.126   9.144  0.00  0.00    +0.000 A 
ENDBRANCH  19  21
ENDBRANCH  14  15
ENDBRANCH   1  14
TORSDOF 6
ENDMDL
