MODEL 1
REMARK VINA RESULT:    -8.189      0.000      0.000
REMARK INTER + INTRA:         -13.028
REMARK INTER:                 -11.540
REMARK INTRA:                  -1.489
REMARK UNBOUND:                -1.489
REMARK  Name = 
REMARK  8 active torsions:
REMARK  status: ('A' for Active; 'I' for Inactive)
REMARK    1  A    between atoms: C_1  and  N_2
REMARK    2  A    between atoms: C_4  and  C_5
REMARK    3  A    between atoms: N_7  and  C_8
REMARK    4  A    between atoms: C_8  and  C_9
REMARK    5  A    between atoms: C_12  and  N_13
REMARK    6  A    between atoms: N_13  and  C_14
REMARK    7  A    between atoms: C_14  and  C_15
REMARK    8  A    between atoms: C_15  and  C_16
REMARK                            x       y       z     vdW  Elec       q    Type
REMARK                         _______ _______ _______ _____ _____    ______ ____
ROOT
ATOM      1  C   UNL     1      46.045   7.186  12.339  0.00  0.00    +0.000 A 
ATOM      2  C   UNL     1      46.578   6.543  11.219  0.00  0.00    +0.000 A 
ATOM      3  C   UNL     1      45.841   5.570  10.539  0.00  0.00    +0.000 A 
ATOM      4  C   UNL     1      44.563   5.199  10.972  0.00  0.00    +0.000 A 
ATOM      5  C   UNL     1      43.995   5.918  12.027  0.00  0.00    +0.000 A 
ATOM      6  C   UNL     1      44.729   6.891  12.716  0.00  0.00    +0.000 A 
ENDROOT
BRANCH   4   7
ATOM      7  N   UNL     1      43.773   4.216  10.336  0.00  0.00    +0.000 N 
ATOM      8  H   UNL     1      43.701   4.451   9.346  0.00  0.00    +0.000 HD
BRANCH   7   9
ATOM      9  C   UNL     1      44.251   2.847  10.520  0.00  0.00    +0.000 C 
BRANCH   9  10
ATOM     10  C   UNL     1      44.332   2.098   9.192  0.00  0.00    +0.000 C 
BRANCH  10  11
ATOM     11  C   UNL     1      45.687   2.350   8.499  0.00  0.00    +0.000 C 
ATOM     12  C   UNL     1      45.583   3.418   7.393  0.00  0.00    +0.000 C 
ATOM     13  C   UNL     1      46.912   3.620   6.676  0.00  0.00    +0.000 C 
ATOM     14  C   UNL     1      47.464   2.289   6.187  0.00  0.00    +0.000 C 
ATOM     15  C   UNL     1      47.507   1.263   7.317  0.00  0.00    +0.000 C 
ATOM     16  N   UNL     1      46.189   1.089   7.933  0.00  0.00    +0.000 NA
ATOM     17  H   UNL     1      46.256   0.386   8.669  0.00  0.00    +0.000 HD
ENDBRANCH  10  11
ENDBRANCH   9  10
ENDBRANCH   7   9
ENDBRANCH   4   7
BRANCH   1  18
ATOM     18  C   UNL     1      46.883   8.165  13.115  0.00  0.00    +0.000 C 
BRANCH  18  21
ATOM     19  C   UNL     1      48.588   6.991  14.452  0.00  0.00    +0.000 C 
ATOM     20  O   UNL     1      49.362   6.911  13.505  0.00  0.00    +0.000 OA
ATOM     21  N   UNL     1      47.363   7.615  14.359  0.00  0.00    +0.000 N 
ATOM     22  H   UNL     1      46.754   7.645  15.161  0.00  0.00    +0.000 HD
BRANCH  19  26
ATOM     23  C   UNL     1      50.638   6.374  18.960  0.00  0.00    +0.000 C 
ATOM     24  N   UNL     1      49.823   6.163  17.786  0.00  0.00    +0.000 N 
ATOM     25  C   UNL     1      49.764   6.984  16.695  0.00  0.00    +0.000 A 
ATOM     26  C   UNL     1      48.888   6.429  15.767  0.00  0.00    +0.000 A 
ATOM     27  C   UNL     1      48.387   5.210  16.356  0.00  0.00    +0.000 A 
ATOM     28  C   UNL     1      47.501   4.175  16.064  0.00  0.00    +0.000 A 
ATOM     29 CL   UNL     1      46.575   4.168  14.646  0.00  0.00    +0.000 Cl
ATOM     30  N   UNL     1      47.273   3.160  16.918  0.00  0.00    +0.000 NA
ATOM     31  C   UNL     1      47.944   3.180  18.076  0.00  0.00    +0.000 A 
ATOM     32  N   UNL     1      48.817   4.104  18.500  0.00  0.00    +0.000 NA
ATOM     33  C   UNL     1      48.995   5.090  17.604  0.00  0.00    +0.000 A 
ENDBRANCH  19  26
ENDBRANCH  18  21
ENDBRANCH   1  18
TORSDOF 7
ENDMDL
MODEL 2
REMARK VINA RESULT:    -7.548      1.865      2.176
REMARK INTER + INTRA:         -12.125
REMARK INTER:                 -11.061
REMARK INTRA:                  -1.064
REMARK UNBOUND:                -1.489
REMARK  Name = 
REMARK  8 active torsions:
REMARK  status: ('A' for Active; 'I' for Inactive)
REMARK    1  A    between atoms: C_1  and  N_2
REMARK    2  A    between atoms: C_4  and  C_5
REMARK    3  A    between atoms: N_7  and  C_8
REMARK    4  A    between atoms: C_8  and  C_9
REMARK    5  A    between atoms: C_12  and  N_13
REMARK    6  A    between atoms: N_13  and  C_14
REMARK    7  A    between atoms: C_14  and  C_15
REMARK    8  A    between atoms: C_15  and  C_16
REMARK                            x       y       z     vdW  Elec       q    Type
REMARK                         _______ _______ _______ _____ _____    ______ ____
ROOT
ATOM      1  C   UNL     1      47.221   6.215  13.165  0.00  0.00    +0.000 A 
ATOM      2  C   UNL     1      46.999   5.029  13.870  0.00  0.00    +0.000 A 
ATOM      3  C   UNL     1      46.052   4.104  13.424  0.00  0.00    +0.000 A 
ATOM      4  C   UNL     1      45.289   4.349  12.277  0.00  0.00    +0.000 A 
ATOM      5  C   UNL     1      45.588   5.484  11.520  0.00  0.00    +0.000 A 
ATOM      6  C   UNL     1      46.532   6.418  11.963  0.00  0.00    +0.000 A 
ENDROOT
BRANCH   4   7
ATOM      7  N   UNL     1      44.309   3.459  11.781  0.00  0.00    +0.000 N 
ATOM      8  H   UNL     1      43.432   3.640  12.271  0.00  0.00    +0.000 HD
BRANCH   7   9
ATOM      9  C   UNL     1      44.126   3.513  10.332  0.00  0.00    +0.000 C 
BRANCH   9  10
ATOM     10  C   UNL     1      44.516   2.194   9.668  0.00  0.00    +0.000 C 
BRANCH  10  11
ATOM     11  C   UNL     1      45.738   2.382   8.746  0.00  0.00    +0.000 C 
ATOM     12  C   UNL     1      45.462   3.394   7.617  0.00  0.00    +0.000 C 
ATOM     13  C   UNL     1      46.654   3.532   6.678  0.00  0.00    +0.000 C 
ATOM     14  C   UNL     1      47.100   2.167   6.176  0.00  0.00    +0.000 C 
ATOM     15  C   UNL     1      47.320   1.199   7.336  0.00  0.00    +0.000 C 
ATOM     16  N   UNL     1      46.124   1.084   8.172  0.00  0.00    +0.000 NA
ATOM     17  H   UNL     1      46.305   0.418   8.924  0.00  0.00    +0.000 HD
ENDBRANCH  10  11
ENDBRANCH   9  10
ENDBRANCH   7   9
ENDBRANCH   4   7
BRANCH   1  18
ATOM     18  C   UNL     1      48.177   7.243  13.706  0.00  0.00    +0.000 C 
BRANCH  18  21
ATOM     19  C   UNL     1      49.126   6.984  15.965  0.00  0.00    +0.000 C 
ATOM     20  O   UNL     1      50.189   6.554  15.535  0.00  0.00    +0.000 OA
ATOM     21  N   UNL     1      48.094   7.375  15.140  0.00  0.00    +0.000 N 
ATOM     22  H   UNL     1      47.232   7.710  15.539  0.00  0.00    +0.000 HD
BRANCH  19  26
ATOM     23  C   UNL     1      48.230   9.048  20.419  0.00  0.00    +0.000 C 
ATOM     24  N   UNL     1      48.453   8.063  19.387  0.00  0.00    +0.000 N 
ATOM     25  C   UNL     1      48.641   8.324  18.059  0.00  0.00    +0.000 A 
ATOM     26  C   UNL     1      48.848   7.119  17.393  0.00  0.00    +0.000 A 
ATOM     27  C   UNL     1      48.763   6.081  18.392  0.00  0.00    +0.000 A 
ATOM     28  C   UNL     1      48.832   4.692  18.490  0.00  0.00    +0.000 A 
ATOM     29 CL   UNL     1      49.022   3.712  17.122  0.00  0.00    +0.000 Cl
ATOM     30  N   UNL     1      48.680   4.044  19.660  0.00  0.00    +0.000 NA
ATOM     31  C   UNL     1      48.462   4.796  20.746  0.00  0.00    +0.000 A 
ATOM     32  N   UNL     1      48.362   6.131  20.809  0.00  0.00    +0.000 NA
ATOM     33  C   UNL     1      48.517   6.715  19.609  0.00  0.00    +0.000 A 
ENDBRANCH  19  26
ENDBRANCH  18  21
ENDBRANCH   1  18
TORSDOF 7
ENDMDL
MODEL 3
REMARK VINA RESULT:    -7.545      2.294      2.848
REMARK INTER + INTRA:         -12.121
REMARK INTER:                 -11.196
REMARK INTRA:                  -0.924
REMARK UNBOUND:                -1.489
REMARK  Name = 
REMARK  8 active torsions:
REMARK  status: ('A' for Active; 'I' for Inactive)
REMARK    1  A    between atoms: C_1  and  N_2
REMARK    2  A    between atoms: C_4  and  C_5
REMARK    3  A    between atoms: N_7  and  C_8
REMARK    4  A    between atoms: C_8  and  C_9
REMARK    5  A    between atoms: C_12  and  N_13
REMARK    6  A    between atoms: N_13  and  C_14
REMARK    7  A    between atoms: C_14  and  C_15
REMARK    8  A    between atoms: C_15  and  C_16
REMARK                            x       y       z     vdW  Elec       q    Type
REMARK                         _______ _______ _______ _____ _____    ______ ____
ROOT
ATOM      1  C   UNL     1      47.003   5.948  13.243  0.00  0.00    +0.000 A 
ATOM      2  C   UNL     1      46.570   6.435  12.008  0.00  0.00    +0.000 A 
ATOM      3  C   UNL     1      45.520   5.814  11.326  0.00  0.00    +0.000 A 
ATOM      4  C   UNL     1      44.891   4.680  11.850  0.00  0.00    +0.000 A 
ATOM      5  C   UNL     1      45.257   4.261  13.132  0.00  0.00    +0.000 A 
ATOM      6  C   UNL     1      46.312   4.875  13.818  0.00  0.00    +0.000 A 
ENDROOT
BRANCH   4   7
ATOM      7  N   UNL     1      43.833   4.000  11.206  0.00  0.00    +0.000 N 
ATOM      8  H   UNL     1      42.967   4.511  11.382  0.00  0.00    +0.000 HD
BRANCH   7   9
ATOM      9  C   UNL     1      44.038   3.787   9.774  0.00  0.00    +0.000 C 
BRANCH   9  10
ATOM     10  C   UNL     1      44.566   2.382   9.487  0.00  0.00    +0.000 C 
BRANCH  10  11
ATOM     11  C   UNL     1      45.827   2.439   8.600  0.00  0.00    +0.000 C 
ATOM     12  C   UNL     1      45.640   3.370   7.387  0.00  0.00    +0.000 C 
ATOM     13  C   UNL     1      46.869   3.376   6.485  0.00  0.00    +0.000 C 
ATOM     14  C   UNL     1      47.263   1.956   6.109  0.00  0.00    +0.000 C 
ATOM     15  C   UNL     1      47.395   1.075   7.348  0.00  0.00    +0.000 C 
ATOM     16  N   UNL     1      46.166   1.083   8.145  0.00  0.00    +0.000 NA
ATOM     17  H   UNL     1      46.287   0.471   8.952  0.00  0.00    +0.000 HD
ENDBRANCH  10  11
ENDBRANCH   9  10
ENDBRANCH   7   9
ENDBRANCH   4   7
BRANCH   1  18
ATOM     18  C   UNL     1      48.193   6.570  13.922  0.00  0.00    +0.000 C 
BRANCH  18  21
ATOM     19  C   UNL     1      49.201   6.471  16.169  0.00  0.00    +0.000 C 
ATOM     20  O   UNL     1      50.342   6.486  15.723  0.00  0.00    +0.000 OA
ATOM     21  N   UNL     1      48.087   6.539  15.360  0.00  0.00    +0.000 N 
ATOM     22  H   UNL     1      47.167   6.510  15.770  0.00  0.00    +0.000 HD
BRANCH  19  26
ATOM     23  C   UNL     1      48.738   4.595  20.769  0.00  0.00    +0.000 C 
ATOM     24  N   UNL     1      48.705   5.515  19.656  0.00  0.00    +0.000 N 
ATOM     25  C   UNL     1      49.132   5.249  18.386  0.00  0.00    +0.000 A 
ATOM     26  C   UNL     1      48.912   6.375  17.597  0.00  0.00    +0.000 A 
ATOM     27  C   UNL     1      48.330   7.373  18.464  0.00  0.00    +0.000 A 
ATOM     28  C   UNL     1      47.882   8.691  18.415  0.00  0.00    +0.000 A 
ATOM     29 CL   UNL     1      48.012   9.624  17.007  0.00  0.00    +0.000 Cl
ATOM     30  N   UNL     1      47.388   9.324  19.494  0.00  0.00    +0.000 NA
ATOM     31  C   UNL     1      47.338   8.627  20.636  0.00  0.00    +0.000 A 
ATOM     32  N   UNL     1      47.735   7.364  20.841  0.00  0.00    +0.000 NA
ATOM     33  C   UNL     1      48.222   6.792  19.726  0.00  0.00    +0.000 A 
ENDBRANCH  19  26
ENDBRANCH  18  21
ENDBRANCH   1  18
TORSDOF 7
ENDMDL
MODEL 4
REMARK VINA RESULT:    -6.977      1.711      2.038
REMARK INTER + INTRA:         -11.321
REMARK INTER:                 -10.177
REMARK INTRA:                  -1.145
REMARK UNBOUND:                -1.489
REMARK  Name = 
REMARK  8 active torsions:
REMARK  status: ('A' for Active; 'I' for Inactive)
REMARK    1  A    between atoms: C_1  and  N_2
REMARK    2  A    between atoms: C_4  and  C_5
REMARK    3  A    between atoms: N_7  and  C_8
REMARK    4  A    between atoms: C_8  and  C_9
REMARK    5  A    between atoms: C_12  and  N_13
REMARK    6  A    between atoms: N_13  and  C_14
REMARK    7  A    between atoms: C_14  and  C_15
REMARK    8  A    between atoms: C_15  and  C_16
REMARK                            x       y       z     vdW  Elec       q    Type
REMARK                         _______ _______ _______ _____ _____    ______ ____
ROOT
ATOM      1  C   UNL     1      46.536   7.259  12.899  0.00  0.00    +0.000 A 
ATOM      2  C   UNL     1      45.464   7.776  12.167  0.00  0.00    +0.000 A 
ATOM      3  C   UNL     1      44.528   6.922  11.577  0.00  0.00    +0.000 A 
ATOM      4  C   UNL     1      44.651   5.533  11.684  0.00  0.00    +0.000 A 
ATOM      5  C   UNL     1      45.663   5.026  12.503  0.00  0.00    +0.000 A 
ATOM      6  C   UNL     1      46.607   5.875  13.093  0.00  0.00    +0.000 A 
ENDROOT
BRANCH   4   7
ATOM      7  N   UNL     1      43.746   4.617  11.102  0.00  0.00    +0.000 N 
ATOM      8  H   UNL     1      43.013   5.145  10.629  0.00  0.00    +0.000 HD
BRANCH   7   9
ATOM      9  C   UNL     1      44.366   3.648  10.200  0.00  0.00    +0.000 C 
BRANCH   9  10
ATOM     10  C   UNL     1      44.513   4.213   8.788  0.00  0.00    +0.000 C 
BRANCH  10  11
ATOM     11  C   UNL     1      45.232   3.207   7.865  0.00  0.00    +0.000 C 
ATOM     12  C   UNL     1      45.857   2.041   8.655  0.00  0.00    +0.000 C 
ATOM     13  C   UNL     1      46.614   1.082   7.743  0.00  0.00    +0.000 C 
ATOM     14  C   UNL     1      47.613   1.840   6.882  0.00  0.00    +0.000 C 
ATOM     15  C   UNL     1      46.943   3.004   6.156  0.00  0.00    +0.000 C 
ATOM     16  N   UNL     1      46.271   3.906   7.095  0.00  0.00    +0.000 NA
ATOM     17  H   UNL     1      45.852   4.677   6.575  0.00  0.00    +0.000 HD
ENDBRANCH  10  11
ENDBRANCH   9  10
ENDBRANCH   7   9
ENDBRANCH   4   7
BRANCH   1  18
ATOM     18  C   UNL     1      47.586   8.185  13.451  0.00  0.00    +0.000 C 
BRANCH  18  21
ATOM     19  C   UNL     1      48.850   7.798  15.530  0.00  0.00    +0.000 C 
ATOM     20  O   UNL     1      48.213   8.643  16.146  0.00  0.00    +0.000 OA
ATOM     21  N   UNL     1      48.592   7.487  14.212  0.00  0.00    +0.000 N 
ATOM     22  H   UNL     1      49.152   6.794  13.742  0.00  0.00    +0.000 HD
BRANCH  19  26
ATOM     23  C   UNL     1      53.417   6.603  17.149  0.00  0.00    +0.000 C 
ATOM     24  N   UNL     1      52.007   6.521  16.846  0.00  0.00    +0.000 N 
ATOM     25  C   UNL     1      51.250   7.513  16.288  0.00  0.00    +0.000 A 
ATOM     26  C   UNL     1      49.949   7.045  16.130  0.00  0.00    +0.000 A 
ATOM     27  C   UNL     1      49.936   5.694  16.641  0.00  0.00    +0.000 A 
ATOM     28  C   UNL     1      49.045   4.641  16.837  0.00  0.00    +0.000 A 
ATOM     29 CL   UNL     1      47.396   4.792  16.480  0.00  0.00    +0.000 Cl
ATOM     30  N   UNL     1      49.421   3.472  17.387  0.00  0.00    +0.000 NA
ATOM     31  C   UNL     1      50.707   3.354  17.739  0.00  0.00    +0.000 A 
ATOM     32  N   UNL     1      51.675   4.274  17.621  0.00  0.00    +0.000 NA
ATOM     33  C   UNL     1      51.232   5.418  17.071  0.00  0.00    +0.000 A 
ENDBRANCH  19  26
ENDBRANCH  18  21
ENDBRANCH   1  18
TORSDOF 7
ENDMDL
MODEL 5
REMARK VINA RESULT:    -6.711      2.284      2.770
REMARK INTER + INTRA:         -10.946
REMARK INTER:                 -10.214
REMARK INTRA:                  -0.732
REMARK UNBOUND:                -1.489
REMARK  Name = 
REMARK  8 active torsions:
REMARK  status: ('A' for Active; 'I' for Inactive)
REMARK    1  A    between atoms: C_1  and  N_2
REMARK    2  A    between atoms: C_4  and  C_5
REMARK    3  A    between atoms: N_7  and  C_8
REMARK    4  A    between atoms: C_8  and  C_9
REMARK    5  A    between atoms: C_12  and  N_13
REMARK    6  A    between atoms: N_13  and  C_14
REMARK    7  A    between atoms: C_14  and  C_15
REMARK    8  A    between atoms: C_15  and  C_16
REMARK                            x       y       z     vdW  Elec       q    Type
REMARK                         _______ _______ _______ _____ _____    ______ ____
ROOT
ATOM      1  C   UNL     1      47.137   8.089  13.405  0.00  0.00    +0.000 A 
ATOM      2  C   UNL     1      47.677   7.015  12.691  0.00  0.00    +0.000 A 
ATOM      3  C   UNL     1      46.937   6.383  11.688  0.00  0.00    +0.000 A 
ATOM      4  C   UNL     1      45.633   6.792  11.388  0.00  0.00    +0.000 A 
ATOM      5  C   UNL     1      45.139   7.930  12.030  0.00  0.00    +0.000 A 
ATOM      6  C   UNL     1      45.872   8.565  13.039  0.00  0.00    +0.000 A 
ENDROOT
BRANCH   4   7
ATOM      7  N   UNL     1      44.830   6.188  10.395  0.00  0.00    +0.000 N 
ATOM      8  H   UNL     1      44.662   6.871   9.656  0.00  0.00    +0.000 HD
BRANCH   7   9
ATOM      9  C   UNL     1      45.379   4.946   9.850  0.00  0.00    +0.000 C 
BRANCH   9  10
ATOM     10  C   UNL     1      44.377   4.245   8.935  0.00  0.00    +0.000 C 
BRANCH  10  11
ATOM     11  C   UNL     1      45.090   3.242   8.005  0.00  0.00    +0.000 C 
ATOM     12  C   UNL     1      45.702   2.063   8.785  0.00  0.00    +0.000 C 
ATOM     13  C   UNL     1      46.453   1.106   7.866  0.00  0.00    +0.000 C 
ATOM     14  C   UNL     1      47.462   1.864   7.016  0.00  0.00    +0.000 C 
ATOM     15  C   UNL     1      46.805   3.041   6.300  0.00  0.00    +0.000 C 
ATOM     16  N   UNL     1      46.138   3.939   7.245  0.00  0.00    +0.000 NA
ATOM     17  H   UNL     1      45.727   4.719   6.732  0.00  0.00    +0.000 HD
ENDBRANCH  10  11
ENDBRANCH   9  10
ENDBRANCH   7   9
ENDBRANCH   4   7
BRANCH   1  18
ATOM     18  C   UNL     1      47.909   8.700  14.542  0.00  0.00    +0.000 C 
BRANCH  18  21
ATOM     19  C   UNL     1      49.052   8.073  16.633  0.00  0.00    +0.000 C 
ATOM     20  O   UNL     1      49.324   9.236  16.904  0.00  0.00    +0.000 OA
ATOM     21  N   UNL     1      48.335   7.719  15.510  0.00  0.00    +0.000 N 
ATOM     22  H   UNL     1      48.146   6.748  15.321  0.00  0.00    +0.000 HD
BRANCH  19  26
ATOM     23  C   UNL     1      51.367   3.916  18.139  0.00  0.00    +0.000 C 
ATOM     24  N   UNL     1      50.508   5.078  18.129  0.00  0.00    +0.000 N 
ATOM     25  C   UNL     1      50.416   5.995  17.119  0.00  0.00    +0.000 A 
ATOM     26  C   UNL     1      49.465   6.949  17.470  0.00  0.00    +0.000 A 
ATOM     27  C   UNL     1      48.976   6.577  18.777  0.00  0.00    +0.000 A 
ATOM     28  C   UNL     1      48.082   7.029  19.745  0.00  0.00    +0.000 A 
ATOM     29 CL   UNL     1      47.226   8.479  19.559  0.00  0.00    +0.000 Cl
ATOM     30  N   UNL     1      47.897   6.385  20.912  0.00  0.00    +0.000 NA
ATOM     31  C   UNL     1      48.613   5.271  21.110  0.00  0.00    +0.000 A 
ATOM     32  N   UNL     1      49.512   4.719  20.283  0.00  0.00    +0.000 NA
ATOM     33  C   UNL     1      49.652   5.413  19.140  0.00  0.00    +0.000 A 
ENDBRANCH  19  26
ENDBRANCH  18  21
ENDBRANCH   1  18
TORSDOF 7
ENDMDL
MODEL 6
REMARK VINA RESULT:    -6.416      3.899      6.035
REMARK INTER + INTRA:         -10.531
REMARK INTER:                  -9.530
REMARK INTRA:                  -1.001
REMARK UNBOUND:                -1.489
REMARK  Name = 
REMARK  8 active torsions:
REMARK  status: ('A' for Active; 'I' for Inactive)
REMARK    1  A    between atoms: C_1  and  N_2
REMARK    2  A    between atoms: C_4  and  C_5
REMARK    3  A    between atoms: N_7  and  C_8
REMARK    4  A    between atoms: C_8  and  C_9
REMARK    5  A    between atoms: C_12  and  N_13
REMARK    6  A    between atoms: N_13  and  C_14
REMARK    7  A    between atoms: C_14  and  C_15
REMARK    8  A    between atoms: C_15  and  C_16
REMARK                            x       y       z     vdW  Elec       q    Type
REMARK                         _______ _______ _______ _____ _____    ______ ____
ROOT
ATOM      1  C   UNL     1      45.898   5.143  13.606  0.00  0.00    +0.000 A 
ATOM      2  C   UNL     1      46.534   6.340  13.269  0.00  0.00    +0.000 A 
ATOM      3  C   UNL     1      45.913   7.263  12.424  0.00  0.00    +0.000 A 
ATOM      4  C   UNL     1      44.651   7.004  11.877  0.00  0.00    +0.000 A 
ATOM      5  C   UNL     1      43.976   5.857  12.300  0.00  0.00    +0.000 A 
ATOM      6  C   UNL     1      44.595   4.926  13.143  0.00  0.00    +0.000 A 
ENDROOT
BRANCH   4   7
ATOM      7  N   UNL     1      43.975   7.891  11.009  0.00  0.00    +0.000 N 
ATOM      8  H   UNL     1      42.974   7.713  11.083  0.00  0.00    +0.000 HD
BRANCH   7   9
ATOM      9  C   UNL     1      44.279   9.303  11.235  0.00  0.00    +0.000 C 
BRANCH   9  10
ATOM     10  C   UNL     1      43.763  10.177  10.093  0.00  0.00    +0.000 C 
BRANCH  10  11
ATOM     11  C   UNL     1      42.358  10.729  10.415  0.00  0.00    +0.000 C 
ATOM     12  C   UNL     1      42.417  11.959  11.340  0.00  0.00    +0.000 C 
ATOM     13  C   UNL     1      41.024  12.463  11.699  0.00  0.00    +0.000 C 
ATOM     14  C   UNL     1      40.170  11.330  12.246  0.00  0.00    +0.000 C 
ATOM     15  C   UNL     1      40.182  10.127  11.306  0.00  0.00    +0.000 C 
ATOM     16  N   UNL     1      41.548   9.671  11.038  0.00  0.00    +0.000 NA
ATOM     17  H   UNL     1      41.513   8.858  10.421  0.00  0.00    +0.000 HD
ENDBRANCH  10  11
ENDBRANCH   9  10
ENDBRANCH   7   9
ENDBRANCH   4   7
BRANCH   1  18
ATOM     18  C   UNL     1      46.615   4.119  14.443  0.00  0.00    +0.000 C 
BRANCH  18  21
ATOM     19  C   UNL     1      47.280   4.240  16.813  0.00  0.00    +0.000 C 
ATOM     20  O   UNL     1      46.609   3.260  17.113  0.00  0.00    +0.000 OA
ATOM     21  N   UNL     1      47.365   4.714  15.521  0.00  0.00    +0.000 N 
ATOM     22  H   UNL     1      47.919   5.532  15.323  0.00  0.00    +0.000 HD
BRANCH  19  26
ATOM     23  C   UNL     1      48.536   7.780  20.098  0.00  0.00    +0.000 C 
ATOM     24  N   UNL     1      48.598   6.604  19.262  0.00  0.00    +0.000 N 
ATOM     25  C   UNL     1      47.597   6.141  18.456  0.00  0.00    +0.000 A 
ATOM     26  C   UNL     1      48.048   5.002  17.794  0.00  0.00    +0.000 A 
ATOM     27  C   UNL     1      49.398   4.773  18.250  0.00  0.00    +0.000 A 
ATOM     28  C   UNL     1      50.439   3.864  18.073  0.00  0.00    +0.000 A 
ATOM     29 CL   UNL     1      50.267   2.493  17.094  0.00  0.00    +0.000 Cl
ATOM     30  N   UNL     1      51.613   3.979  18.720  0.00  0.00    +0.000 NA
ATOM     31  C   UNL     1      51.749   5.020  19.551  0.00  0.00    +0.000 A 
ATOM     32  N   UNL     1      50.842   5.967  19.831  0.00  0.00    +0.000 NA
ATOM     33  C   UNL     1      49.692   5.790  19.157  0.00  0.00    +0.000 A 
ENDBRANCH  19  26
ENDBRANCH  18  21
ENDBRANCH   1  18
TORSDOF 7
ENDMDL
MODEL 7
REMARK VINA RESULT:    -6.346      1.940      8.117
REMARK INTER + INTRA:         -10.431
REMARK INTER:                  -9.212
REMARK INTRA:                  -1.219
REMARK UNBOUND:                -1.489
REMARK  Name = 
REMARK  8 active torsions:
REMARK  status: ('A' for Active; 'I' for Inactive)
REMARK    1  A    between atoms: C_1  and  N_2
REMARK    2  A    between atoms: C_4  and  C_5
REMARK    3  A    between atoms: N_7  and  C_8
REMARK    4  A    between atoms: C_8  and  C_9
REMARK    5  A    between atoms: C_12  and  N_13
REMARK    6  A    between atoms: N_13  and  C_14
REMARK    7  A    between atoms: C_14  and  C_15
REMARK    8  A    between atoms: C_15  and  C_16
REMARK                            x       y       z     vdW  Elec       q    Type
REMARK                         _______ _______ _______ _____ _____    ______ ____
ROOT
ATOM      1  C   UNL     1      48.851   7.510  13.303  0.00  0.00    +0.000 A 
ATOM      2  C   UNL     1      50.089   8.021  13.700  0.00  0.00    +0.000 A 
ATOM      3  C   UNL     1      50.627   7.697  14.948  0.00  0.00    +0.000 A 
ATOM      4  C   UNL     1      49.932   6.874  15.840  0.00  0.00    +0.000 A 
ATOM      5  C   UNL     1      48.746   6.282  15.398  0.00  0.00    +0.000 A 
ATOM      6  C   UNL     1      48.200   6.606  14.151  0.00  0.00    +0.000 A 
ENDROOT
BRANCH   4   7
ATOM      7  N   UNL     1      50.415   6.518  17.120  0.00  0.00    +0.000 N 
ATOM      8  H   UNL     1      51.232   7.093  17.327  0.00  0.00    +0.000 HD
BRANCH   7   9
ATOM      9  C   UNL     1      49.419   6.612  18.187  0.00  0.00    +0.000 C 
BRANCH   9  10
ATOM     10  C   UNL     1      49.627   5.528  19.243  0.00  0.00    +0.000 C 
BRANCH  10  11
ATOM     11  C   UNL     1      49.237   4.141  18.692  0.00  0.00    +0.000 C 
ATOM     12  C   UNL     1      50.341   3.540  17.801  0.00  0.00    +0.000 C 
ATOM     13  C   UNL     1      49.925   2.196  17.214  0.00  0.00    +0.000 C 
ATOM     14  C   UNL     1      48.577   2.310  16.519  0.00  0.00    +0.000 C 
ATOM     15  C   UNL     1      47.537   2.947  17.437  0.00  0.00    +0.000 C 
ATOM     16  N   UNL     1      47.983   4.252  17.930  0.00  0.00    +0.000 NA
ATOM     17  H   UNL     1      47.256   4.651  18.524  0.00  0.00    +0.000 HD
ENDBRANCH  10  11
ENDBRANCH   9  10
ENDBRANCH   7   9
ENDBRANCH   4   7
BRANCH   1  18
ATOM     18  C   UNL     1      48.243   7.940  11.996  0.00  0.00    +0.000 C 
BRANCH  18  21
ATOM     19  C   UNL     1      46.168   6.828  11.266  0.00  0.00    +0.000 C 
ATOM     20  O   UNL     1      45.461   7.722  11.715  0.00  0.00    +0.000 OA
ATOM     21  N   UNL     1      47.544   6.866  11.333  0.00  0.00    +0.000 N 
ATOM     22  H   UNL     1      48.085   6.101  10.963  0.00  0.00    +0.000 HD
BRANCH  19  26
ATOM     23  C   UNL     1      44.882   3.549   7.731  0.00  0.00    +0.000 C 
ATOM     24  N   UNL     1      45.046   4.177   9.022  0.00  0.00    +0.000 N 
ATOM     25  C   UNL     1      45.702   5.351   9.262  0.00  0.00    +0.000 A 
ATOM     26  C   UNL     1      45.622   5.636  10.623  0.00  0.00    +0.000 A 
ATOM     27  C   UNL     1      44.882   4.552  11.223  0.00  0.00    +0.000 A 
ATOM     28  C   UNL     1      44.440   4.134  12.477  0.00  0.00    +0.000 A 
ATOM     29 CL   UNL     1      44.819   4.992  13.887  0.00  0.00    +0.000 Cl
ATOM     30  N   UNL     1      43.751   2.992  12.653  0.00  0.00    +0.000 NA
ATOM     31  C   UNL     1      43.496   2.262  11.560  0.00  0.00    +0.000 A 
ATOM     32  N   UNL     1      43.860   2.526  10.298  0.00  0.00    +0.000 NA
ATOM     33  C   UNL     1      44.548   3.676  10.192  0.00  0.00    +0.000 A 
ENDBRANCH  19  26
ENDBRANCH  18  21
ENDBRANCH   1  18
TORSDOF 7
ENDMDL
MODEL 8
REMARK VINA RESULT:    -6.114      3.133      3.561
REMARK INTER + INTRA:         -10.105
REMARK INTER:                  -9.326
REMARK INTRA:                  -0.779
REMARK UNBOUND:                -1.489
REMARK  Name = 
REMARK  8 active torsions:
REMARK  status: ('A' for Active; 'I' for Inactive)
REMARK    1  A    between atoms: C_1  and  N_2
REMARK    2  A    between atoms: C_4  and  C_5
REMARK    3  A    between atoms: N_7  and  C_8
REMARK    4  A    between atoms: C_8  and  C_9
REMARK    5  A    between atoms: C_12  and  N_13
REMARK    6  A    between atoms: N_13  and  C_14
REMARK    7  A    between atoms: C_14  and  C_15
REMARK    8  A    between atoms: C_15  and  C_16
REMARK                            x       y       z     vdW  Elec       q    Type
REMARK                         _______ _______ _______ _____ _____    ______ ____
ROOT
ATOM      1  C   UNL     1      45.077   7.566  12.343  0.00  0.00    +0.000 A 
ATOM      2  C   UNL     1      45.735   6.442  12.850  0.00  0.00    +0.000 A 
ATOM      3  C   UNL     1      45.297   5.155  12.527  0.00  0.00    +0.000 A 
ATOM      4  C   UNL     1      44.181   4.958  11.708  0.00  0.00    +0.000 A 
ATOM      5  C   UNL     1      43.593   6.080  11.120  0.00  0.00    +0.000 A 
ATOM      6  C   UNL     1      44.023   7.373  11.443  0.00  0.00    +0.000 A 
ENDROOT
BRANCH   4   7
ATOM      7  N   UNL     1      43.682   3.684  11.353  0.00  0.00    +0.000 N 
ATOM      8  H   UNL     1      42.977   3.805  10.625  0.00  0.00    +0.000 HD
BRANCH   7   9
ATOM      9  C   UNL     1      44.710   2.730  10.939  0.00  0.00    +0.000 C 
BRANCH   9  10
ATOM     10  C   UNL     1      44.460   2.218   9.521  0.00  0.00    +0.000 C 
BRANCH  10  11
ATOM     11  C   UNL     1      45.714   2.399   8.642  0.00  0.00    +0.000 C 
ATOM     12  C   UNL     1      45.465   3.369   7.470  0.00  0.00    +0.000 C 
ATOM     13  C   UNL     1      46.691   3.499   6.574  0.00  0.00    +0.000 C 
ATOM     14  C   UNL     1      47.180   2.127   6.135  0.00  0.00    +0.000 C 
ATOM     15  C   UNL     1      47.371   1.201   7.334  0.00  0.00    +0.000 C 
ATOM     16  N   UNL     1      46.144   1.091   8.127  0.00  0.00    +0.000 NA
ATOM     17  H   UNL     1      46.307   0.453   8.906  0.00  0.00    +0.000 HD
ENDBRANCH  10  11
ENDBRANCH   9  10
ENDBRANCH   7   9
ENDBRANCH   4   7
BRANCH   1  18
ATOM     18  C   UNL     1      45.502   8.944  12.772  0.00  0.00    +0.000 C 
BRANCH  18  21
ATOM     19  C   UNL     1      47.823   9.496  13.390  0.00  0.00    +0.000 C 
ATOM     20  O   UNL     1      48.018  10.109  12.348  0.00  0.00    +0.000 OA
ATOM     21  N   UNL     1      46.610   8.917  13.695  0.00  0.00    +0.000 N 
ATOM     22  H   UNL     1      46.500   8.410  14.559  0.00  0.00    +0.000 HD
BRANCH  19  26
ATOM     23  C   UNL     1      50.103   9.374  17.827  0.00  0.00    +0.000 C 
ATOM     24  N   UNL     1      49.868   9.271  16.406  0.00  0.00    +0.000 N 
ATOM     25  C   UNL     1      48.674   9.483  15.775  0.00  0.00    +0.000 A 
ATOM     26  C   UNL     1      48.858   9.315  14.406  0.00  0.00    +0.000 A 
ATOM     27  C   UNL     1      50.246   8.968  14.220  0.00  0.00    +0.000 A 
ATOM     28  C   UNL     1      51.131   8.640  13.194  0.00  0.00    +0.000 A 
ATOM     29 CL   UNL     1      50.618   8.497  11.587  0.00  0.00    +0.000 Cl
ATOM     30  N   UNL     1      52.424   8.348  13.425  0.00  0.00    +0.000 NA
ATOM     31  C   UNL     1      52.838   8.389  14.698  0.00  0.00    +0.000 A 
ATOM     32  N   UNL     1      52.109   8.678  15.785  0.00  0.00    +0.000 NA
ATOM     33  C   UNL     1      50.828   8.955  15.486  0.00  0.00    +0.000 A 
ENDBRANCH  19  26
ENDBRANCH  18  21
ENDBRANCH   1  18
TORSDOF 7
ENDMDL
MODEL 9
REMARK VINA RESULT:    -6.077      3.868      6.211
REMARK INTER + INTRA:         -10.052
REMARK INTER:                  -8.897
REMARK INTRA:                  -1.155
REMARK UNBOUND:                -1.489
REMARK  Name = 
REMARK  8 active torsions:
REMARK  status: ('A' for Active; 'I' for Inactive)
REMARK    1  A    between atoms: C_1  and  N_2
REMARK    2  A    between atoms: C_4  and  C_5
REMARK    3  A    between atoms: N_7  and  C_8
REMARK    4  A    between atoms: C_8  and  C_9
REMARK    5  A    between atoms: C_12  and  N_13
REMARK    6  A    between atoms: N_13  and  C_14
REMARK    7  A    between atoms: C_14  and  C_15
REMARK    8  A    between atoms: C_15  and  C_16
REMARK                            x       y       z     vdW  Elec       q    Type
REMARK                         _______ _______ _______ _____ _____    ______ ____
ROOT
ATOM      1  C   UNL     1      46.403   5.733  13.515  0.00  0.00    +0.000 A 
ATOM      2  C   UNL     1      46.810   7.008  13.113  0.00  0.00    +0.000 A 
ATOM      3  C   UNL     1      45.981   7.801  12.316  0.00  0.00    +0.000 A 
ATOM      4  C   UNL     1      44.736   7.334  11.882  0.00  0.00    +0.000 A 
ATOM      5  C   UNL     1      44.290   6.104  12.373  0.00  0.00    +0.000 A 
ATOM      6  C   UNL     1      45.118   5.302  13.168  0.00  0.00    +0.000 A 
ENDROOT
BRANCH   4   7
ATOM      7  N   UNL     1      43.857   8.082  11.067  0.00  0.00    +0.000 N 
ATOM      8  H   UNL     1      42.898   7.847  11.326  0.00  0.00    +0.000 HD
BRANCH   7   9
ATOM      9  C   UNL     1      44.077   9.527  11.112  0.00  0.00    +0.000 C 
BRANCH   9  10
ATOM     10  C   UNL     1      43.416  10.231   9.929  0.00  0.00    +0.000 C 
BRANCH  10  11
ATOM     11  C   UNL     1      42.011  10.743  10.309  0.00  0.00    +0.000 C 
ATOM     12  C   UNL     1      42.071  12.035  11.146  0.00  0.00    +0.000 C 
ATOM     13  C   UNL     1      40.682  12.503  11.564  0.00  0.00    +0.000 C 
ATOM     14  C   UNL     1      39.920  11.374  12.241  0.00  0.00    +0.000 C 
ATOM     15  C   UNL     1      39.928  10.112  11.383  0.00  0.00    +0.000 C 
ATOM     16  N   UNL     1      41.293   9.697  11.053  0.00  0.00    +0.000 NA
ATOM     17  H   UNL     1      41.257   8.844  10.494  0.00  0.00    +0.000 HD
ENDBRANCH  10  11
ENDBRANCH   9  10
ENDBRANCH   7   9
ENDBRANCH   4   7
BRANCH   1  18
ATOM     18  C   UNL     1      47.343   4.855  14.296  0.00  0.00    +0.000 C 
BRANCH  18  21
ATOM     19  C   UNL     1      48.508   5.795  16.254  0.00  0.00    +0.000 C 
ATOM     20  O   UNL     1      49.494   6.099  15.596  0.00  0.00    +0.000 OA
ATOM     21  N   UNL     1      47.393   5.207  15.694  0.00  0.00    +0.000 N 
ATOM     22  H   UNL     1      46.610   4.961  16.277  0.00  0.00    +0.000 HD
BRANCH  19  26
ATOM     23  C   UNL     1      48.395   4.914  21.165  0.00  0.00    +0.000 C 
ATOM     24  N   UNL     1      48.364   5.605  19.896  0.00  0.00    +0.000 N 
ATOM     25  C   UNL     1      48.547   5.033  18.669  0.00  0.00    +0.000 A 
ATOM     26  C   UNL     1      48.419   6.019  17.695  0.00  0.00    +0.000 A 
ATOM     27  C   UNL     1      48.158   7.254  18.396  0.00  0.00    +0.000 A 
ATOM     28  C   UNL     1      47.950   8.605  18.126  0.00  0.00    +0.000 A 
ATOM     29 CL   UNL     1      48.038   9.222  16.551  0.00  0.00    +0.000 Cl
ATOM     30  N   UNL     1      47.742   9.510  19.099  0.00  0.00    +0.000 NA
ATOM     31  C   UNL     1      47.735   9.056  20.358  0.00  0.00    +0.000 A 
ATOM     32  N   UNL     1      47.926   7.796  20.774  0.00  0.00    +0.000 NA
ATOM     33  C   UNL     1      48.133   6.945  19.754  0.00  0.00    +0.000 A 
ENDBRANCH  19  26
ENDBRANCH  18  21
ENDBRANCH   1  18
TORSDOF 7
ENDMDL
