MODEL 1
REMARK VINA RESULT:    -8.368      0.000      0.000
REMARK INTER + INTRA:         -14.042
REMARK INTER:                 -12.770
REMARK INTRA:                  -1.272
REMARK UNBOUND:                -1.272
REMARK  Name = 
REMARK  10 active torsions:
REMARK  status: ('A' for Active; 'I' for Inactive)
REMARK    1  A    between atoms: C_1  and  C_2
REMARK    2  A    between atoms: C_2  and  C_3
REMARK    3  A    between atoms: C_3  and  C_4
REMARK    4  A    between atoms: C_4  and  N_5
REMARK    5  A    between atoms: C_4  and  C_13
REMARK    6  A    between atoms: N_5  and  C_6
REMARK    7  A    between atoms: C_6  and  C_7
REMARK    8  A    between atoms: C_16  and  C_17
REMARK    9  A    between atoms: C_17  and  N_18
REMARK   10  A    between atoms: C_19  and  C_21
REMARK                            x       y       z     vdW  Elec       q    Type
REMARK                         _______ _______ _______ _____ _____    ______ ____
ROOT
ATOM      1  C   UNL     1      45.539   4.730  11.761  0.00  0.00    +0.000 A 
ATOM      2  C   UNL     1      46.008   5.932  11.202  0.00  0.00    +0.000 A 
ATOM      3  C   UNL     1      47.000   6.687  11.844  0.00  0.00    +0.000 A 
ATOM      4  C   UNL     1      47.553   6.259  13.058  0.00  0.00    +0.000 A 
ATOM      5  C   UNL     1      47.086   5.066  13.619  0.00  0.00    +0.000 A 
ATOM      6  C   UNL     1      46.119   4.300  12.964  0.00  0.00    +0.000 A 
ENDROOT
BRANCH   1   7
ATOM      7  C   UNL     1      44.440   3.925  11.059  0.00  0.00    +0.000 C 
BRANCH   7   8
ATOM      8  N   UNL     1      44.981   2.599  10.711  0.00  0.00    +0.000 NA
ATOM      9  H   UNL     1      46.000   2.667  10.680  0.00  0.00    +0.000 HD
BRANCH   8  10
ATOM     10  C   UNL     1      44.535   2.097   9.402  0.00  0.00    +0.000 C 
BRANCH  10  11
ATOM     11  C   UNL     1      45.630   2.167   8.355  0.00  0.00    +0.000 A 
ATOM     12  C   UNL     1      45.864   3.362   7.674  0.00  0.00    +0.000 A 
ATOM     13  C   UNL     1      46.881   3.411   6.727  0.00  0.00    +0.000 A 
ATOM     14  C   UNL     1      47.644   2.275   6.494  0.00  0.00    +0.000 A 
ATOM     15  C   UNL     1      47.356   1.131   7.220  0.00  0.00    +0.000 A 
ATOM     16  N   UNL     1      46.370   1.049   8.140  0.00  0.00    +0.000 NA
ENDBRANCH  10  11
ENDBRANCH   8  10
ENDBRANCH   7   8
BRANCH   7  17
ATOM     17  C   UNL     1      43.142   3.803  11.898  0.00  0.00    +0.000 C 
BRANCH  17  19
ATOM     18  C   UNL     1      42.222   6.125  11.707  0.00  0.00    +0.000 C 
ATOM     19  C   UNL     1      42.763   5.073  12.663  0.00  0.00    +0.000 C 
ENDBRANCH  17  19
ENDBRANCH   7  17
ENDBRANCH   1   7
BRANCH   4  20
ATOM     20  C   UNL     1      48.601   7.063  13.779  0.00  0.00    +0.000 C 
BRANCH  20  21
ATOM     21  N   UNL     1      48.329   7.134  15.192  0.00  0.00    +0.000 N 
ATOM     22  C   UNL     1      49.287   6.810  16.117  0.00  0.00    +0.000 C 
ATOM     23  O   UNL     1      50.427   6.491  15.789  0.00  0.00    +0.000 OA
ATOM     24  H   UNL     1      47.353   7.163  15.472  0.00  0.00    +0.000 HD
BRANCH  22  25
ATOM     25  C   UNL     1      48.902   6.927  17.530  0.00  0.00    +0.000 A 
ATOM     26  C   UNL     1      48.470   8.150  18.025  0.00  0.00    +0.000 A 
ATOM     27  S   UNL     1      47.997   8.098  19.662  0.00  0.00    +0.000 S 
ATOM     28  C   UNL     1      48.405   6.452  19.784  0.00  0.00    +0.000 A 
ATOM     29  N   UNL     1      48.255   5.780  20.957  0.00  0.00    +0.000 NA
ATOM     30  C   UNL     1      48.639   4.548  20.919  0.00  0.00    +0.000 A 
ATOM     31  N   UNL     1      49.155   3.925  19.813  0.00  0.00    +0.000 N 
ATOM     32  C   UNL     1      49.296   4.553  18.598  0.00  0.00    +0.000 A 
ATOM     33  O   UNL     1      49.725   3.955  17.618  0.00  0.00    +0.000 OA
ATOM     34  C   UNL     1      48.886   5.945  18.589  0.00  0.00    +0.000 A 
ATOM     35  H   UNL     1      49.434   2.956  19.848  0.00  0.00    +0.000 HD
ENDBRANCH  22  25
ENDBRANCH  20  21
ENDBRANCH   4  20
TORSDOF 9
ENDMDL
MODEL 2
REMARK VINA RESULT:    -8.228      1.317      1.950
REMARK INTER + INTRA:         -13.829
REMARK INTER:                 -12.444
REMARK INTRA:                  -1.385
REMARK UNBOUND:                -1.272
REMARK  Name = 
REMARK  10 active torsions:
REMARK  status: ('A' for Active; 'I' for Inactive)
REMARK    1  A    between atoms: C_1  and  C_2
REMARK    2  A    between atoms: C_2  and  C_3
REMARK    3  A    between atoms: C_3  and  C_4
REMARK    4  A    between atoms: C_4  and  N_5
REMARK    5  A    between atoms: C_4  and  C_13
REMARK    6  A    between atoms: N_5  and  C_6
REMARK    7  A    between atoms: C_6  and  C_7
REMARK    8  A    between atoms: C_16  and  C_17
REMARK    9  A    between atoms: C_17  and  N_18
REMARK   10  A    between atoms: C_19  and  C_21
REMARK                            x       y       z     vdW  Elec       q    Type
REMARK                         _______ _______ _______ _____ _____    ______ ____
ROOT
ATOM      1  C   UNL     1      45.644   4.784  12.100  0.00  0.00    +0.000 A 
ATOM      2  C   UNL     1      46.236   5.973  11.641  0.00  0.00    +0.000 A 
ATOM      3  C   UNL     1      47.200   6.642  12.410  0.00  0.00    +0.000 A 
ATOM      4  C   UNL     1      47.599   6.137  13.655  0.00  0.00    +0.000 A 
ATOM      5  C   UNL     1      47.010   4.956  14.115  0.00  0.00    +0.000 A 
ATOM      6  C   UNL     1      46.073   4.275  13.335  0.00  0.00    +0.000 A 
ENDROOT
BRANCH   1   7
ATOM      7  C   UNL     1      44.578   4.074  11.257  0.00  0.00    +0.000 C 
BRANCH   7   8
ATOM      8  N   UNL     1      45.127   2.787  10.795  0.00  0.00    +0.000 NA
ATOM      9  H   UNL     1      46.135   2.896  10.669  0.00  0.00    +0.000 HD
BRANCH   8  10
ATOM     10  C   UNL     1      44.572   2.326   9.513  0.00  0.00    +0.000 C 
BRANCH  10  11
ATOM     11  C   UNL     1      45.621   2.271   8.418  0.00  0.00    +0.000 A 
ATOM     12  C   UNL     1      45.911   3.416   7.676  0.00  0.00    +0.000 A 
ATOM     13  C   UNL     1      46.885   3.350   6.686  0.00  0.00    +0.000 A 
ATOM     14  C   UNL     1      47.550   2.151   6.470  0.00  0.00    +0.000 A 
ATOM     15  C   UNL     1      47.211   1.062   7.257  0.00  0.00    +0.000 A 
ATOM     16  N   UNL     1      46.265   1.092   8.221  0.00  0.00    +0.000 NA
ENDBRANCH  10  11
ENDBRANCH   8  10
ENDBRANCH   7   8
BRANCH   7  17
ATOM     17  C   UNL     1      43.237   3.877  12.010  0.00  0.00    +0.000 C 
BRANCH  17  19
ATOM     18  C   UNL     1      42.572   6.225  11.446  0.00  0.00    +0.000 C 
ATOM     19  C   UNL     1      42.615   5.171  12.541  0.00  0.00    +0.000 C 
ENDBRANCH  17  19
ENDBRANCH   7  17
ENDBRANCH   1   7
BRANCH   4  20
ATOM     20  C   UNL     1      48.613   6.849  14.510  0.00  0.00    +0.000 C 
BRANCH  20  21
ATOM     21  N   UNL     1      48.349   6.650  15.912  0.00  0.00    +0.000 N 
ATOM     22  C   UNL     1      49.299   6.118  16.745  0.00  0.00    +0.000 C 
ATOM     23  O   UNL     1      50.426   5.832  16.348  0.00  0.00    +0.000 OA
ATOM     24  H   UNL     1      47.376   6.656  16.203  0.00  0.00    +0.000 HD
BRANCH  22  25
ATOM     25  C   UNL     1      48.923   5.969  18.158  0.00  0.00    +0.000 A 
ATOM     26  C   UNL     1      49.122   4.752  18.796  0.00  0.00    +0.000 A 
ATOM     27  S   UNL     1      48.698   4.768  20.448  0.00  0.00    +0.000 S 
ATOM     28  C   UNL     1      48.181   6.386  20.355  0.00  0.00    +0.000 A 
ATOM     29  N   UNL     1      47.674   7.020  21.445  0.00  0.00    +0.000 NA
ATOM     30  C   UNL     1      47.284   8.232  21.225  0.00  0.00    +0.000 A 
ATOM     31  N   UNL     1      47.360   8.867  20.014  0.00  0.00    +0.000 N 
ATOM     32  C   UNL     1      47.894   8.278  18.891  0.00  0.00    +0.000 A 
ATOM     33  O   UNL     1      47.982   8.889  17.832  0.00  0.00    +0.000 OA
ATOM     34  C   UNL     1      48.339   6.910  19.084  0.00  0.00    +0.000 A 
ATOM     35  H   UNL     1      47.042   9.819  19.907  0.00  0.00    +0.000 HD
ENDBRANCH  22  25
ENDBRANCH  20  21
ENDBRANCH   4  20
TORSDOF 9
ENDMDL
MODEL 3
REMARK VINA RESULT:    -8.143      1.766      2.107
REMARK INTER + INTRA:         -13.699
REMARK INTER:                 -12.156
REMARK INTRA:                  -1.543
REMARK UNBOUND:                -1.272
REMARK  Name = 
REMARK  10 active torsions:
REMARK  status: ('A' for Active; 'I' for Inactive)
REMARK    1  A    between atoms: C_1  and  C_2
REMARK    2  A    between atoms: C_2  and  C_3
REMARK    3  A    between atoms: C_3  and  C_4
REMARK    4  A    between atoms: C_4  and  N_5
REMARK    5  A    between atoms: C_4  and  C_13
REMARK    6  A    between atoms: N_5  and  C_6
REMARK    7  A    between atoms: C_6  and  C_7
REMARK    8  A    between atoms: C_16  and  C_17
REMARK    9  A    between atoms: C_17  and  N_18
REMARK   10  A    between atoms: C_19  and  C_21
REMARK                            x       y       z     vdW  Elec       q    Type
REMARK                         _______ _______ _______ _____ _____    ______ ____
ROOT
ATOM      1  C   UNL     1      45.112   6.376  11.097  0.00  0.00    +0.000 A 
ATOM      2  C   UNL     1      44.784   7.675  11.524  0.00  0.00    +0.000 A 
ATOM      3  C   UNL     1      45.618   8.374  12.409  0.00  0.00    +0.000 A 
ATOM      4  C   UNL     1      46.801   7.796  12.887  0.00  0.00    +0.000 A 
ATOM      5  C   UNL     1      47.128   6.503  12.466  0.00  0.00    +0.000 A 
ATOM      6  C   UNL     1      46.313   5.819  11.561  0.00  0.00    +0.000 A 
ENDROOT
BRANCH   1   7
ATOM      7  C   UNL     1      44.182   5.616  10.144  0.00  0.00    +0.000 C 
BRANCH   7   8
ATOM      8  N   UNL     1      45.000   4.999   9.084  0.00  0.00    +0.000 NA
ATOM      9  H   UNL     1      44.916   5.572   8.242  0.00  0.00    +0.000 HD
BRANCH   8  10
ATOM     10  C   UNL     1      44.586   3.633   8.730  0.00  0.00    +0.000 C 
BRANCH  10  11
ATOM     11  C   UNL     1      45.664   2.885   7.968  0.00  0.00    +0.000 A 
ATOM     12  C   UNL     1      46.348   3.519   6.931  0.00  0.00    +0.000 A 
ATOM     13  C   UNL     1      47.342   2.823   6.253  0.00  0.00    +0.000 A 
ATOM     14  C   UNL     1      47.636   1.520   6.634  0.00  0.00    +0.000 A 
ATOM     15  C   UNL     1      46.919   0.966   7.681  0.00  0.00    +0.000 A 
ATOM     16  N   UNL     1      45.943   1.613   8.354  0.00  0.00    +0.000 NA
ENDBRANCH  10  11
ENDBRANCH   8  10
ENDBRANCH   7   8
BRANCH   7  17
ATOM     17  C   UNL     1      43.302   4.561  10.863  0.00  0.00    +0.000 C 
BRANCH  17  19
ATOM     18  C   UNL     1      43.254   4.322  13.357  0.00  0.00    +0.000 C 
ATOM     19  C   UNL     1      42.661   5.054  12.163  0.00  0.00    +0.000 C 
ENDBRANCH  17  19
ENDBRANCH   7  17
ENDBRANCH   1   7
BRANCH   4  20
ATOM     20  C   UNL     1      47.700   8.516  13.856  0.00  0.00    +0.000 C 
BRANCH  20  21
ATOM     21  N   UNL     1      47.980   7.705  15.014  0.00  0.00    +0.000 N 
ATOM     22  C   UNL     1      49.204   7.116  15.188  0.00  0.00    +0.000 C 
ATOM     23  O   UNL     1      50.128   7.287  14.397  0.00  0.00    +0.000 OA
ATOM     24  H   UNL     1      47.181   7.366  15.542  0.00  0.00    +0.000 HD
BRANCH  22  25
ATOM     25  C   UNL     1      49.381   6.319  16.410  0.00  0.00    +0.000 A 
ATOM     26  C   UNL     1      50.355   6.680  17.331  0.00  0.00    +0.000 A 
ATOM     27  S   UNL     1      50.382   5.694  18.722  0.00  0.00    +0.000 S 
ATOM     28  C   UNL     1      49.130   4.714  18.117  0.00  0.00    +0.000 A 
ATOM     29  N   UNL     1      48.673   3.647  18.827  0.00  0.00    +0.000 NA
ATOM     30  C   UNL     1      47.748   2.968  18.234  0.00  0.00    +0.000 A 
ATOM     31  N   UNL     1      47.237   3.261  16.998  0.00  0.00    +0.000 N 
ATOM     32  C   UNL     1      47.644   4.346  16.256  0.00  0.00    +0.000 A 
ATOM     33  O   UNL     1      47.137   4.602  15.170  0.00  0.00    +0.000 OA
ATOM     34  C   UNL     1      48.690   5.139  16.876  0.00  0.00    +0.000 A 
ATOM     35  H   UNL     1      46.510   2.692  16.589  0.00  0.00    +0.000 HD
ENDBRANCH  22  25
ENDBRANCH  20  21
ENDBRANCH   4  20
TORSDOF 9
ENDMDL
MODEL 4
REMARK VINA RESULT:    -7.949      1.958      2.472
REMARK INTER + INTRA:         -13.403
REMARK INTER:                 -11.905
REMARK INTRA:                  -1.498
REMARK UNBOUND:                -1.272
REMARK  Name = 
REMARK  10 active torsions:
REMARK  status: ('A' for Active; 'I' for Inactive)
REMARK    1  A    between atoms: C_1  and  C_2
REMARK    2  A    between atoms: C_2  and  C_3
REMARK    3  A    between atoms: C_3  and  C_4
REMARK    4  A    between atoms: C_4  and  N_5
REMARK    5  A    between atoms: C_4  and  C_13
REMARK    6  A    between atoms: N_5  and  C_6
REMARK    7  A    between atoms: C_6  and  C_7
REMARK    8  A    between atoms: C_16  and  C_17
REMARK    9  A    between atoms: C_17  and  N_18
REMARK   10  A    between atoms: C_19  and  C_21
REMARK                            x       y       z     vdW  Elec       q    Type
REMARK                         _______ _______ _______ _____ _____    ______ ____
ROOT
ATOM      1  C   UNL     1      45.658   4.997  11.755  0.00  0.00    +0.000 A 
ATOM      2  C   UNL     1      46.345   4.868  12.976  0.00  0.00    +0.000 A 
ATOM      3  C   UNL     1      47.375   5.754  13.320  0.00  0.00    +0.000 A 
ATOM      4  C   UNL     1      47.744   6.794  12.458  0.00  0.00    +0.000 A 
ATOM      5  C   UNL     1      47.065   6.925  11.242  0.00  0.00    +0.000 A 
ATOM      6  C   UNL     1      46.019   6.060  10.913  0.00  0.00    +0.000 A 
ENDROOT
BRANCH   1   7
ATOM      7  C   UNL     1      44.547   4.010  11.382  0.00  0.00    +0.000 C 
BRANCH   7   8
ATOM      8  N   UNL     1      45.168   2.782  10.855  0.00  0.00    +0.000 NA
ATOM      9  H   UNL     1      46.155   2.974  10.675  0.00  0.00    +0.000 HD
BRANCH   8  10
ATOM     10  C   UNL     1      44.577   2.307   9.595  0.00  0.00    +0.000 C 
BRANCH  10  11
ATOM     11  C   UNL     1      45.581   2.292   8.457  0.00  0.00    +0.000 A 
ATOM     12  C   UNL     1      45.777   3.440   7.691  0.00  0.00    +0.000 A 
ATOM     13  C   UNL     1      46.711   3.413   6.661  0.00  0.00    +0.000 A 
ATOM     14  C   UNL     1      47.431   2.248   6.432  0.00  0.00    +0.000 A 
ATOM     15  C   UNL     1      47.185   1.155   7.245  0.00  0.00    +0.000 A 
ATOM     16  N   UNL     1      46.280   1.147   8.248  0.00  0.00    +0.000 NA
ENDBRANCH  10  11
ENDBRANCH   8  10
ENDBRANCH   7   8
BRANCH   7  17
ATOM     17  C   UNL     1      43.589   3.696  12.561  0.00  0.00    +0.000 C 
BRANCH  17  19
ATOM     18  C   UNL     1      42.251   5.686  11.835  0.00  0.00    +0.000 C 
ATOM     19  C   UNL     1      42.753   4.890  13.029  0.00  0.00    +0.000 C 
ENDBRANCH  17  19
ENDBRANCH   7  17
ENDBRANCH   1   7
BRANCH   4  20
ATOM     20  C   UNL     1      48.862   7.744  12.794  0.00  0.00    +0.000 C 
BRANCH  20  21
ATOM     21  N   UNL     1      49.794   7.150  13.719  0.00  0.00    +0.000 N 
ATOM     22  C   UNL     1      50.314   7.870  14.763  0.00  0.00    +0.000 C 
ATOM     23  O   UNL     1      49.979   9.031  14.985  0.00  0.00    +0.000 OA
ATOM     24  H   UNL     1      50.253   6.293  13.424  0.00  0.00    +0.000 HD
BRANCH  22  25
ATOM     25  C   UNL     1      51.247   7.160  15.649  0.00  0.00    +0.000 A 
ATOM     26  C   UNL     1      52.605   7.445  15.587  0.00  0.00    +0.000 A 
ATOM     27  S   UNL     1      53.538   6.586  16.727  0.00  0.00    +0.000 S 
ATOM     28  C   UNL     1      52.168   5.759  17.306  0.00  0.00    +0.000 A 
ATOM     29  N   UNL     1      52.277   4.837  18.299  0.00  0.00    +0.000 NA
ATOM     30  C   UNL     1      51.166   4.259  18.615  0.00  0.00    +0.000 A 
ATOM     31  N   UNL     1      49.956   4.523  18.030  0.00  0.00    +0.000 N 
ATOM     32  C   UNL     1      49.790   5.467  17.044  0.00  0.00    +0.000 A 
ATOM     33  O   UNL     1      48.686   5.706  16.569  0.00  0.00    +0.000 OA
ATOM     34  C   UNL     1      51.013   6.141  16.647  0.00  0.00    +0.000 A 
ATOM     35  H   UNL     1      49.121   4.038  18.325  0.00  0.00    +0.000 HD
ENDBRANCH  22  25
ENDBRANCH  20  21
ENDBRANCH   4  20
TORSDOF 9
ENDMDL
MODEL 5
REMARK VINA RESULT:    -7.060      1.811      2.954
REMARK INTER + INTRA:         -12.047
REMARK INTER:                 -10.648
REMARK INTRA:                  -1.399
REMARK UNBOUND:                -1.272
REMARK  Name = 
REMARK  10 active torsions:
REMARK  status: ('A' for Active; 'I' for Inactive)
REMARK    1  A    between atoms: C_1  and  C_2
REMARK    2  A    between atoms: C_2  and  C_3
REMARK    3  A    between atoms: C_3  and  C_4
REMARK    4  A    between atoms: C_4  and  N_5
REMARK    5  A    between atoms: C_4  and  C_13
REMARK    6  A    between atoms: N_5  and  C_6
REMARK    7  A    between atoms: C_6  and  C_7
REMARK    8  A    between atoms: C_16  and  C_17
REMARK    9  A    between atoms: C_17  and  N_18
REMARK   10  A    between atoms: C_19  and  C_21
REMARK                            x       y       z     vdW  Elec       q    Type
REMARK                         _______ _______ _______ _____ _____    ______ ____
ROOT
ATOM      1  C   UNL     1      45.636   5.259  11.945  0.00  0.00    +0.000 A 
ATOM      2  C   UNL     1      45.521   4.078  12.700  0.00  0.00    +0.000 A 
ATOM      3  C   UNL     1      46.274   3.894  13.869  0.00  0.00    +0.000 A 
ATOM      4  C   UNL     1      47.157   4.885  14.316  0.00  0.00    +0.000 A 
ATOM      5  C   UNL     1      47.276   6.059  13.567  0.00  0.00    +0.000 A 
ATOM      6  C   UNL     1      46.504   6.255  12.419  0.00  0.00    +0.000 A 
ENDROOT
BRANCH   1   7
ATOM      7  C   UNL     1      44.822   5.440  10.659  0.00  0.00    +0.000 C 
BRANCH   7   8
ATOM      8  N   UNL     1      45.546   4.793   9.551  0.00  0.00    +0.000 NA
ATOM      9  H   UNL     1      45.536   5.426   8.749  0.00  0.00    +0.000 HD
BRANCH   8  10
ATOM     10  C   UNL     1      44.953   3.520   9.112  0.00  0.00    +0.000 C 
BRANCH  10  11
ATOM     11  C   UNL     1      45.826   2.794   8.107  0.00  0.00    +0.000 A 
ATOM     12  C   UNL     1      46.277   3.463   6.969  0.00  0.00    +0.000 A 
ATOM     13  C   UNL     1      47.088   2.786   6.065  0.00  0.00    +0.000 A 
ATOM     14  C   UNL     1      47.438   1.468   6.325  0.00  0.00    +0.000 A 
ATOM     15  C   UNL     1      46.958   0.879   7.483  0.00  0.00    +0.000 A 
ATOM     16  N   UNL     1      46.163   1.507   8.377  0.00  0.00    +0.000 NA
ENDBRANCH  10  11
ENDBRANCH   8  10
ENDBRANCH   7   8
BRANCH   7  17
ATOM     17  C   UNL     1      43.371   4.903  10.776  0.00  0.00    +0.000 C 
BRANCH  17  19
ATOM     18  C   UNL     1      42.793   7.269  11.363  0.00  0.00    +0.000 C 
ATOM     19  C   UNL     1      42.426   5.808  11.570  0.00  0.00    +0.000 C 
ENDBRANCH  17  19
ENDBRANCH   7  17
ENDBRANCH   1   7
BRANCH   4  20
ATOM     20  C   UNL     1      47.994   4.700  15.554  0.00  0.00    +0.000 C 
BRANCH  20  21
ATOM     21  N   UNL     1      47.718   5.724  16.530  0.00  0.00    +0.000 N 
ATOM     22  C   UNL     1      48.633   6.047  17.498  0.00  0.00    +0.000 C 
ATOM     23  O   UNL     1      49.740   5.516  17.550  0.00  0.00    +0.000 OA
ATOM     24  H   UNL     1      46.747   5.998  16.648  0.00  0.00    +0.000 HD
BRANCH  22  25
ATOM     25  C   UNL     1      48.249   7.112  18.434  0.00  0.00    +0.000 A 
ATOM     26  C   UNL     1      48.040   6.808  19.772  0.00  0.00    +0.000 A 
ATOM     27  S   UNL     1      47.669   8.166  20.734  0.00  0.00    +0.000 S 
ATOM     28  C   UNL     1      47.719   9.202  19.386  0.00  0.00    +0.000 A 
ATOM     29  N   UNL     1      47.468  10.532  19.517  0.00  0.00    +0.000 NA
ATOM     30  C   UNL     1      47.502  11.194  18.409  0.00  0.00    +0.000 A 
ATOM     31  N   UNL     1      47.768  10.646  17.182  0.00  0.00    +0.000 N 
ATOM     32  C   UNL     1      48.059   9.314  17.003  0.00  0.00    +0.000 A 
ATOM     33  O   UNL     1      48.330   8.864  15.895  0.00  0.00    +0.000 OA
ATOM     34  C   UNL     1      48.025   8.523  18.220  0.00  0.00    +0.000 A 
ATOM     35  H   UNL     1      47.783  11.220  16.351  0.00  0.00    +0.000 HD
ENDBRANCH  22  25
ENDBRANCH  20  21
ENDBRANCH   4  20
TORSDOF 9
ENDMDL
MODEL 6
REMARK VINA RESULT:    -6.970      4.543      9.761
REMARK INTER + INTRA:         -11.909
REMARK INTER:                 -10.349
REMARK INTRA:                  -1.560
REMARK UNBOUND:                -1.272
REMARK  Name = 
REMARK  10 active torsions:
REMARK  status: ('A' for Active; 'I' for Inactive)
REMARK    1  A    between atoms: C_1  and  C_2
REMARK    2  A    between atoms: C_2  and  C_3
REMARK    3  A    between atoms: C_3  and  C_4
REMARK    4  A    between atoms: C_4  and  N_5
REMARK    5  A    between atoms: C_4  and  C_13
REMARK    6  A    between atoms: N_5  and  C_6
REMARK    7  A    between atoms: C_6  and  C_7
REMARK    8  A    between atoms: C_16  and  C_17
REMARK    9  A    between atoms: C_17  and  N_18
REMARK   10  A    between atoms: C_19  and  C_21
REMARK                            x       y       z     vdW  Elec       q    Type
REMARK                         _______ _______ _______ _____ _____    ______ ____
ROOT
ATOM      1  C   UNL     1      51.295   3.847  18.114  0.00  0.00    +0.000 A 
ATOM      2  C   UNL     1      50.879   2.628  17.549  0.00  0.00    +0.000 A 
ATOM      3  C   UNL     1      49.555   2.445  17.125  0.00  0.00    +0.000 A 
ATOM      4  C   UNL     1      48.614   3.474  17.249  0.00  0.00    +0.000 A 
ATOM      5  C   UNL     1      49.023   4.687  17.813  0.00  0.00    +0.000 A 
ATOM      6  C   UNL     1      50.349   4.879  18.208  0.00  0.00    +0.000 A 
ENDROOT
BRANCH   1   7
ATOM      7  C   UNL     1      52.740   4.027  18.591  0.00  0.00    +0.000 C 
BRANCH   7   8
ATOM      8  N   UNL     1      53.147   2.814  19.322  0.00  0.00    +0.000 NA
ATOM      9  H   UNL     1      53.078   3.005  20.323  0.00  0.00    +0.000 HD
BRANCH   8  10
ATOM     10  C   UNL     1      54.529   2.389  19.051  0.00  0.00    +0.000 C 
BRANCH  10  11
ATOM     11  C   UNL     1      54.603   0.962  18.540  0.00  0.00    +0.000 A 
ATOM     12  C   UNL     1      54.601   0.715  17.167  0.00  0.00    +0.000 A 
ATOM     13  C   UNL     1      54.683  -0.598  16.717  0.00  0.00    +0.000 A 
ATOM     14  C   UNL     1      54.778  -1.627  17.645  0.00  0.00    +0.000 A 
ATOM     15  C   UNL     1      54.785  -1.297  18.990  0.00  0.00    +0.000 A 
ATOM     16  N   UNL     1      54.699  -0.033  19.459  0.00  0.00    +0.000 NA
ENDBRANCH  10  11
ENDBRANCH   8  10
ENDBRANCH   7   8
BRANCH   7  17
ATOM     17  C   UNL     1      53.727   4.349  17.439  0.00  0.00    +0.000 C 
BRANCH  17  19
ATOM     18  C   UNL     1      53.162   6.441  16.180  0.00  0.00    +0.000 C 
ATOM     19  C   UNL     1      54.035   5.839  17.270  0.00  0.00    +0.000 C 
ENDBRANCH  17  19
ENDBRANCH   7  17
ENDBRANCH   1   7
BRANCH   4  20
ATOM     20  C   UNL     1      47.181   3.294  16.824  0.00  0.00    +0.000 C 
BRANCH  20  21
ATOM     21  N   UNL     1      46.781   4.312  15.886  0.00  0.00    +0.000 N 
ATOM     22  C   UNL     1      46.903   4.119  14.534  0.00  0.00    +0.000 C 
ATOM     23  O   UNL     1      47.312   3.062  14.062  0.00  0.00    +0.000 OA
ATOM     24  H   UNL     1      46.668   5.254  16.248  0.00  0.00    +0.000 HD
BRANCH  22  25
ATOM     25  C   UNL     1      46.455   5.221  13.671  0.00  0.00    +0.000 A 
ATOM     26  C   UNL     1      47.288   6.311  13.460  0.00  0.00    +0.000 A 
ATOM     27  S   UNL     1      46.647   7.465  12.381  0.00  0.00    +0.000 S 
ATOM     28  C   UNL     1      45.208   6.577  12.201  0.00  0.00    +0.000 A 
ATOM     29  N   UNL     1      44.202   7.030  11.406  0.00  0.00    +0.000 NA
ATOM     30  C   UNL     1      43.153   6.277  11.391  0.00  0.00    +0.000 A 
ATOM     31  N   UNL     1      43.020   5.110  12.096  0.00  0.00    +0.000 N 
ATOM     32  C   UNL     1      44.020   4.595  12.888  0.00  0.00    +0.000 A 
ATOM     33  O   UNL     1      43.883   3.528  13.475  0.00  0.00    +0.000 OA
ATOM     34  C   UNL     1      45.220   5.410  12.946  0.00  0.00    +0.000 A 
ATOM     35  H   UNL     1      42.174   4.564  12.038  0.00  0.00    +0.000 HD
ENDBRANCH  22  25
ENDBRANCH  20  21
ENDBRANCH   4  20
TORSDOF 9
ENDMDL
MODEL 7
REMARK VINA RESULT:    -6.829      3.955      6.545
REMARK INTER + INTRA:         -11.694
REMARK INTER:                 -10.479
REMARK INTRA:                  -1.215
REMARK UNBOUND:                -1.272
REMARK  Name = 
REMARK  10 active torsions:
REMARK  status: ('A' for Active; 'I' for Inactive)
REMARK    1  A    between atoms: C_1  and  C_2
REMARK    2  A    between atoms: C_2  and  C_3
REMARK    3  A    between atoms: C_3  and  C_4
REMARK    4  A    between atoms: C_4  and  N_5
REMARK    5  A    between atoms: C_4  and  C_13
REMARK    6  A    between atoms: N_5  and  C_6
REMARK    7  A    between atoms: C_6  and  C_7
REMARK    8  A    between atoms: C_16  and  C_17
REMARK    9  A    between atoms: C_17  and  N_18
REMARK   10  A    between atoms: C_19  and  C_21
REMARK                            x       y       z     vdW  Elec       q    Type
REMARK                         _______ _______ _______ _____ _____    ______ ____
ROOT
ATOM      1  C   UNL     1      44.888   7.920  11.811  0.00  0.00    +0.000 A 
ATOM      2  C   UNL     1      46.079   7.967  12.557  0.00  0.00    +0.000 A 
ATOM      3  C   UNL     1      46.517   6.851  13.284  0.00  0.00    +0.000 A 
ATOM      4  C   UNL     1      45.781   5.659  13.282  0.00  0.00    +0.000 A 
ATOM      5  C   UNL     1      44.595   5.610  12.543  0.00  0.00    +0.000 A 
ATOM      6  C   UNL     1      44.174   6.712  11.795  0.00  0.00    +0.000 A 
ENDROOT
BRANCH   1   7
ATOM      7  C   UNL     1      44.410   9.153  11.036  0.00  0.00    +0.000 C 
BRANCH   7   8
ATOM      8  N   UNL     1      42.956   9.038  10.821  0.00  0.00    +0.000 NA
ATOM      9  H   UNL     1      42.794   8.324  10.109  0.00  0.00    +0.000 HD
BRANCH   8  10
ATOM     10  C   UNL     1      42.322  10.279  10.352  0.00  0.00    +0.000 C 
BRANCH  10  11
ATOM     11  C   UNL     1      41.097  10.645  11.169  0.00  0.00    +0.000 A 
ATOM     12  C   UNL     1      41.200  11.593  12.187  0.00  0.00    +0.000 A 
ATOM     13  C   UNL     1      40.065  11.925  12.917  0.00  0.00    +0.000 A 
ATOM     14  C   UNL     1      38.857  11.315  12.606  0.00  0.00    +0.000 A 
ATOM     15  C   UNL     1      38.836  10.392  11.573  0.00  0.00    +0.000 A 
ATOM     16  N   UNL     1      39.923  10.042  10.851  0.00  0.00    +0.000 NA
ENDBRANCH  10  11
ENDBRANCH   8  10
ENDBRANCH   7   8
BRANCH   7  17
ATOM     17  C   UNL     1      44.774  10.490  11.732  0.00  0.00    +0.000 C 
BRANCH  17  19
ATOM     18  C   UNL     1      46.699  12.081  11.934  0.00  0.00    +0.000 C 
ATOM     19  C   UNL     1      45.785  11.346  10.965  0.00  0.00    +0.000 C 
ENDBRANCH  17  19
ENDBRANCH   7  17
ENDBRANCH   1   7
BRANCH   4  20
ATOM     20  C   UNL     1      46.218   4.456  14.074  0.00  0.00    +0.000 C 
BRANCH  20  21
ATOM     21  N   UNL     1      47.313   4.777  14.954  0.00  0.00    +0.000 N 
ATOM     22  C   UNL     1      47.383   4.255  16.220  0.00  0.00    +0.000 C 
ATOM     23  O   UNL     1      46.548   3.460  16.643  0.00  0.00    +0.000 OA
ATOM     24  H   UNL     1      47.870   5.594  14.718  0.00  0.00    +0.000 HD
BRANCH  22  25
ATOM     25  C   UNL     1      48.548   4.644  17.026  0.00  0.00    +0.000 A 
ATOM     26  C   UNL     1      48.606   5.914  17.583  0.00  0.00    +0.000 A 
ATOM     27  S   UNL     1      49.989   6.179  18.544  0.00  0.00    +0.000 S 
ATOM     28  C   UNL     1      50.589   4.624  18.205  0.00  0.00    +0.000 A 
ATOM     29  N   UNL     1      51.777   4.207  18.717  0.00  0.00    +0.000 NA
ATOM     30  C   UNL     1      52.131   3.021  18.349  0.00  0.00    +0.000 A 
ATOM     31  N   UNL     1      51.401   2.213  17.517  0.00  0.00    +0.000 N 
ATOM     32  C   UNL     1      50.180   2.577  17.000  0.00  0.00    +0.000 A 
ATOM     33  O   UNL     1      49.535   1.815  16.290  0.00  0.00    +0.000 OA
ATOM     34  C   UNL     1      49.741   3.908  17.378  0.00  0.00    +0.000 A 
ATOM     35  H   UNL     1      51.731   1.292  17.269  0.00  0.00    +0.000 HD
ENDBRANCH  22  25
ENDBRANCH  20  21
ENDBRANCH   4  20
TORSDOF 9
ENDMDL
MODEL 8
REMARK VINA RESULT:    -6.694      3.259      9.134
REMARK INTER + INTRA:         -11.488
REMARK INTER:                  -9.464
REMARK INTRA:                  -2.023
REMARK UNBOUND:                -1.272
REMARK  Name = 
REMARK  10 active torsions:
REMARK  status: ('A' for Active; 'I' for Inactive)
REMARK    1  A    between atoms: C_1  and  C_2
REMARK    2  A    between atoms: C_2  and  C_3
REMARK    3  A    between atoms: C_3  and  C_4
REMARK    4  A    between atoms: C_4  and  N_5
REMARK    5  A    between atoms: C_4  and  C_13
REMARK    6  A    between atoms: N_5  and  C_6
REMARK    7  A    between atoms: C_6  and  C_7
REMARK    8  A    between atoms: C_16  and  C_17
REMARK    9  A    between atoms: C_17  and  N_18
REMARK   10  A    between atoms: C_19  and  C_21
REMARK                            x       y       z     vdW  Elec       q    Type
REMARK                         _______ _______ _______ _____ _____    ______ ____
ROOT
ATOM      1  C   UNL     1      49.078   8.272  15.949  0.00  0.00    +0.000 A 
ATOM      2  C   UNL     1      49.588   7.250  15.129  0.00  0.00    +0.000 A 
ATOM      3  C   UNL     1      49.152   7.105  13.804  0.00  0.00    +0.000 A 
ATOM      4  C   UNL     1      48.200   7.978  13.263  0.00  0.00    +0.000 A 
ATOM      5  C   UNL     1      47.690   8.994  14.076  0.00  0.00    +0.000 A 
ATOM      6  C   UNL     1      48.146   9.156  15.386  0.00  0.00    +0.000 A 
ENDROOT
BRANCH   1   7
ATOM      7  C   UNL     1      49.549   8.407  17.401  0.00  0.00    +0.000 C 
BRANCH   7   8
ATOM      8  N   UNL     1      48.773   7.472  18.235  0.00  0.00    +0.000 NA
ATOM      9  H   UNL     1      48.454   7.974  19.066  0.00  0.00    +0.000 HD
BRANCH   8  10
ATOM     10  C   UNL     1      49.541   6.304  18.695  0.00  0.00    +0.000 C 
BRANCH  10  11
ATOM     11  C   UNL     1      49.072   5.015  18.047  0.00  0.00    +0.000 A 
ATOM     12  C   UNL     1      47.750   4.897  17.617  0.00  0.00    +0.000 A 
ATOM     13  C   UNL     1      47.341   3.713  17.012  0.00  0.00    +0.000 A 
ATOM     14  C   UNL     1      48.261   2.687  16.843  0.00  0.00    +0.000 A 
ATOM     15  C   UNL     1      49.557   2.888  17.288  0.00  0.00    +0.000 A 
ATOM     16  N   UNL     1      49.983   4.023  17.885  0.00  0.00    +0.000 NA
ENDBRANCH  10  11
ENDBRANCH   8  10
ENDBRANCH   7   8
BRANCH   7  17
ATOM     17  C   UNL     1      51.074   8.183  17.572  0.00  0.00    +0.000 C 
BRANCH  17  19
ATOM     18  C   UNL     1      51.233  10.671  17.819  0.00  0.00    +0.000 C 
ATOM     19  C   UNL     1      51.928   9.423  17.297  0.00  0.00    +0.000 C 
ENDBRANCH  17  19
ENDBRANCH   7  17
ENDBRANCH   1   7
BRANCH   4  20
ATOM     20  C   UNL     1      47.699   7.828  11.851  0.00  0.00    +0.000 C 
BRANCH  20  21
ATOM     21  N   UNL     1      46.994   6.584  11.674  0.00  0.00    +0.000 N 
ATOM     22  C   UNL     1      45.627   6.524  11.763  0.00  0.00    +0.000 C 
ATOM     23  O   UNL     1      44.942   7.527  11.949  0.00  0.00    +0.000 OA
ATOM     24  H   UNL     1      47.538   5.730  11.755  0.00  0.00    +0.000 HD
BRANCH  22  25
ATOM     25  C   UNL     1      45.014   5.205  11.556  0.00  0.00    +0.000 A 
ATOM     26  C   UNL     1      44.345   4.587  12.603  0.00  0.00    +0.000 A 
ATOM     27  S   UNL     1      43.633   3.097  12.178  0.00  0.00    +0.000 S 
ATOM     28  C   UNL     1      44.242   3.198  10.592  0.00  0.00    +0.000 A 
ATOM     29  N   UNL     1      44.006   2.208   9.690  0.00  0.00    +0.000 NA
ATOM     30  C   UNL     1      44.558   2.394   8.537  0.00  0.00    +0.000 A 
ATOM     31  N   UNL     1      45.322   3.482   8.205  0.00  0.00    +0.000 N 
ATOM     32  C   UNL     1      45.563   4.522   9.073  0.00  0.00    +0.000 A 
ATOM     33  O   UNL     1      46.218   5.499   8.730  0.00  0.00    +0.000 OA
ATOM     34  C   UNL     1      44.969   4.357  10.387  0.00  0.00    +0.000 A 
ATOM     35  H   UNL     1      45.724   3.571   7.283  0.00  0.00    +0.000 HD
ENDBRANCH  22  25
ENDBRANCH  20  21
ENDBRANCH   4  20
TORSDOF 9
ENDMDL
MODEL 9
REMARK VINA RESULT:    -6.659      3.479      8.661
REMARK INTER + INTRA:         -11.434
REMARK INTER:                  -9.617
REMARK INTRA:                  -1.817
REMARK UNBOUND:                -1.272
REMARK  Name = 
REMARK  10 active torsions:
REMARK  status: ('A' for Active; 'I' for Inactive)
REMARK    1  A    between atoms: C_1  and  C_2
REMARK    2  A    between atoms: C_2  and  C_3
REMARK    3  A    between atoms: C_3  and  C_4
REMARK    4  A    between atoms: C_4  and  N_5
REMARK    5  A    between atoms: C_4  and  C_13
REMARK    6  A    between atoms: N_5  and  C_6
REMARK    7  A    between atoms: C_6  and  C_7
REMARK    8  A    between atoms: C_16  and  C_17
REMARK    9  A    between atoms: C_17  and  N_18
REMARK   10  A    between atoms: C_19  and  C_21
REMARK                            x       y       z     vdW  Elec       q    Type
REMARK                         _______ _______ _______ _____ _____    ______ ____
ROOT
ATOM      1  C   UNL     1      48.634   8.001  16.208  0.00  0.00    +0.000 A 
ATOM      2  C   UNL     1      49.053   6.890  15.454  0.00  0.00    +0.000 A 
ATOM      3  C   UNL     1      48.995   6.906  14.053  0.00  0.00    +0.000 A 
ATOM      4  C   UNL     1      48.521   8.032  13.368  0.00  0.00    +0.000 A 
ATOM      5  C   UNL     1      48.101   9.138  14.114  0.00  0.00    +0.000 A 
ATOM      6  C   UNL     1      48.187   9.133  15.508  0.00  0.00    +0.000 A 
ENDROOT
BRANCH   1   7
ATOM      7  C   UNL     1      48.685   7.964  17.739  0.00  0.00    +0.000 C 
BRANCH   7   8
ATOM      8  N   UNL     1      47.729   6.949  18.215  0.00  0.00    +0.000 NA
ATOM      9  H   UNL     1      47.051   7.409  18.826  0.00  0.00    +0.000 HD
BRANCH   8  10
ATOM     10  C   UNL     1      48.348   5.861  18.988  0.00  0.00    +0.000 C 
BRANCH  10  11
ATOM     11  C   UNL     1      48.560   4.611  18.154  0.00  0.00    +0.000 A 
ATOM     12  C   UNL     1      49.790   3.955  18.188  0.00  0.00    +0.000 A 
ATOM     13  C   UNL     1      49.962   2.803  17.428  0.00  0.00    +0.000 A 
ATOM     14  C   UNL     1      48.903   2.331  16.666  0.00  0.00    +0.000 A 
ATOM     15  C   UNL     1      47.710   3.034  16.695  0.00  0.00    +0.000 A 
ATOM     16  N   UNL     1      47.513   4.159  17.417  0.00  0.00    +0.000 NA
ENDBRANCH  10  11
ENDBRANCH   8  10
ENDBRANCH   7   8
BRANCH   7  17
ATOM     17  C   UNL     1      50.109   7.702  18.295  0.00  0.00    +0.000 C 
BRANCH  17  19
ATOM     18  C   UNL     1      49.554   9.846  19.468  0.00  0.00    +0.000 C 
ATOM     19  C   UNL     1      50.610   8.769  19.272  0.00  0.00    +0.000 C 
ENDBRANCH  17  19
ENDBRANCH   7  17
ENDBRANCH   1   7
BRANCH   4  20
ATOM     20  C   UNL     1      48.426   8.064  11.866  0.00  0.00    +0.000 C 
BRANCH  20  21
ATOM     21  N   UNL     1      47.682   6.937  11.364  0.00  0.00    +0.000 N 
ATOM     22  C   UNL     1      46.312   6.948  11.331  0.00  0.00    +0.000 C 
ATOM     23  O   UNL     1      45.660   7.928  11.683  0.00  0.00    +0.000 OA
ATOM     24  H   UNL     1      48.177   6.053  11.293  0.00  0.00    +0.000 HD
BRANCH  22  25
ATOM     25  C   UNL     1      45.659   5.749  10.789  0.00  0.00    +0.000 A 
ATOM     26  C   UNL     1      45.789   5.446   9.441  0.00  0.00    +0.000 A 
ATOM     27  S   UNL     1      45.029   3.987   8.990  0.00  0.00    +0.000 S 
ATOM     28  C   UNL     1      44.452   3.737  10.570  0.00  0.00    +0.000 A 
ATOM     29  N   UNL     1      43.692   2.650  10.872  0.00  0.00    +0.000 NA
ATOM     30  C   UNL     1      43.290   2.603  12.098  0.00  0.00    +0.000 A 
ATOM     31  N   UNL     1      43.580   3.545  13.050  0.00  0.00    +0.000 N 
ATOM     32  C   UNL     1      44.369   4.643  12.801  0.00  0.00    +0.000 A 
ATOM     33  O   UNL     1      44.642   5.446  13.686  0.00  0.00    +0.000 OA
ATOM     34  C   UNL     1      44.841   4.746  11.432  0.00  0.00    +0.000 A 
ATOM     35  H   UNL     1      43.237   3.449  13.995  0.00  0.00    +0.000 HD
ENDBRANCH  22  25
ENDBRANCH  20  21
ENDBRANCH   4  20
TORSDOF 9
ENDMDL
