MODEL 1
REMARK VINA RESULT:    -8.238      0.000      0.000
REMARK INTER + INTRA:         -11.246
REMARK INTER:                 -10.646
REMARK INTRA:                  -0.600
REMARK UNBOUND:                -0.600
REMARK  Name = 
REMARK  5 active torsions:
REMARK  status: ('A' for Active; 'I' for Inactive)
REMARK    1  A    between atoms: C_2  and  C_3
REMARK    2  A    between atoms: C_6  and  O_7
REMARK    3  A    between atoms: O_7  and  C_8
REMARK    4  A    between atoms: C_8  and  C_9
REMARK    5  A    between atoms: C_14  and  C_15
REMARK                            x       y       z     vdW  Elec       q    Type
REMARK                         _______ _______ _______ _____ _____    ______ ____
ROOT
ATOM      1  C   UNL     1      45.123   4.977  11.666  0.00  0.00    +0.000 A 
ATOM      2  C   UNL     1      45.448   3.952  12.565  0.00  0.00    +0.000 A 
ATOM      3  C   UNL     1      46.586   4.060  13.353  0.00  0.00    +0.000 A 
ATOM      4  F   UNL     1      46.883   3.087  14.224  0.00  0.00    +0.000 F 
ATOM      5  C   UNL     1      47.353   5.215  13.337  0.00  0.00    +0.000 A 
ATOM      6  C   UNL     1      46.972   6.306  12.532  0.00  0.00    +0.000 A 
ATOM      7  C   UNL     1      45.936   6.123  11.614  0.00  0.00    +0.000 A 
ENDROOT
BRANCH   6   8
ATOM      8  C   UNL     1      47.509   7.684  12.909  0.00  0.00    +0.000 C 
ATOM      9  C   UNL     1      48.449   8.143  11.767  0.00  0.00    +0.000 C 
ATOM     10  C   UNL     1      49.854   7.550  11.888  0.00  0.00    +0.000 C 
ATOM     11  N   UNL     1      50.474   7.909  13.162  0.00  0.00    +0.000 NA
ATOM     12  C   UNL     1      49.689   7.405  14.287  0.00  0.00    +0.000 C 
ATOM     13  C   UNL     1      48.229   7.872  14.260  0.00  0.00    +0.000 C 
ATOM     14  H   UNL     1      50.539   8.925  13.224  0.00  0.00    +0.000 HD
ENDBRANCH   6   8
BRANCH   1  15
ATOM     15  C   UNL     1      43.804   4.950  10.925  0.00  0.00    +0.000 C 
BRANCH  15  16
ATOM     16  O   UNL     1      43.648   3.715  10.229  0.00  0.00    +0.000 OA
BRANCH  16  20
ATOM     17  C   UNL     1      46.539   2.465   7.498  0.00  0.00    +0.000 A 
ATOM     18  C   UNL     1      46.197   3.821   7.528  0.00  0.00    +0.000 A 
ATOM     19  C   UNL     1      45.230   4.286   8.427  0.00  0.00    +0.000 A 
ATOM     20  C   UNL     1      44.602   3.398   9.303  0.00  0.00    +0.000 A 
ATOM     21  C   UNL     1      44.946   2.041   9.263  0.00  0.00    +0.000 A 
ATOM     22  C   UNL     1      45.911   1.574   8.369  0.00  0.00    +0.000 A 
BRANCH  17  24
ATOM     23  N   UNL     1      48.347   1.612   5.847  0.00  0.00    +0.000 NA
ATOM     24  C   UNL     1      47.539   1.996   6.579  0.00  0.00    +0.000 C 
ENDBRANCH  17  24
ENDBRANCH  16  20
ENDBRANCH  15  16
ENDBRANCH   1  15
TORSDOF 5
ENDMDL
MODEL 2
REMARK VINA RESULT:    -7.950      1.864      2.406
REMARK INTER + INTRA:         -10.874
REMARK INTER:                  -9.934
REMARK INTRA:                  -0.940
REMARK UNBOUND:                -0.600
REMARK  Name = 
REMARK  5 active torsions:
REMARK  status: ('A' for Active; 'I' for Inactive)
REMARK    1  A    between atoms: C_2  and  C_3
REMARK    2  A    between atoms: C_6  and  O_7
REMARK    3  A    between atoms: O_7  and  C_8
REMARK    4  A    between atoms: C_8  and  C_9
REMARK    5  A    between atoms: C_14  and  C_15
REMARK                            x       y       z     vdW  Elec       q    Type
REMARK                         _______ _______ _______ _____ _____    ______ ____
ROOT
ATOM      1  C   UNL     1      44.678   5.403  11.746  0.00  0.00    +0.000 A 
ATOM      2  C   UNL     1      43.840   6.460  11.363  0.00  0.00    +0.000 A 
ATOM      3  C   UNL     1      44.312   7.765  11.406  0.00  0.00    +0.000 A 
ATOM      4  F   UNL     1      43.515   8.771  11.023  0.00  0.00    +0.000 F 
ATOM      5  C   UNL     1      45.636   8.030  11.725  0.00  0.00    +0.000 A 
ATOM      6  C   UNL     1      46.525   6.971  11.990  0.00  0.00    +0.000 A 
ATOM      7  C   UNL     1      46.003   5.683  12.122  0.00  0.00    +0.000 A 
ENDROOT
BRANCH   6   8
ATOM      8  C   UNL     1      48.018   7.247  11.832  0.00  0.00    +0.000 C 
ATOM      9  C   UNL     1      48.749   6.521  12.989  0.00  0.00    +0.000 C 
ATOM     10  C   UNL     1      48.728   7.324  14.291  0.00  0.00    +0.000 C 
ATOM     11  N   UNL     1      49.343   8.638  14.114  0.00  0.00    +0.000 NA
ATOM     12  C   UNL     1      48.628   9.420  13.108  0.00  0.00    +0.000 C 
ATOM     13  C   UNL     1      48.515   8.705  11.757  0.00  0.00    +0.000 C 
ATOM     14  H   UNL     1      50.311   8.514  13.819  0.00  0.00    +0.000 HD
ENDBRANCH   6   8
BRANCH   1  15
ATOM     15  C   UNL     1      44.233   3.970  11.547  0.00  0.00    +0.000 C 
BRANCH  15  16
ATOM     16  O   UNL     1      43.788   3.767  10.207  0.00  0.00    +0.000 OA
BRANCH  16  20
ATOM     17  C   UNL     1      46.649   2.477   7.462  0.00  0.00    +0.000 A 
ATOM     18  C   UNL     1      46.362   3.844   7.528  0.00  0.00    +0.000 A 
ATOM     19  C   UNL     1      45.407   4.323   8.433  0.00  0.00    +0.000 A 
ATOM     20  C   UNL     1      44.736   3.437   9.280  0.00  0.00    +0.000 A 
ATOM     21  C   UNL     1      45.026   2.070   9.204  0.00  0.00    +0.000 A 
ATOM     22  C   UNL     1      45.979   1.589   8.304  0.00  0.00    +0.000 A 
BRANCH  17  24
ATOM     23  N   UNL     1      48.439   1.609   5.800  0.00  0.00    +0.000 NA
ATOM     24  C   UNL     1      47.637   1.993   6.538  0.00  0.00    +0.000 C 
ENDBRANCH  17  24
ENDBRANCH  16  20
ENDBRANCH  15  16
ENDBRANCH   1  15
TORSDOF 5
ENDMDL
MODEL 3
REMARK VINA RESULT:    -7.495      2.850      3.572
REMARK INTER + INTRA:         -10.285
REMARK INTER:                  -9.502
REMARK INTRA:                  -0.784
REMARK UNBOUND:                -0.600
REMARK  Name = 
REMARK  5 active torsions:
REMARK  status: ('A' for Active; 'I' for Inactive)
REMARK    1  A    between atoms: C_2  and  C_3
REMARK    2  A    between atoms: C_6  and  O_7
REMARK    3  A    between atoms: O_7  and  C_8
REMARK    4  A    between atoms: C_8  and  C_9
REMARK    5  A    between atoms: C_14  and  C_15
REMARK                            x       y       z     vdW  Elec       q    Type
REMARK                         _______ _______ _______ _____ _____    ______ ____
ROOT
ATOM      1  C   UNL     1      44.982   6.088  11.646  0.00  0.00    +0.000 A 
ATOM      2  C   UNL     1      46.271   5.811  12.121  0.00  0.00    +0.000 A 
ATOM      3  C   UNL     1      47.170   6.849  12.325  0.00  0.00    +0.000 A 
ATOM      4  F   UNL     1      48.395   6.582  12.796  0.00  0.00    +0.000 F 
ATOM      5  C   UNL     1      46.777   8.169  12.162  0.00  0.00    +0.000 A 
ATOM      6  C   UNL     1      45.449   8.473  11.808  0.00  0.00    +0.000 A 
ATOM      7  C   UNL     1      44.606   7.425  11.430  0.00  0.00    +0.000 A 
ENDROOT
BRANCH   6   8
ATOM      8  C   UNL     1      44.934   9.873  12.131  0.00  0.00    +0.000 C 
ATOM      9  C   UNL     1      43.634  10.089  11.316  0.00  0.00    +0.000 C 
ATOM     10  C   UNL     1      43.910  10.512   9.873  0.00  0.00    +0.000 C 
ATOM     11  N   UNL     1      44.692  11.745   9.820  0.00  0.00    +0.000 NA
ATOM     12  C   UNL     1      45.985  11.574  10.479  0.00  0.00    +0.000 C 
ATOM     13  C   UNL     1      45.864  11.086  11.927  0.00  0.00    +0.000 C 
ATOM     14  H   UNL     1      44.172  12.488  10.287  0.00  0.00    +0.000 HD
ENDBRANCH   6   8
BRANCH   1  15
ATOM     15  C   UNL     1      43.944   4.989  11.578  0.00  0.00    +0.000 C 
BRANCH  15  16
ATOM     16  O   UNL     1      43.587   4.723  10.223  0.00  0.00    +0.000 OA
BRANCH  16  20
ATOM     17  C   UNL     1      46.262   2.535   7.891  0.00  0.00    +0.000 A 
ATOM     18  C   UNL     1      45.443   1.841   8.787  0.00  0.00    +0.000 A 
ATOM     19  C   UNL     1      44.531   2.535   9.592  0.00  0.00    +0.000 A 
ATOM     20  C   UNL     1      44.431   3.925   9.502  0.00  0.00    +0.000 A 
ATOM     21  C   UNL     1      45.259   4.612   8.606  0.00  0.00    +0.000 A 
ATOM     22  C   UNL     1      46.168   3.924   7.801  0.00  0.00    +0.000 A 
BRANCH  17  24
ATOM     23  N   UNL     1      47.943   1.243   6.397  0.00  0.00    +0.000 NA
ATOM     24  C   UNL     1      47.189   1.817   7.061  0.00  0.00    +0.000 C 
ENDBRANCH  17  24
ENDBRANCH  16  20
ENDBRANCH  15  16
ENDBRANCH   1  15
TORSDOF 5
ENDMDL
MODEL 4
REMARK VINA RESULT:    -7.284      1.281      2.060
REMARK INTER + INTRA:         -10.013
REMARK INTER:                  -9.269
REMARK INTRA:                  -0.743
REMARK UNBOUND:                -0.600
REMARK  Name = 
REMARK  5 active torsions:
REMARK  status: ('A' for Active; 'I' for Inactive)
REMARK    1  A    between atoms: C_2  and  C_3
REMARK    2  A    between atoms: C_6  and  O_7
REMARK    3  A    between atoms: O_7  and  C_8
REMARK    4  A    between atoms: C_8  and  C_9
REMARK    5  A    between atoms: C_14  and  C_15
REMARK                            x       y       z     vdW  Elec       q    Type
REMARK                         _______ _______ _______ _____ _____    ______ ____
ROOT
ATOM      1  C   UNL     1      45.757   5.948  11.808  0.00  0.00    +0.000 A 
ATOM      2  C   UNL     1      45.619   5.270  13.027  0.00  0.00    +0.000 A 
ATOM      3  C   UNL     1      46.692   5.203  13.905  0.00  0.00    +0.000 A 
ATOM      4  F   UNL     1      46.551   4.569  15.076  0.00  0.00    +0.000 F 
ATOM      5  C   UNL     1      47.870   5.886  13.639  0.00  0.00    +0.000 A 
ATOM      6  C   UNL     1      47.983   6.676  12.479  0.00  0.00    +0.000 A 
ATOM      7  C   UNL     1      46.973   6.593  11.518  0.00  0.00    +0.000 A 
ENDROOT
BRANCH   6   8
ATOM      8  C   UNL     1      49.040   7.776  12.474  0.00  0.00    +0.000 C 
ATOM      9  C   UNL     1      49.267   8.208  13.945  0.00  0.00    +0.000 C 
ATOM     10  C   UNL     1      48.216   9.207  14.432  0.00  0.00    +0.000 C 
ATOM     11  N   UNL     1      48.199  10.408  13.600  0.00  0.00    +0.000 NA
ATOM     12  C   UNL     1      47.879  10.081  12.213  0.00  0.00    +0.000 C 
ATOM     13  C   UNL     1      48.821   9.033  11.608  0.00  0.00    +0.000 C 
ATOM     14  H   UNL     1      49.117  10.851  13.639  0.00  0.00    +0.000 HD
ENDBRANCH   6   8
BRANCH   1  15
ATOM     15  C   UNL     1      44.552   6.170  10.920  0.00  0.00    +0.000 C 
BRANCH  15  16
ATOM     16  O   UNL     1      43.931   4.926  10.602  0.00  0.00    +0.000 OA
BRANCH  16  20
ATOM     17  C   UNL     1      46.144   2.560   7.979  0.00  0.00    +0.000 A 
ATOM     18  C   UNL     1      45.408   1.925   8.985  0.00  0.00    +0.000 A 
ATOM     19  C   UNL     1      44.652   2.680   9.889  0.00  0.00    +0.000 A 
ATOM     20  C   UNL     1      44.625   4.073   9.792  0.00  0.00    +0.000 A 
ATOM     21  C   UNL     1      45.368   4.701   8.786  0.00  0.00    +0.000 A 
ATOM     22  C   UNL     1      46.122   3.952   7.880  0.00  0.00    +0.000 A 
BRANCH  17  24
ATOM     23  N   UNL     1      47.522   1.144   6.300  0.00  0.00    +0.000 NA
ATOM     24  C   UNL     1      46.911   1.780   7.048  0.00  0.00    +0.000 C 
ENDBRANCH  17  24
ENDBRANCH  16  20
ENDBRANCH  15  16
ENDBRANCH   1  15
TORSDOF 5
ENDMDL
MODEL 5
REMARK VINA RESULT:    -7.193      2.076      2.981
REMARK INTER + INTRA:          -9.895
REMARK INTER:                  -9.360
REMARK INTRA:                  -0.535
REMARK UNBOUND:                -0.600
REMARK  Name = 
REMARK  5 active torsions:
REMARK  status: ('A' for Active; 'I' for Inactive)
REMARK    1  A    between atoms: C_2  and  C_3
REMARK    2  A    between atoms: C_6  and  O_7
REMARK    3  A    between atoms: O_7  and  C_8
REMARK    4  A    between atoms: C_8  and  C_9
REMARK    5  A    between atoms: C_14  and  C_15
REMARK                            x       y       z     vdW  Elec       q    Type
REMARK                         _______ _______ _______ _____ _____    ______ ____
ROOT
ATOM      1  C   UNL     1      44.300   6.070  11.342  0.00  0.00    +0.000 A 
ATOM      2  C   UNL     1      44.235   7.470  11.320  0.00  0.00    +0.000 A 
ATOM      3  C   UNL     1      45.117   8.214  12.092  0.00  0.00    +0.000 A 
ATOM      4  F   UNL     1      45.064   9.552  12.054  0.00  0.00    +0.000 F 
ATOM      5  C   UNL     1      46.130   7.594  12.808  0.00  0.00    +0.000 A 
ATOM      6  C   UNL     1      46.289   6.196  12.742  0.00  0.00    +0.000 A 
ATOM      7  C   UNL     1      45.294   5.444  12.114  0.00  0.00    +0.000 A 
ENDROOT
BRANCH   6   8
ATOM      8  C   UNL     1      47.658   5.623  13.100  0.00  0.00    +0.000 C 
ATOM      9  C   UNL     1      47.425   4.230  13.736  0.00  0.00    +0.000 C 
ATOM     10  C   UNL     1      47.061   4.315  15.219  0.00  0.00    +0.000 C 
ATOM     11  N   UNL     1      48.102   4.997  15.983  0.00  0.00    +0.000 NA
ATOM     12  C   UNL     1      48.294   6.364  15.503  0.00  0.00    +0.000 C 
ATOM     13  C   UNL     1      48.606   6.438  14.004  0.00  0.00    +0.000 C 
ATOM     14  H   UNL     1      48.976   4.481  15.888  0.00  0.00    +0.000 HD
ENDBRANCH   6   8
BRANCH   1  15
ATOM     15  C   UNL     1      43.459   5.255  10.384  0.00  0.00    +0.000 C 
BRANCH  15  16
ATOM     16  O   UNL     1      43.768   3.868  10.506  0.00  0.00    +0.000 OA
BRANCH  16  20
ATOM     17  C   UNL     1      46.433   2.528   7.593  0.00  0.00    +0.000 A 
ATOM     18  C   UNL     1      45.812   1.578   8.411  0.00  0.00    +0.000 A 
ATOM     19  C   UNL     1      44.912   1.983   9.404  0.00  0.00    +0.000 A 
ATOM     20  C   UNL     1      44.624   3.338   9.582  0.00  0.00    +0.000 A 
ATOM     21  C   UNL     1      45.254   4.282   8.763  0.00  0.00    +0.000 A 
ATOM     22  C   UNL     1      46.151   3.883   7.770  0.00  0.00    +0.000 A 
BRANCH  17  24
ATOM     23  N   UNL     1      48.093   1.772   5.751  0.00  0.00    +0.000 NA
ATOM     24  C   UNL     1      47.349   2.106   6.570  0.00  0.00    +0.000 C 
ENDBRANCH  17  24
ENDBRANCH  16  20
ENDBRANCH  15  16
ENDBRANCH   1  15
TORSDOF 5
ENDMDL
MODEL 6
REMARK VINA RESULT:    -6.683      4.145      7.944
REMARK INTER + INTRA:          -9.236
REMARK INTER:                  -8.457
REMARK INTRA:                  -0.779
REMARK UNBOUND:                -0.600
REMARK  Name = 
REMARK  5 active torsions:
REMARK  status: ('A' for Active; 'I' for Inactive)
REMARK    1  A    between atoms: C_2  and  C_3
REMARK    2  A    between atoms: C_6  and  O_7
REMARK    3  A    between atoms: O_7  and  C_8
REMARK    4  A    between atoms: C_8  and  C_9
REMARK    5  A    between atoms: C_14  and  C_15
REMARK                            x       y       z     vdW  Elec       q    Type
REMARK                         _______ _______ _______ _____ _____    ______ ____
ROOT
ATOM      1  C   UNL     1      47.063   7.127  13.070  0.00  0.00    +0.000 A 
ATOM      2  C   UNL     1      46.446   8.377  13.212  0.00  0.00    +0.000 A 
ATOM      3  C   UNL     1      45.370   8.712  12.402  0.00  0.00    +0.000 A 
ATOM      4  F   UNL     1      44.771   9.900  12.553  0.00  0.00    +0.000 F 
ATOM      5  C   UNL     1      44.830   7.785  11.521  0.00  0.00    +0.000 A 
ATOM      6  C   UNL     1      45.358   6.482  11.455  0.00  0.00    +0.000 A 
ATOM      7  C   UNL     1      46.547   6.211  12.137  0.00  0.00    +0.000 A 
ENDROOT
BRANCH   6   8
ATOM      8  C   UNL     1      44.460   5.384  10.890  0.00  0.00    +0.000 C 
ATOM      9  C   UNL     1      43.110   5.454  11.646  0.00  0.00    +0.000 C 
ATOM     10  C   UNL     1      43.155   4.736  12.996  0.00  0.00    +0.000 C 
ATOM     11  N   UNL     1      43.518   3.329  12.837  0.00  0.00    +0.000 NA
ATOM     12  C   UNL     1      44.839   3.194  12.228  0.00  0.00    +0.000 C 
ATOM     13  C   UNL     1      44.961   3.925  10.885  0.00  0.00    +0.000 C 
ATOM     14  H   UNL     1      42.825   2.873  12.245  0.00  0.00    +0.000 HD
ENDBRANCH   6   8
BRANCH   1  15
ATOM     15  C   UNL     1      48.126   6.687  14.054  0.00  0.00    +0.000 C 
BRANCH  15  16
ATOM     16  O   UNL     1      47.910   5.334  14.450  0.00  0.00    +0.000 OA
BRANCH  16  20
ATOM     17  C   UNL     1      48.330   4.717  18.551  0.00  0.00    +0.000 A 
ATOM     18  C   UNL     1      47.499   3.852  17.832  0.00  0.00    +0.000 A 
ATOM     19  C   UNL     1      47.326   4.022  16.454  0.00  0.00    +0.000 A 
ATOM     20  C   UNL     1      47.986   5.057  15.786  0.00  0.00    +0.000 A 
ATOM     21  C   UNL     1      48.812   5.921  16.513  0.00  0.00    +0.000 A 
ATOM     22  C   UNL     1      48.988   5.754  17.888  0.00  0.00    +0.000 A 
BRANCH  17  24
ATOM     23  N   UNL     1      48.646   4.379  21.102  0.00  0.00    +0.000 NA
ATOM     24  C   UNL     1      48.511   4.531  19.964  0.00  0.00    +0.000 C 
ENDBRANCH  17  24
ENDBRANCH  16  20
ENDBRANCH  15  16
ENDBRANCH   1  15
TORSDOF 5
ENDMDL
MODEL 7
REMARK VINA RESULT:    -6.575      4.453      7.805
REMARK INTER + INTRA:          -9.097
REMARK INTER:                  -8.683
REMARK INTRA:                  -0.413
REMARK UNBOUND:                -0.600
REMARK  Name = 
REMARK  5 active torsions:
REMARK  status: ('A' for Active; 'I' for Inactive)
REMARK    1  A    between atoms: C_2  and  C_3
REMARK    2  A    between atoms: C_6  and  O_7
REMARK    3  A    between atoms: O_7  and  C_8
REMARK    4  A    between atoms: C_8  and  C_9
REMARK    5  A    between atoms: C_14  and  C_15
REMARK                            x       y       z     vdW  Elec       q    Type
REMARK                         _______ _______ _______ _____ _____    ______ ____
ROOT
ATOM      1  C   UNL     1      46.988   4.921  14.500  0.00  0.00    +0.000 A 
ATOM      2  C   UNL     1      47.776   6.035  14.180  0.00  0.00    +0.000 A 
ATOM      3  C   UNL     1      47.632   6.651  12.945  0.00  0.00    +0.000 A 
ATOM      4  F   UNL     1      48.374   7.727  12.651  0.00  0.00    +0.000 F 
ATOM      5  C   UNL     1      46.646   6.242  12.059  0.00  0.00    +0.000 A 
ATOM      6  C   UNL     1      45.762   5.205  12.414  0.00  0.00    +0.000 A 
ATOM      7  C   UNL     1      46.028   4.475  13.575  0.00  0.00    +0.000 A 
ENDROOT
BRANCH   6   8
ATOM      8  C   UNL     1      44.428   5.132  11.677  0.00  0.00    +0.000 C 
ATOM      9  C   UNL     1      43.455   4.311  12.561  0.00  0.00    +0.000 C 
ATOM     10  C   UNL     1      43.642   2.802  12.394  0.00  0.00    +0.000 C 
ATOM     11  N   UNL     1      43.452   2.394  11.004  0.00  0.00    +0.000 NA
ATOM     12  C   UNL     1      44.419   3.052  10.127  0.00  0.00    +0.000 C 
ATOM     13  C   UNL     1      44.388   4.581  10.237  0.00  0.00    +0.000 C 
ATOM     14  H   UNL     1      42.508   2.643  10.711  0.00  0.00    +0.000 HD
ENDBRANCH   6   8
BRANCH   1  15
ATOM     15  C   UNL     1      47.017   4.344  15.898  0.00  0.00    +0.000 C 
BRANCH  15  16
ATOM     16  O   UNL     1      48.074   4.928  16.657  0.00  0.00    +0.000 OA
BRANCH  16  20
ATOM     17  C   UNL     1      51.149   2.245  17.513  0.00  0.00    +0.000 A 
ATOM     18  C   UNL     1      51.370   3.606  17.750  0.00  0.00    +0.000 A 
ATOM     19  C   UNL     1      50.367   4.543  17.476  0.00  0.00    +0.000 A 
ATOM     20  C   UNL     1      49.136   4.125  16.966  0.00  0.00    +0.000 A 
ATOM     21  C   UNL     1      48.924   2.762  16.726  0.00  0.00    +0.000 A 
ATOM     22  C   UNL     1      49.921   1.824  17.001  0.00  0.00    +0.000 A 
BRANCH  17  24
ATOM     23  N   UNL     1      53.000   0.510  18.045  0.00  0.00    +0.000 NA
ATOM     24  C   UNL     1      52.178   1.288  17.806  0.00  0.00    +0.000 C 
ENDBRANCH  17  24
ENDBRANCH  16  20
ENDBRANCH  15  16
ENDBRANCH   1  15
TORSDOF 5
ENDMDL
MODEL 8
REMARK VINA RESULT:    -6.459      4.128      8.299
REMARK INTER + INTRA:          -8.947
REMARK INTER:                  -8.065
REMARK INTRA:                  -0.882
REMARK UNBOUND:                -0.600
REMARK  Name = 
REMARK  5 active torsions:
REMARK  status: ('A' for Active; 'I' for Inactive)
REMARK    1  A    between atoms: C_2  and  C_3
REMARK    2  A    between atoms: C_6  and  O_7
REMARK    3  A    between atoms: O_7  and  C_8
REMARK    4  A    between atoms: C_8  and  C_9
REMARK    5  A    between atoms: C_14  and  C_15
REMARK                            x       y       z     vdW  Elec       q    Type
REMARK                         _______ _______ _______ _____ _____    ______ ____
ROOT
ATOM      1  C   UNL     1      47.584   7.243  13.431  0.00  0.00    +0.000 A 
ATOM      2  C   UNL     1      46.868   8.436  13.264  0.00  0.00    +0.000 A 
ATOM      3  C   UNL     1      45.554   8.396  12.820  0.00  0.00    +0.000 A 
ATOM      4  F   UNL     1      44.867   9.537  12.679  0.00  0.00    +0.000 F 
ATOM      5  C   UNL     1      44.904   7.184  12.636  0.00  0.00    +0.000 A 
ATOM      6  C   UNL     1      45.568   5.975  12.920  0.00  0.00    +0.000 A 
ATOM      7  C   UNL     1      46.938   6.018  13.190  0.00  0.00    +0.000 A 
ENDROOT
BRANCH   6   8
ATOM      8  C   UNL     1      44.708   4.745  13.196  0.00  0.00    +0.000 C 
ATOM      9  C   UNL     1      45.322   3.563  12.406  0.00  0.00    +0.000 C 
ATOM     10  C   UNL     1      44.888   3.549  10.939  0.00  0.00    +0.000 C 
ATOM     11  N   UNL     1      43.434   3.475  10.816  0.00  0.00    +0.000 NA
ATOM     12  C   UNL     1      42.795   4.626  11.449  0.00  0.00    +0.000 C 
ATOM     13  C   UNL     1      43.192   4.804  12.919  0.00  0.00    +0.000 C 
ATOM     14  H   UNL     1      43.107   2.619  11.264  0.00  0.00    +0.000 HD
ENDBRANCH   6   8
BRANCH   1  15
ATOM     15  C   UNL     1      48.956   7.262  14.069  0.00  0.00    +0.000 C 
BRANCH  15  16
ATOM     16  O   UNL     1      49.140   6.111  14.891  0.00  0.00    +0.000 OA
BRANCH  16  20
ATOM     17  C   UNL     1      47.921   6.147  18.878  0.00  0.00    +0.000 A 
ATOM     18  C   UNL     1      48.427   7.329  18.329  0.00  0.00    +0.000 A 
ATOM     19  C   UNL     1      48.850   7.363  16.995  0.00  0.00    +0.000 A 
ATOM     20  C   UNL     1      48.767   6.216  16.202  0.00  0.00    +0.000 A 
ATOM     21  C   UNL     1      48.265   5.035  16.761  0.00  0.00    +0.000 A 
ATOM     22  C   UNL     1      47.840   4.997  18.090  0.00  0.00    +0.000 A 
BRANCH  17  24
ATOM     23  N   UNL     1      47.121   6.090  21.343  0.00  0.00    +0.000 NA
ATOM     24  C   UNL     1      47.480   6.120  20.245  0.00  0.00    +0.000 C 
ENDBRANCH  17  24
ENDBRANCH  16  20
ENDBRANCH  15  16
ENDBRANCH   1  15
TORSDOF 5
ENDMDL
MODEL 9
REMARK VINA RESULT:    -5.984      4.556      6.584
REMARK INTER + INTRA:          -8.333
REMARK INTER:                  -7.398
REMARK INTRA:                  -0.936
REMARK UNBOUND:                -0.600
REMARK  Name = 
REMARK  5 active torsions:
REMARK  status: ('A' for Active; 'I' for Inactive)
REMARK    1  A    between atoms: C_2  and  C_3
REMARK    2  A    between atoms: C_6  and  O_7
REMARK    3  A    between atoms: O_7  and  C_8
REMARK    4  A    between atoms: C_8  and  C_9
REMARK    5  A    between atoms: C_14  and  C_15
REMARK                            x       y       z     vdW  Elec       q    Type
REMARK                         _______ _______ _______ _____ _____    ______ ____
ROOT
ATOM      1  C   UNL     1      48.924   7.490  15.318  0.00  0.00    +0.000 A 
ATOM      2  C   UNL     1      48.488   8.688  15.900  0.00  0.00    +0.000 A 
ATOM      3  C   UNL     1      48.309   8.762  17.275  0.00  0.00    +0.000 A 
ATOM      4  F   UNL     1      47.910   9.914  17.830  0.00  0.00    +0.000 F 
ATOM      5  C   UNL     1      48.654   7.697  18.094  0.00  0.00    +0.000 A 
ATOM      6  C   UNL     1      49.213   6.530  17.538  0.00  0.00    +0.000 A 
ATOM      7  C   UNL     1      49.220   6.395  16.147  0.00  0.00    +0.000 A 
ENDROOT
BRANCH   6   8
ATOM      8  C   UNL     1      50.026   5.627  18.461  0.00  0.00    +0.000 C 
ATOM      9  C   UNL     1      49.854   4.173  17.957  0.00  0.00    +0.000 C 
ATOM     10  C   UNL     1      48.558   3.530  18.452  0.00  0.00    +0.000 C 
ATOM     11  N   UNL     1      48.495   3.518  19.912  0.00  0.00    +0.000 NA
ATOM     12  C   UNL     1      48.541   4.875  20.450  0.00  0.00    +0.000 C 
ATOM     13  C   UNL     1      49.767   5.668  19.980  0.00  0.00    +0.000 C 
ATOM     14  H   UNL     1      49.286   2.985  20.274  0.00  0.00    +0.000 HD
ENDBRANCH   6   8
BRANCH   1  15
ATOM     15  C   UNL     1      49.280   7.445  13.848  0.00  0.00    +0.000 C 
BRANCH  15  16
ATOM     16  O   UNL     1      48.845   6.217  13.267  0.00  0.00    +0.000 OA
BRANCH  16  20
ATOM     17  C   UNL     1      44.810   5.742  12.332  0.00  0.00    +0.000 A 
ATOM     18  C   UNL     1      45.538   6.723  11.650  0.00  0.00    +0.000 A 
ATOM     19  C   UNL     1      46.895   6.919  11.932  0.00  0.00    +0.000 A 
ATOM     20  C   UNL     1      47.533   6.134  12.896  0.00  0.00    +0.000 A 
ATOM     21  C   UNL     1      46.796   5.158  13.578  0.00  0.00    +0.000 A 
ATOM     22  C   UNL     1      45.442   4.958  13.298  0.00  0.00    +0.000 A 
BRANCH  17  24
ATOM     23  N   UNL     1      42.302   5.385  11.783  0.00  0.00    +0.000 NA
ATOM     24  C   UNL     1      43.421   5.540  12.031  0.00  0.00    +0.000 C 
ENDBRANCH  17  24
ENDBRANCH  16  20
ENDBRANCH  15  16
ENDBRANCH   1  15
TORSDOF 5
ENDMDL
