MODEL 1
REMARK VINA RESULT:    -8.415      0.000      0.000
REMARK INTER + INTRA:         -12.736
REMARK INTER:                 -11.859
REMARK INTRA:                  -0.877
REMARK UNBOUND:                -0.877
REMARK  Name = 
REMARK  7 active torsions:
REMARK  status: ('A' for Active; 'I' for Inactive)
REMARK    1  A    between atoms: C_2  and  C_4
REMARK    2  A    between atoms: C_7  and  O_8
REMARK    3  A    between atoms: O_8  and  C_9
REMARK    4  A    between atoms: C_9  and  C_10
REMARK    5  A    between atoms: C_10  and  C_11
REMARK    6  A    between atoms: C_15  and  O_16
REMARK    7  A    between atoms: O_16  and  C_17
REMARK                            x       y       z     vdW  Elec       q    Type
REMARK                         _______ _______ _______ _____ _____    ______ ____
ROOT
ATOM      1  C   UNL     1      43.414   4.101  11.247  0.00  0.00    +0.000 C 
ENDROOT
BRANCH   1   2
ATOM      2  O   UNL     1      43.668   4.708   9.971  0.00  0.00    +0.000 OA
BRANCH   2   6
ATOM      3  C   UNL     1      46.366   2.466   7.791  0.00  0.00    +0.000 A 
ATOM      4  C   UNL     1      45.518   1.832   8.703  0.00  0.00    +0.000 A 
ATOM      5  C   UNL     1      44.609   2.598   9.437  0.00  0.00    +0.000 A 
ATOM      6  C   UNL     1      44.575   3.970   9.229  0.00  0.00    +0.000 A 
ATOM      7  N   UNL     1      45.388   4.603   8.358  0.00  0.00    +0.000 NA
ATOM      8  C   UNL     1      46.272   3.844   7.669  0.00  0.00    +0.000 A 
BRANCH   3  10
ATOM      9  N   UNL     1      48.421   2.496   6.490  0.00  0.00    +0.000 N 
ATOM     10  C   UNL     1      47.371   1.763   6.967  0.00  0.00    +0.000 C 
ATOM     11  O   UNL     1      47.299   0.560   6.756  0.00  0.00    +0.000 OA
ATOM     12  H   UNL     1      49.157   1.968   6.035  0.00  0.00    +0.000 HD
ATOM     13  H   UNL     1      48.657   3.409   6.849  0.00  0.00    +0.000 HD
ENDBRANCH   3  10
ENDBRANCH   2   6
ENDBRANCH   1   2
BRANCH   1  14
ATOM     14  C   UNL     1      43.463   5.146  12.365  0.00  0.00    +0.000 C 
BRANCH  14  15
ATOM     15  C   UNL     1      44.899   5.452  12.732  0.00  0.00    +0.000 A 
ATOM     16  C   UNL     1      45.555   6.519  12.104  0.00  0.00    +0.000 A 
ATOM     17  C   UNL     1      46.914   6.737  12.320  0.00  0.00    +0.000 A 
ATOM     18  C   UNL     1      47.626   5.910  13.186  0.00  0.00    +0.000 A 
ATOM     19  C   UNL     1      46.978   4.881  13.873  0.00  0.00    +0.000 A 
ATOM     20  C   UNL     1      45.623   4.635  13.620  0.00  0.00    +0.000 A 
BRANCH  19  21
ATOM     21  O   UNL     1      47.608   4.052  14.773  0.00  0.00    +0.000 OA
BRANCH  21  22
ATOM     22  C   UNL     1      47.324   4.340  16.154  0.00  0.00    +0.000 C 
ATOM     23  C   UNL     1      48.321   5.327  16.726  0.00  0.00    +0.000 C 
ATOM     24  C   UNL     1      49.405   4.460  17.326  0.00  0.00    +0.000 C 
ATOM     25  O   UNL     1      48.828   3.194  17.645  0.00  0.00    +0.000 OA
ATOM     26  C   UNL     1      47.544   3.099  17.011  0.00  0.00    +0.000 C 
ENDBRANCH  21  22
ENDBRANCH  19  21
ENDBRANCH  14  15
ENDBRANCH   1  14
TORSDOF 7
ENDMDL
MODEL 2
REMARK VINA RESULT:    -7.478      2.207      3.714
REMARK INTER + INTRA:         -11.415
REMARK INTER:                 -10.371
REMARK INTRA:                  -1.044
REMARK UNBOUND:                -0.877
REMARK  Name = 
REMARK  7 active torsions:
REMARK  status: ('A' for Active; 'I' for Inactive)
REMARK    1  A    between atoms: C_2  and  C_4
REMARK    2  A    between atoms: C_7  and  O_8
REMARK    3  A    between atoms: O_8  and  C_9
REMARK    4  A    between atoms: C_9  and  C_10
REMARK    5  A    between atoms: C_10  and  C_11
REMARK    6  A    between atoms: C_15  and  O_16
REMARK    7  A    between atoms: O_16  and  C_17
REMARK                            x       y       z     vdW  Elec       q    Type
REMARK                         _______ _______ _______ _____ _____    ______ ____
ROOT
ATOM      1  C   UNL     1      43.591   5.030  10.585  0.00  0.00    +0.000 C 
ENDROOT
BRANCH   1   2
ATOM      2  O   UNL     1      43.465   3.635  10.267  0.00  0.00    +0.000 OA
BRANCH   2   6
ATOM      3  C   UNL     1      46.423   2.447   7.641  0.00  0.00    +0.000 A 
ATOM      4  C   UNL     1      46.036   3.788   7.685  0.00  0.00    +0.000 A 
ATOM      5  C   UNL     1      45.034   4.183   8.576  0.00  0.00    +0.000 A 
ATOM      6  C   UNL     1      44.458   3.221   9.395  0.00  0.00    +0.000 A 
ATOM      7  N   UNL     1      44.812   1.920   9.365  0.00  0.00    +0.000 NA
ATOM      8  C   UNL     1      45.773   1.557   8.484  0.00  0.00    +0.000 A 
BRANCH   3  10
ATOM      9  N   UNL     1      48.557   2.696   6.500  0.00  0.00    +0.000 N 
ATOM     10  C   UNL     1      47.462   1.913   6.736  0.00  0.00    +0.000 C 
ATOM     11  O   UNL     1      47.375   0.793   6.252  0.00  0.00    +0.000 OA
ATOM     12  H   UNL     1      49.308   2.259   5.979  0.00  0.00    +0.000 HD
ATOM     13  H   UNL     1      48.791   3.494   7.072  0.00  0.00    +0.000 HD
ENDBRANCH   3  10
ENDBRANCH   2   6
ENDBRANCH   1   2
BRANCH   1  14
ATOM     14  C   UNL     1      43.551   5.247  12.100  0.00  0.00    +0.000 C 
BRANCH  14  15
ATOM     15  C   UNL     1      44.957   5.324  12.655  0.00  0.00    +0.000 A 
ATOM     16  C   UNL     1      45.539   4.176  13.208  0.00  0.00    +0.000 A 
ATOM     17  C   UNL     1      46.774   4.250  13.849  0.00  0.00    +0.000 A 
ATOM     18  C   UNL     1      47.454   5.465  13.920  0.00  0.00    +0.000 A 
ATOM     19  C   UNL     1      46.922   6.608  13.319  0.00  0.00    +0.000 A 
ATOM     20  C   UNL     1      45.660   6.542  12.715  0.00  0.00    +0.000 A 
BRANCH  19  21
ATOM     21  O   UNL     1      47.555   7.830  13.314  0.00  0.00    +0.000 OA
BRANCH  21  22
ATOM     22  C   UNL     1      47.847   8.349  12.004  0.00  0.00    +0.000 C 
ATOM     23  C   UNL     1      49.098   7.718  11.429  0.00  0.00    +0.000 C 
ATOM     24  C   UNL     1      50.212   8.654  11.841  0.00  0.00    +0.000 C 
ATOM     25  O   UNL     1      49.646   9.948  12.044  0.00  0.00    +0.000 OA
ATOM     26  C   UNL     1      48.217   9.825  12.089  0.00  0.00    +0.000 C 
ENDBRANCH  21  22
ENDBRANCH  19  21
ENDBRANCH  14  15
ENDBRANCH   1  14
TORSDOF 7
ENDMDL
MODEL 3
REMARK VINA RESULT:    -7.026      1.821      2.200
REMARK INTER + INTRA:         -10.779
REMARK INTER:                 -10.009
REMARK INTRA:                  -0.770
REMARK UNBOUND:                -0.877
REMARK  Name = 
REMARK  7 active torsions:
REMARK  status: ('A' for Active; 'I' for Inactive)
REMARK    1  A    between atoms: C_2  and  C_4
REMARK    2  A    between atoms: C_7  and  O_8
REMARK    3  A    between atoms: O_8  and  C_9
REMARK    4  A    between atoms: C_9  and  C_10
REMARK    5  A    between atoms: C_10  and  C_11
REMARK    6  A    between atoms: C_15  and  O_16
REMARK    7  A    between atoms: O_16  and  C_17
REMARK                            x       y       z     vdW  Elec       q    Type
REMARK                         _______ _______ _______ _____ _____    ______ ____
ROOT
ATOM      1  C   UNL     1      44.903   5.846  10.731  0.00  0.00    +0.000 C 
ENDROOT
BRANCH   1   2
ATOM      2  O   UNL     1      44.238   4.732  10.115  0.00  0.00    +0.000 OA
BRANCH   2   6
ATOM      3  C   UNL     1      46.686   2.772   7.427  0.00  0.00    +0.000 A 
ATOM      4  C   UNL     1      45.882   2.031   8.296  0.00  0.00    +0.000 A 
ATOM      5  C   UNL     1      45.057   2.701   9.204  0.00  0.00    +0.000 A 
ATOM      6  C   UNL     1      45.061   4.090   9.205  0.00  0.00    +0.000 A 
ATOM      7  N   UNL     1      45.833   4.824   8.378  0.00  0.00    +0.000 NA
ATOM      8  C   UNL     1      46.636   4.155   7.519  0.00  0.00    +0.000 A 
BRANCH   3  10
ATOM      9  N   UNL     1      47.895   2.911   5.321  0.00  0.00    +0.000 N 
ATOM     10  C   UNL     1      47.602   2.174   6.433  0.00  0.00    +0.000 C 
ATOM     11  O   UNL     1      48.120   1.081   6.616  0.00  0.00    +0.000 OA
ATOM     12  H   UNL     1      48.619   2.535   4.720  0.00  0.00    +0.000 HD
ATOM     13  H   UNL     1      47.706   3.901   5.256  0.00  0.00    +0.000 HD
ENDBRANCH   3  10
ENDBRANCH   2   6
ENDBRANCH   1   2
BRANCH   1  14
ATOM     14  C   UNL     1      45.270   5.524  12.183  0.00  0.00    +0.000 C 
BRANCH  14  15
ATOM     15  C   UNL     1      46.592   6.167  12.543  0.00  0.00    +0.000 A 
ATOM     16  C   UNL     1      47.205   7.033  11.627  0.00  0.00    +0.000 A 
ATOM     17  C   UNL     1      48.484   7.528  11.873  0.00  0.00    +0.000 A 
ATOM     18  C   UNL     1      49.153   7.188  13.047  0.00  0.00    +0.000 A 
ATOM     19  C   UNL     1      48.534   6.379  14.004  0.00  0.00    +0.000 A 
ATOM     20  C   UNL     1      47.268   5.845  13.735  0.00  0.00    +0.000 A 
BRANCH  19  21
ATOM     21  O   UNL     1      49.117   6.036  15.202  0.00  0.00    +0.000 OA
BRANCH  21  22
ATOM     22  C   UNL     1      49.799   7.114  15.868  0.00  0.00    +0.000 C 
ATOM     23  C   UNL     1      50.677   6.600  16.989  0.00  0.00    +0.000 C 
ATOM     24  C   UNL     1      49.792   6.656  18.214  0.00  0.00    +0.000 C 
ATOM     25  O   UNL     1      48.793   7.650  17.988  0.00  0.00    +0.000 OA
ATOM     26  C   UNL     1      48.799   8.004  16.598  0.00  0.00    +0.000 C 
ENDBRANCH  21  22
ENDBRANCH  19  21
ENDBRANCH  14  15
ENDBRANCH   1  14
TORSDOF 7
ENDMDL
MODEL 4
REMARK VINA RESULT:    -6.646      2.499      3.069
REMARK INTER + INTRA:         -10.243
REMARK INTER:                  -9.524
REMARK INTRA:                  -0.719
REMARK UNBOUND:                -0.877
REMARK  Name = 
REMARK  7 active torsions:
REMARK  status: ('A' for Active; 'I' for Inactive)
REMARK    1  A    between atoms: C_2  and  C_4
REMARK    2  A    between atoms: C_7  and  O_8
REMARK    3  A    between atoms: O_8  and  C_9
REMARK    4  A    between atoms: C_9  and  C_10
REMARK    5  A    between atoms: C_10  and  C_11
REMARK    6  A    between atoms: C_15  and  O_16
REMARK    7  A    between atoms: O_16  and  C_17
REMARK                            x       y       z     vdW  Elec       q    Type
REMARK                         _______ _______ _______ _____ _____    ______ ____
ROOT
ATOM      1  C   UNL     1      44.137   5.385  10.739  0.00  0.00    +0.000 C 
ENDROOT
BRANCH   1   2
ATOM      2  O   UNL     1      43.877   4.021  10.373  0.00  0.00    +0.000 OA
BRANCH   2   6
ATOM      3  C   UNL     1      46.467   2.682   7.448  0.00  0.00    +0.000 A 
ATOM      4  C   UNL     1      45.914   1.771   8.350  0.00  0.00    +0.000 A 
ATOM      5  C   UNL     1      45.040   2.232   9.338  0.00  0.00    +0.000 A 
ATOM      6  C   UNL     1      44.744   3.587   9.384  0.00  0.00    +0.000 A 
ATOM      7  N   UNL     1      45.270   4.485   8.526  0.00  0.00    +0.000 NA
ATOM      8  C   UNL     1      46.128   4.020   7.587  0.00  0.00    +0.000 A 
BRANCH   3  10
ATOM      9  N   UNL     1      47.497   3.153   5.294  0.00  0.00    +0.000 N 
ATOM     10  C   UNL     1      47.408   2.314   6.369  0.00  0.00    +0.000 C 
ATOM     11  O   UNL     1      48.119   1.322   6.451  0.00  0.00    +0.000 OA
ATOM     12  H   UNL     1      48.235   2.945   4.632  0.00  0.00    +0.000 HD
ATOM     13  H   UNL     1      47.134   4.095   5.306  0.00  0.00    +0.000 HD
ENDBRANCH   3  10
ENDBRANCH   2   6
ENDBRANCH   1   2
BRANCH   1  14
ATOM     14  C   UNL     1      44.646   5.473  12.180  0.00  0.00    +0.000 C 
BRANCH  14  15
ATOM     15  C   UNL     1      45.272   6.828  12.432  0.00  0.00    +0.000 A 
ATOM     16  C   UNL     1      44.754   7.954  11.779  0.00  0.00    +0.000 A 
ATOM     17  C   UNL     1      45.394   9.187  11.884  0.00  0.00    +0.000 A 
ATOM     18  C   UNL     1      46.542   9.315  12.664  0.00  0.00    +0.000 A 
ATOM     19  C   UNL     1      47.038   8.221  13.377  0.00  0.00    +0.000 A 
ATOM     20  C   UNL     1      46.420   6.973  13.233  0.00  0.00    +0.000 A 
BRANCH  19  21
ATOM     21  O   UNL     1      48.141   8.283  14.197  0.00  0.00    +0.000 OA
BRANCH  21  22
ATOM     22  C   UNL     1      49.169   7.323  13.895  0.00  0.00    +0.000 C 
ATOM     23  C   UNL     1      50.217   7.278  14.987  0.00  0.00    +0.000 C 
ATOM     24  C   UNL     1      51.270   8.265  14.536  0.00  0.00    +0.000 C 
ATOM     25  O   UNL     1      51.189   8.375  13.115  0.00  0.00    +0.000 OA
ATOM     26  C   UNL     1      49.966   7.767  12.674  0.00  0.00    +0.000 C 
ENDBRANCH  21  22
ENDBRANCH  19  21
ENDBRANCH  14  15
ENDBRANCH   1  14
TORSDOF 7
ENDMDL
MODEL 5
REMARK VINA RESULT:    -6.549      2.887      8.051
REMARK INTER + INTRA:         -10.105
REMARK INTER:                  -9.566
REMARK INTRA:                  -0.540
REMARK UNBOUND:                -0.877
REMARK  Name = 
REMARK  7 active torsions:
REMARK  status: ('A' for Active; 'I' for Inactive)
REMARK    1  A    between atoms: C_2  and  C_4
REMARK    2  A    between atoms: C_7  and  O_8
REMARK    3  A    between atoms: O_8  and  C_9
REMARK    4  A    between atoms: C_9  and  C_10
REMARK    5  A    between atoms: C_10  and  C_11
REMARK    6  A    between atoms: C_15  and  O_16
REMARK    7  A    between atoms: O_16  and  C_17
REMARK                            x       y       z     vdW  Elec       q    Type
REMARK                         _______ _______ _______ _____ _____    ______ ____
ROOT
ATOM      1  C   UNL     1      45.950   6.494  12.728  0.00  0.00    +0.000 C 
ENDROOT
BRANCH   1   2
ATOM      2  O   UNL     1      46.744   5.301  12.827  0.00  0.00    +0.000 OA
BRANCH   2   6
ATOM      3  C   UNL     1      48.141   4.748  16.674  0.00  0.00    +0.000 A 
ATOM      4  C   UNL     1      48.478   5.911  15.978  0.00  0.00    +0.000 A 
ATOM      5  C   UNL     1      48.003   6.090  14.676  0.00  0.00    +0.000 A 
ATOM      6  C   UNL     1      47.201   5.103  14.120  0.00  0.00    +0.000 A 
ATOM      7  N   UNL     1      46.868   3.970  14.772  0.00  0.00    +0.000 NA
ATOM      8  C   UNL     1      47.353   3.809  16.026  0.00  0.00    +0.000 A 
BRANCH   3  10
ATOM      9  N   UNL     1      47.713   4.682  19.069  0.00  0.00    +0.000 N 
ATOM     10  C   UNL     1      48.592   4.445  18.049  0.00  0.00    +0.000 C 
ATOM     11  O   UNL     1      49.690   3.955  18.270  0.00  0.00    +0.000 OA
ATOM     12  H   UNL     1      47.998   4.351  19.983  0.00  0.00    +0.000 HD
ATOM     13  H   UNL     1      46.727   4.832  18.915  0.00  0.00    +0.000 HD
ENDBRANCH   3  10
ENDBRANCH   2   6
ENDBRANCH   1   2
BRANCH   1  14
ATOM     14  C   UNL     1      45.255   6.571  11.366  0.00  0.00    +0.000 C 
BRANCH  14  15
ATOM     15  C   UNL     1      44.732   5.208  10.969  0.00  0.00    +0.000 A 
ATOM     16  C   UNL     1      43.939   4.488  11.873  0.00  0.00    +0.000 A 
ATOM     17  C   UNL     1      43.560   3.177  11.589  0.00  0.00    +0.000 A 
ATOM     18  C   UNL     1      43.943   2.582  10.389  0.00  0.00    +0.000 A 
ATOM     19  C   UNL     1      44.678   3.303   9.445  0.00  0.00    +0.000 A 
ATOM     20  C   UNL     1      45.097   4.604   9.751  0.00  0.00    +0.000 A 
BRANCH  19  21
ATOM     21  O   UNL     1      45.056   2.794   8.224  0.00  0.00    +0.000 OA
BRANCH  21  22
ATOM     22  C   UNL     1      46.479   2.712   8.023  0.00  0.00    +0.000 C 
ATOM     23  C   UNL     1      46.913   3.530   6.824  0.00  0.00    +0.000 C 
ATOM     24  C   UNL     1      46.884   2.550   5.673  0.00  0.00    +0.000 C 
ATOM     25  O   UNL     1      47.053   1.238   6.208  0.00  0.00    +0.000 OA
ATOM     26  C   UNL     1      46.879   1.294   7.632  0.00  0.00    +0.000 C 
ENDBRANCH  21  22
ENDBRANCH  19  21
ENDBRANCH  14  15
ENDBRANCH   1  14
TORSDOF 7
ENDMDL
MODEL 6
REMARK VINA RESULT:    -6.477      3.207      5.567
REMARK INTER + INTRA:         -10.004
REMARK INTER:                 -10.077
REMARK INTRA:                   0.073
REMARK UNBOUND:                -0.877
REMARK  Name = 
REMARK  7 active torsions:
REMARK  status: ('A' for Active; 'I' for Inactive)
REMARK    1  A    between atoms: C_2  and  C_4
REMARK    2  A    between atoms: C_7  and  O_8
REMARK    3  A    between atoms: O_8  and  C_9
REMARK    4  A    between atoms: C_9  and  C_10
REMARK    5  A    between atoms: C_10  and  C_11
REMARK    6  A    between atoms: C_15  and  O_16
REMARK    7  A    between atoms: O_16  and  C_17
REMARK                            x       y       z     vdW  Elec       q    Type
REMARK                         _______ _______ _______ _____ _____    ______ ____
ROOT
ATOM      1  C   UNL     1      44.138   4.646  11.359  0.00  0.00    +0.000 C 
ENDROOT
BRANCH   1   2
ATOM      2  O   UNL     1      43.521   3.903  10.297  0.00  0.00    +0.000 OA
BRANCH   2   6
ATOM      3  C   UNL     1      46.322   2.482   7.615  0.00  0.00    +0.000 A 
ATOM      4  C   UNL     1      45.886   3.806   7.522  0.00  0.00    +0.000 A 
ATOM      5  C   UNL     1      44.937   4.279   8.432  0.00  0.00    +0.000 A 
ATOM      6  C   UNL     1      44.463   3.412   9.408  0.00  0.00    +0.000 A 
ATOM      7  N   UNL     1      44.866   2.130   9.512  0.00  0.00    +0.000 NA
ATOM      8  C   UNL     1      45.774   1.688   8.610  0.00  0.00    +0.000 A 
BRANCH   3  10
ATOM      9  N   UNL     1      48.144   2.710   6.018  0.00  0.00    +0.000 N 
ATOM     10  C   UNL     1      47.313   1.870   6.705  0.00  0.00    +0.000 C 
ATOM     11  O   UNL     1      47.422   0.656   6.601  0.00  0.00    +0.000 OA
ATOM     12  H   UNL     1      48.892   2.264   5.500  0.00  0.00    +0.000 HD
ATOM     13  H   UNL     1      48.265   3.681   6.266  0.00  0.00    +0.000 HD
ENDBRANCH   3  10
ENDBRANCH   2   6
ENDBRANCH   1   2
BRANCH   1  14
ATOM     14  C   UNL     1      45.483   5.223  10.908  0.00  0.00    +0.000 C 
BRANCH  14  15
ATOM     15  C   UNL     1      45.771   6.514  11.642  0.00  0.00    +0.000 A 
ATOM     16  C   UNL     1      46.776   6.539  12.619  0.00  0.00    +0.000 A 
ATOM     17  C   UNL     1      46.968   7.673  13.404  0.00  0.00    +0.000 A 
ATOM     18  C   UNL     1      46.179   8.805  13.206  0.00  0.00    +0.000 A 
ATOM     19  C   UNL     1      45.215   8.825  12.194  0.00  0.00    +0.000 A 
ATOM     20  C   UNL     1      44.992   7.669  11.437  0.00  0.00    +0.000 A 
BRANCH  19  21
ATOM     21  O   UNL     1      44.429   9.919  11.915  0.00  0.00    +0.000 OA
BRANCH  21  22
ATOM     22  C   UNL     1      43.926   9.967  10.568  0.00  0.00    +0.000 C 
ATOM     23  C   UNL     1      44.366  11.232   9.861  0.00  0.00    +0.000 C 
ATOM     24  C   UNL     1      43.243  12.213  10.114  0.00  0.00    +0.000 C 
ATOM     25  O   UNL     1      42.052  11.464  10.354  0.00  0.00    +0.000 OA
ATOM     26  C   UNL     1      42.406  10.091  10.573  0.00  0.00    +0.000 C 
ENDBRANCH  21  22
ENDBRANCH  19  21
ENDBRANCH  14  15
ENDBRANCH   1  14
TORSDOF 7
ENDMDL
MODEL 7
REMARK VINA RESULT:    -6.474      3.525      7.375
REMARK INTER + INTRA:         -10.000
REMARK INTER:                  -8.856
REMARK INTRA:                  -1.145
REMARK UNBOUND:                -0.877
REMARK  Name = 
REMARK  7 active torsions:
REMARK  status: ('A' for Active; 'I' for Inactive)
REMARK    1  A    between atoms: C_2  and  C_4
REMARK    2  A    between atoms: C_7  and  O_8
REMARK    3  A    between atoms: O_8  and  C_9
REMARK    4  A    between atoms: C_9  and  C_10
REMARK    5  A    between atoms: C_10  and  C_11
REMARK    6  A    between atoms: C_15  and  O_16
REMARK    7  A    between atoms: O_16  and  C_17
REMARK                            x       y       z     vdW  Elec       q    Type
REMARK                         _______ _______ _______ _____ _____    ______ ____
ROOT
ATOM      1  C   UNL     1      49.556   7.188  13.200  0.00  0.00    +0.000 C 
ENDROOT
BRANCH   1   2
ATOM      2  O   UNL     1      49.253   7.650  14.526  0.00  0.00    +0.000 OA
BRANCH   2   6
ATOM      3  C   UNL     1      48.065   4.561  16.997  0.00  0.00    +0.000 A 
ATOM      4  C   UNL     1      48.989   5.500  17.461  0.00  0.00    +0.000 A 
ATOM      5  C   UNL     1      49.387   6.542  16.618  0.00  0.00    +0.000 A 
ATOM      6  C   UNL     1      48.841   6.611  15.344  0.00  0.00    +0.000 A 
ATOM      7  N   UNL     1      47.951   5.712  14.874  0.00  0.00    +0.000 NA
ATOM      8  C   UNL     1      47.592   4.702  15.701  0.00  0.00    +0.000 A 
BRANCH   3  10
ATOM      9  N   UNL     1      48.268   3.094  18.927  0.00  0.00    +0.000 N 
ATOM     10  C   UNL     1      47.577   3.415  17.792  0.00  0.00    +0.000 C 
ATOM     11  O   UNL     1      46.567   2.801  17.479  0.00  0.00    +0.000 OA
ATOM     12  H   UNL     1      47.844   2.388  19.517  0.00  0.00    +0.000 HD
ATOM     13  H   UNL     1      48.933   3.720  19.356  0.00  0.00    +0.000 HD
ENDBRANCH   3  10
ENDBRANCH   2   6
ENDBRANCH   1   2
BRANCH   1  14
ATOM     14  C   UNL     1      49.097   8.206  12.153  0.00  0.00    +0.000 C 
BRANCH  14  15
ATOM     15  C   UNL     1      47.595   8.139  11.982  0.00  0.00    +0.000 A 
ATOM     16  C   UNL     1      46.820   9.268  12.281  0.00  0.00    +0.000 A 
ATOM     17  C   UNL     1      45.429   9.193  12.265  0.00  0.00    +0.000 A 
ATOM     18  C   UNL     1      44.796   7.999  11.924  0.00  0.00    +0.000 A 
ATOM     19  C   UNL     1      45.549   6.880  11.559  0.00  0.00    +0.000 A 
ATOM     20  C   UNL     1      46.946   6.944  11.619  0.00  0.00    +0.000 A 
BRANCH  19  21
ATOM     21  O   UNL     1      44.993   5.682  11.171  0.00  0.00    +0.000 OA
BRANCH  21  22
ATOM     22  C   UNL     1      45.385   4.552  11.971  0.00  0.00    +0.000 C 
ATOM     23  C   UNL     1      44.895   3.253  11.366  0.00  0.00    +0.000 C 
ATOM     24  C   UNL     1      43.555   3.015  12.026  0.00  0.00    +0.000 C 
ATOM     25  O   UNL     1      43.558   3.693  13.282  0.00  0.00    +0.000 OA
ATOM     26  C   UNL     1      44.679   4.588  13.322  0.00  0.00    +0.000 C 
ENDBRANCH  21  22
ENDBRANCH  19  21
ENDBRANCH  14  15
ENDBRANCH   1  14
TORSDOF 7
ENDMDL
MODEL 8
REMARK VINA RESULT:    -6.150      3.148      4.846
REMARK INTER + INTRA:          -9.545
REMARK INTER:                  -8.384
REMARK INTRA:                  -1.161
REMARK UNBOUND:                -0.877
REMARK  Name = 
REMARK  7 active torsions:
REMARK  status: ('A' for Active; 'I' for Inactive)
REMARK    1  A    between atoms: C_2  and  C_4
REMARK    2  A    between atoms: C_7  and  O_8
REMARK    3  A    between atoms: O_8  and  C_9
REMARK    4  A    between atoms: C_9  and  C_10
REMARK    5  A    between atoms: C_10  and  C_11
REMARK    6  A    between atoms: C_15  and  O_16
REMARK    7  A    between atoms: O_16  and  C_17
REMARK                            x       y       z     vdW  Elec       q    Type
REMARK                         _______ _______ _______ _____ _____    ______ ____
ROOT
ATOM      1  C   UNL     1      47.720   8.260  12.833  0.00  0.00    +0.000 C 
ENDROOT
BRANCH   1   2
ATOM      2  O   UNL     1      46.291   8.296  12.973  0.00  0.00    +0.000 OA
BRANCH   2   6
ATOM      3  C   UNL     1      44.623   4.649  11.983  0.00  0.00    +0.000 A 
ATOM      4  C   UNL     1      45.703   4.697  12.868  0.00  0.00    +0.000 A 
ATOM      5  C   UNL     1      46.263   5.935  13.197  0.00  0.00    +0.000 A 
ATOM      6  C   UNL     1      45.718   7.081  12.634  0.00  0.00    +0.000 A 
ATOM      7  N   UNL     1      44.679   7.057  11.774  0.00  0.00    +0.000 NA
ATOM      8  C   UNL     1      44.163   5.846  11.456  0.00  0.00    +0.000 A 
BRANCH   3  10
ATOM      9  N   UNL     1      43.764   2.433  12.500  0.00  0.00    +0.000 N 
ATOM     10  C   UNL     1      43.957   3.401  11.556  0.00  0.00    +0.000 C 
ATOM     11  O   UNL     1      43.548   3.253  10.413  0.00  0.00    +0.000 OA
ATOM     12  H   UNL     1      43.197   1.643  12.213  0.00  0.00    +0.000 HD
ATOM     13  H   UNL     1      43.843   2.612  13.490  0.00  0.00    +0.000 HD
ENDBRANCH   3  10
ENDBRANCH   2   6
ENDBRANCH   1   2
BRANCH   1  14
ATOM     14  C   UNL     1      48.389   9.171  13.865  0.00  0.00    +0.000 C 
BRANCH  14  15
ATOM     15  C   UNL     1      48.477   8.469  15.203  0.00  0.00    +0.000 A 
ATOM     16  C   UNL     1      48.143   9.172  16.369  0.00  0.00    +0.000 A 
ATOM     17  C   UNL     1      48.346   8.596  17.621  0.00  0.00    +0.000 A 
ATOM     18  C   UNL     1      48.857   7.303  17.723  0.00  0.00    +0.000 A 
ATOM     19  C   UNL     1      49.135   6.561  16.573  0.00  0.00    +0.000 A 
ATOM     20  C   UNL     1      48.974   7.157  15.317  0.00  0.00    +0.000 A 
BRANCH  19  21
ATOM     21  O   UNL     1      49.602   5.267  16.597  0.00  0.00    +0.000 OA
BRANCH  21  22
ATOM     22  C   UNL     1      48.696   4.313  17.179  0.00  0.00    +0.000 C 
ATOM     23  C   UNL     1      49.441   3.121  17.745  0.00  0.00    +0.000 C 
ATOM     24  C   UNL     1      49.465   2.122  16.610  0.00  0.00    +0.000 C 
ATOM     25  O   UNL     1      48.358   2.401  15.755  0.00  0.00    +0.000 OA
ATOM     26  C   UNL     1      47.820   3.686  16.100  0.00  0.00    +0.000 C 
ENDBRANCH  21  22
ENDBRANCH  19  21
ENDBRANCH  14  15
ENDBRANCH   1  14
TORSDOF 7
ENDMDL
MODEL 9
REMARK VINA RESULT:    -6.107      3.279      6.160
REMARK INTER + INTRA:          -9.483
REMARK INTER:                  -8.792
REMARK INTRA:                  -0.691
REMARK UNBOUND:                -0.877
REMARK  Name = 
REMARK  7 active torsions:
REMARK  status: ('A' for Active; 'I' for Inactive)
REMARK    1  A    between atoms: C_2  and  C_4
REMARK    2  A    between atoms: C_7  and  O_8
REMARK    3  A    between atoms: O_8  and  C_9
REMARK    4  A    between atoms: C_9  and  C_10
REMARK    5  A    between atoms: C_10  and  C_11
REMARK    6  A    between atoms: C_15  and  O_16
REMARK    7  A    between atoms: O_16  and  C_17
REMARK                            x       y       z     vdW  Elec       q    Type
REMARK                         _______ _______ _______ _____ _____    ______ ____
ROOT
ATOM      1  C   UNL     1      47.485   3.664  15.803  0.00  0.00    +0.000 C 
ENDROOT
BRANCH   1   2
ATOM      2  O   UNL     1      47.525   3.152  14.462  0.00  0.00    +0.000 OA
BRANCH   2   6
ATOM      3  C   UNL     1      44.749   5.061  12.074  0.00  0.00    +0.000 A 
ATOM      4  C   UNL     1      45.604   5.817  12.879  0.00  0.00    +0.000 A 
ATOM      5  C   UNL     1      46.540   5.164  13.685  0.00  0.00    +0.000 A 
ATOM      6  C   UNL     1      46.591   3.777  13.652  0.00  0.00    +0.000 A 
ATOM      7  N   UNL     1      45.772   3.027  12.887  0.00  0.00    +0.000 NA
ATOM      8  C   UNL     1      44.862   3.679  12.127  0.00  0.00    +0.000 A 
BRANCH   3  10
ATOM      9  N   UNL     1      43.392   6.954  11.371  0.00  0.00    +0.000 N 
ATOM     10  C   UNL     1      43.715   5.639  11.189  0.00  0.00    +0.000 C 
ATOM     11  O   UNL     1      43.200   4.984  10.294  0.00  0.00    +0.000 OA
ATOM     12  H   UNL     1      42.776   7.357  10.676  0.00  0.00    +0.000 HD
ATOM     13  H   UNL     1      43.965   7.588  11.908  0.00  0.00    +0.000 HD
ENDBRANCH   3  10
ENDBRANCH   2   6
ENDBRANCH   1   2
BRANCH   1  14
ATOM     14  C   UNL     1      48.338   2.802  16.739  0.00  0.00    +0.000 C 
BRANCH  14  15
ATOM     15  C   UNL     1      49.319   3.669  17.498  0.00  0.00    +0.000 A 
ATOM     16  C   UNL     1      50.651   3.250  17.621  0.00  0.00    +0.000 A 
ATOM     17  C   UNL     1      51.540   3.956  18.429  0.00  0.00    +0.000 A 
ATOM     18  C   UNL     1      51.118   5.103  19.099  0.00  0.00    +0.000 A 
ATOM     19  C   UNL     1      49.813   5.575  18.938  0.00  0.00    +0.000 A 
ATOM     20  C   UNL     1      48.909   4.839  18.164  0.00  0.00    +0.000 A 
BRANCH  19  21
ATOM     21  O   UNL     1      49.340   6.720  19.536  0.00  0.00    +0.000 OA
BRANCH  21  22
ATOM     22  C   UNL     1      47.908   6.781  19.666  0.00  0.00    +0.000 C 
ATOM     23  C   UNL     1      47.375   8.137  19.253  0.00  0.00    +0.000 C 
ATOM     24  C   UNL     1      47.336   8.931  20.539  0.00  0.00    +0.000 C 
ATOM     25  O   UNL     1      47.228   8.008  21.622  0.00  0.00    +0.000 OA
ATOM     26  C   UNL     1      47.504   6.688  21.133  0.00  0.00    +0.000 C 
ENDBRANCH  21  22
ENDBRANCH  19  21
ENDBRANCH  14  15
ENDBRANCH   1  14
TORSDOF 7
ENDMDL
