MODEL 1
REMARK VINA RESULT:    -8.346      0.000      0.000
REMARK INTER + INTRA:         -12.738
REMARK INTER:                 -11.761
REMARK INTRA:                  -0.977
REMARK UNBOUND:                -0.977
REMARK  Name = 
REMARK  7 active torsions:
REMARK  status: ('A' for Active; 'I' for Inactive)
REMARK    1  A    between atoms: C_2  and  C_4
REMARK    2  A    between atoms: C_7  and  O_8
REMARK    3  A    between atoms: O_8  and  C_9
REMARK    4  A    between atoms: C_9  and  C_10
REMARK    5  A    between atoms: C_10  and  C_11
REMARK    6  A    between atoms: C_15  and  O_16
REMARK    7  A    between atoms: O_16  and  C_17
REMARK                            x       y       z     vdW  Elec       q    Type
REMARK                         _______ _______ _______ _____ _____    ______ ____
ROOT
ATOM      1  C   UNL     1      43.855   3.112  11.778  0.00  0.00    +0.000 C 
ENDROOT
BRANCH   1   2
ATOM      2  O   UNL     1      43.488   3.496  10.449  0.00  0.00    +0.000 OA
BRANCH   2   6
ATOM      3  C   UNL     1      46.417   2.651   7.595  0.00  0.00    +0.000 A 
ATOM      4  C   UNL     1      45.962   3.969   7.714  0.00  0.00    +0.000 A 
ATOM      5  C   UNL     1      44.977   4.286   8.655  0.00  0.00    +0.000 A 
ATOM      6  C   UNL     1      44.440   3.297   9.482  0.00  0.00    +0.000 A 
ATOM      7  C   UNL     1      44.879   1.977   9.340  0.00  0.00    +0.000 A 
ATOM      8  C   UNL     1      45.859   1.652   8.396  0.00  0.00    +0.000 A 
BRANCH   3  10
ATOM      9  N   UNL     1      47.547   3.034   5.476  0.00  0.00    +0.000 N 
ATOM     10  C   UNL     1      47.476   2.285   6.621  0.00  0.00    +0.000 C 
ATOM     11  O   UNL     1      48.278   1.389   6.840  0.00  0.00    +0.000 OA
ATOM     12  H   UNL     1      48.339   2.854   4.876  0.00  0.00    +0.000 HD
ATOM     13  H   UNL     1      47.083   3.928   5.386  0.00  0.00    +0.000 HD
ENDBRANCH   3  10
ENDBRANCH   2   6
ENDBRANCH   1   2
BRANCH   1  14
ATOM     14  C   UNL     1      43.839   4.340  12.687  0.00  0.00    +0.000 C 
BRANCH  14  15
ATOM     15  C   UNL     1      45.223   4.926  12.827  0.00  0.00    +0.000 A 
ATOM     16  C   UNL     1      45.694   5.876  11.914  0.00  0.00    +0.000 A 
ATOM     17  C   UNL     1      46.951   6.460  12.091  0.00  0.00    +0.000 A 
ATOM     18  C   UNL     1      47.750   6.104  13.180  0.00  0.00    +0.000 A 
ATOM     19  C   UNL     1      47.293   5.153  14.090  0.00  0.00    +0.000 A 
ATOM     20  C   UNL     1      46.032   4.576  13.916  0.00  0.00    +0.000 A 
BRANCH  19  21
ATOM     21  O   UNL     1      47.972   4.748  15.212  0.00  0.00    +0.000 OA
BRANCH  21  22
ATOM     22  C   UNL     1      47.253   4.057  16.259  0.00  0.00    +0.000 C 
ATOM     23  C   UNL     1      47.253   4.680  17.669  0.00  0.00    +0.000 C 
ATOM     24  N   UNL     1      47.771   3.431  18.244  0.00  0.00    +0.000 NA
ATOM     25  C   UNL     1      48.020   2.884  16.905  0.00  0.00    +0.000 C 
ATOM     26  H   UNL     1      47.089   2.905  18.790  0.00  0.00    +0.000 HD
ENDBRANCH  21  22
ENDBRANCH  19  21
ENDBRANCH  14  15
ENDBRANCH   1  14
TORSDOF 7
ENDMDL
MODEL 2
REMARK VINA RESULT:    -7.429      2.787      4.045
REMARK INTER + INTRA:         -11.446
REMARK INTER:                 -10.474
REMARK INTRA:                  -0.972
REMARK UNBOUND:                -0.977
REMARK  Name = 
REMARK  7 active torsions:
REMARK  status: ('A' for Active; 'I' for Inactive)
REMARK    1  A    between atoms: C_2  and  C_4
REMARK    2  A    between atoms: C_7  and  O_8
REMARK    3  A    between atoms: O_8  and  C_9
REMARK    4  A    between atoms: C_9  and  C_10
REMARK    5  A    between atoms: C_10  and  C_11
REMARK    6  A    between atoms: C_15  and  O_16
REMARK    7  A    between atoms: O_16  and  C_17
REMARK                            x       y       z     vdW  Elec       q    Type
REMARK                         _______ _______ _______ _____ _____    ______ ____
ROOT
ATOM      1  C   UNL     1      43.704   4.234  11.446  0.00  0.00    +0.000 C 
ENDROOT
BRANCH   1   2
ATOM      2  O   UNL     1      43.460   3.263  10.423  0.00  0.00    +0.000 OA
BRANCH   2   6
ATOM      3  C   UNL     1      46.441   2.667   7.560  0.00  0.00    +0.000 A 
ATOM      4  C   UNL     1      45.989   3.972   7.792  0.00  0.00    +0.000 A 
ATOM      5  C   UNL     1      44.988   4.206   8.739  0.00  0.00    +0.000 A 
ATOM      6  C   UNL     1      44.430   3.148   9.461  0.00  0.00    +0.000 A 
ATOM      7  C   UNL     1      44.865   1.844   9.205  0.00  0.00    +0.000 A 
ATOM      8  C   UNL     1      45.862   1.601   8.255  0.00  0.00    +0.000 A 
BRANCH   3  10
ATOM      9  N   UNL     1      47.474   3.084   5.399  0.00  0.00    +0.000 N 
ATOM     10  C   UNL     1      47.517   2.386   6.576  0.00  0.00    +0.000 C 
ATOM     11  O   UNL     1      48.425   1.604   6.815  0.00  0.00    +0.000 OA
ATOM     12  H   UNL     1      48.270   2.972   4.787  0.00  0.00    +0.000 HD
ATOM     13  H   UNL     1      46.903   3.910   5.281  0.00  0.00    +0.000 HD
ENDBRANCH   3  10
ENDBRANCH   2   6
ENDBRANCH   1   2
BRANCH   1  14
ATOM     14  C   UNL     1      44.749   3.696  12.422  0.00  0.00    +0.000 C 
BRANCH  14  15
ATOM     15  C   UNL     1      45.690   4.792  12.862  0.00  0.00    +0.000 A 
ATOM     16  C   UNL     1      46.614   4.571  13.889  0.00  0.00    +0.000 A 
ATOM     17  C   UNL     1      47.525   5.571  14.244  0.00  0.00    +0.000 A 
ATOM     18  C   UNL     1      47.522   6.800  13.578  0.00  0.00    +0.000 A 
ATOM     19  C   UNL     1      46.600   7.032  12.560  0.00  0.00    +0.000 A 
ATOM     20  C   UNL     1      45.696   6.027  12.201  0.00  0.00    +0.000 A 
BRANCH  19  21
ATOM     21  O   UNL     1      46.523   8.181  11.815  0.00  0.00    +0.000 OA
BRANCH  21  22
ATOM     22  C   UNL     1      45.560   9.196  12.183  0.00  0.00    +0.000 C 
ATOM     23  C   UNL     1      44.357   9.424  11.246  0.00  0.00    +0.000 C 
ATOM     24  N   UNL     1      44.686  10.853  11.138  0.00  0.00    +0.000 NA
ATOM     25  C   UNL     1      45.970  10.638  11.817  0.00  0.00    +0.000 C 
ATOM     26  H   UNL     1      44.047  11.470  11.638  0.00  0.00    +0.000 HD
ENDBRANCH  21  22
ENDBRANCH  19  21
ENDBRANCH  14  15
ENDBRANCH   1  14
TORSDOF 7
ENDMDL
MODEL 3
REMARK VINA RESULT:    -7.056      3.716      5.348
REMARK INTER + INTRA:         -10.920
REMARK INTER:                 -10.144
REMARK INTRA:                  -0.777
REMARK UNBOUND:                -0.977
REMARK  Name = 
REMARK  7 active torsions:
REMARK  status: ('A' for Active; 'I' for Inactive)
REMARK    1  A    between atoms: C_2  and  C_4
REMARK    2  A    between atoms: C_7  and  O_8
REMARK    3  A    between atoms: O_8  and  C_9
REMARK    4  A    between atoms: C_9  and  C_10
REMARK    5  A    between atoms: C_10  and  C_11
REMARK    6  A    between atoms: C_15  and  O_16
REMARK    7  A    between atoms: O_16  and  C_17
REMARK                            x       y       z     vdW  Elec       q    Type
REMARK                         _______ _______ _______ _____ _____    ______ ____
ROOT
ATOM      1  C   UNL     1      43.297   4.775  11.006  0.00  0.00    +0.000 C 
ENDROOT
BRANCH   1   2
ATOM      2  O   UNL     1      43.457   3.439  10.522  0.00  0.00    +0.000 OA
BRANCH   2   6
ATOM      3  C   UNL     1      46.358   2.666   7.619  0.00  0.00    +0.000 A 
ATOM      4  C   UNL     1      45.889   3.977   7.762  0.00  0.00    +0.000 A 
ATOM      5  C   UNL     1      44.914   4.270   8.720  0.00  0.00    +0.000 A 
ATOM      6  C   UNL     1      44.398   3.264   9.540  0.00  0.00    +0.000 A 
ATOM      7  C   UNL     1      44.850   1.951   9.374  0.00  0.00    +0.000 A 
ATOM      8  C   UNL     1      45.822   1.649   8.414  0.00  0.00    +0.000 A 
BRANCH   3  10
ATOM      9  N   UNL     1      47.489   3.123   5.516  0.00  0.00    +0.000 N 
ATOM     10  C   UNL     1      47.408   2.325   6.626  0.00  0.00    +0.000 C 
ATOM     11  O   UNL     1      48.194   1.406   6.803  0.00  0.00    +0.000 OA
ATOM     12  H   UNL     1      48.277   2.956   4.906  0.00  0.00    +0.000 HD
ATOM     13  H   UNL     1      47.041   4.028   5.467  0.00  0.00    +0.000 HD
ENDBRANCH   3  10
ENDBRANCH   2   6
ENDBRANCH   1   2
BRANCH   1  14
ATOM     14  C   UNL     1      44.230   5.004  12.194  0.00  0.00    +0.000 C 
BRANCH  14  15
ATOM     15  C   UNL     1      44.717   6.432  12.231  0.00  0.00    +0.000 A 
ATOM     16  C   UNL     1      45.799   6.798  13.040  0.00  0.00    +0.000 A 
ATOM     17  C   UNL     1      46.284   8.109  13.015  0.00  0.00    +0.000 A 
ATOM     18  C   UNL     1      45.695   9.067  12.185  0.00  0.00    +0.000 A 
ATOM     19  C   UNL     1      44.613   8.713  11.382  0.00  0.00    +0.000 A 
ATOM     20  C   UNL     1      44.135   7.400  11.401  0.00  0.00    +0.000 A 
BRANCH  19  21
ATOM     21  O   UNL     1      43.977   9.554  10.505  0.00  0.00    +0.000 OA
BRANCH  21  22
ATOM     22  C   UNL     1      43.011  10.504  11.013  0.00  0.00    +0.000 C 
ATOM     23  C   UNL     1      41.520  10.247  10.719  0.00  0.00    +0.000 C 
ATOM     24  N   UNL     1      41.386  11.582  10.121  0.00  0.00    +0.000 NA
ATOM     25  C   UNL     1      42.841  11.775  10.154  0.00  0.00    +0.000 C 
ATOM     26  H   UNL     1      40.864  12.247  10.689  0.00  0.00    +0.000 HD
ENDBRANCH  21  22
ENDBRANCH  19  21
ENDBRANCH  14  15
ENDBRANCH   1  14
TORSDOF 7
ENDMDL
MODEL 4
REMARK VINA RESULT:    -6.995      1.947      2.191
REMARK INTER + INTRA:         -10.835
REMARK INTER:                  -9.906
REMARK INTRA:                  -0.929
REMARK UNBOUND:                -0.977
REMARK  Name = 
REMARK  7 active torsions:
REMARK  status: ('A' for Active; 'I' for Inactive)
REMARK    1  A    between atoms: C_2  and  C_4
REMARK    2  A    between atoms: C_7  and  O_8
REMARK    3  A    between atoms: O_8  and  C_9
REMARK    4  A    between atoms: C_9  and  C_10
REMARK    5  A    between atoms: C_10  and  C_11
REMARK    6  A    between atoms: C_15  and  O_16
REMARK    7  A    between atoms: O_16  and  C_17
REMARK                            x       y       z     vdW  Elec       q    Type
REMARK                         _______ _______ _______ _____ _____    ______ ____
ROOT
ATOM      1  C   UNL     1      43.374   4.387  11.613  0.00  0.00    +0.000 C 
ENDROOT
BRANCH   1   2
ATOM      2  O   UNL     1      43.332   3.203  10.811  0.00  0.00    +0.000 OA
BRANCH   2   6
ATOM      3  C   UNL     1      46.099   2.784   7.712  0.00  0.00    +0.000 A 
ATOM      4  C   UNL     1      45.635   4.067   8.024  0.00  0.00    +0.000 A 
ATOM      5  C   UNL     1      44.704   4.243   9.052  0.00  0.00    +0.000 A 
ATOM      6  C   UNL     1      44.227   3.147   9.775  0.00  0.00    +0.000 A 
ATOM      7  C   UNL     1      44.674   1.864   9.441  0.00  0.00    +0.000 A 
ATOM      8  C   UNL     1      45.601   1.680   8.410  0.00  0.00    +0.000 A 
BRANCH   3  10
ATOM      9  N   UNL     1      48.106   1.670   6.910  0.00  0.00    +0.000 N 
ATOM     10  C   UNL     1      47.104   2.565   6.641  0.00  0.00    +0.000 C 
ATOM     11  O   UNL     1      47.025   3.118   5.554  0.00  0.00    +0.000 OA
ATOM     12  H   UNL     1      48.715   1.441   6.137  0.00  0.00    +0.000 HD
ATOM     13  H   UNL     1      48.052   1.014   7.676  0.00  0.00    +0.000 HD
ENDBRANCH   3  10
ENDBRANCH   2   6
ENDBRANCH   1   2
BRANCH   1  14
ATOM     14  C   UNL     1      44.378   4.198  12.749  0.00  0.00    +0.000 C 
BRANCH  14  15
ATOM     15  C   UNL     1      45.383   5.324  12.773  0.00  0.00    +0.000 A 
ATOM     16  C   UNL     1      45.167   6.493  12.036  0.00  0.00    +0.000 A 
ATOM     17  C   UNL     1      46.071   7.555  12.118  0.00  0.00    +0.000 A 
ATOM     18  C   UNL     1      47.201   7.462  12.936  0.00  0.00    +0.000 A 
ATOM     19  C   UNL     1      47.429   6.299  13.667  0.00  0.00    +0.000 A 
ATOM     20  C   UNL     1      46.519   5.241  13.591  0.00  0.00    +0.000 A 
BRANCH  19  21
ATOM     21  O   UNL     1      48.481   6.103  14.526  0.00  0.00    +0.000 OA
BRANCH  21  22
ATOM     22  C   UNL     1      49.115   7.251  15.137  0.00  0.00    +0.000 C 
ATOM     23  C   UNL     1      50.655   7.280  15.197  0.00  0.00    +0.000 C 
ATOM     24  N   UNL     1      50.615   7.480  16.653  0.00  0.00    +0.000 NA
ATOM     25  C   UNL     1      49.172   7.214  16.678  0.00  0.00    +0.000 C 
ATOM     26  H   UNL     1      50.872   8.419  16.955  0.00  0.00    +0.000 HD
ENDBRANCH  21  22
ENDBRANCH  19  21
ENDBRANCH  14  15
ENDBRANCH   1  14
TORSDOF 7
ENDMDL
MODEL 5
REMARK VINA RESULT:    -6.954      1.652      8.001
REMARK INTER + INTRA:         -10.777
REMARK INTER:                  -9.954
REMARK INTRA:                  -0.824
REMARK UNBOUND:                -0.977
REMARK  Name = 
REMARK  7 active torsions:
REMARK  status: ('A' for Active; 'I' for Inactive)
REMARK    1  A    between atoms: C_2  and  C_4
REMARK    2  A    between atoms: C_7  and  O_8
REMARK    3  A    between atoms: O_8  and  C_9
REMARK    4  A    between atoms: C_9  and  C_10
REMARK    5  A    between atoms: C_10  and  C_11
REMARK    6  A    between atoms: C_15  and  O_16
REMARK    7  A    between atoms: O_16  and  C_17
REMARK                            x       y       z     vdW  Elec       q    Type
REMARK                         _______ _______ _______ _____ _____    ______ ____
ROOT
ATOM      1  C   UNL     1      45.463   6.410  12.326  0.00  0.00    +0.000 C 
ENDROOT
BRANCH   1   2
ATOM      2  O   UNL     1      46.794   6.642  12.795  0.00  0.00    +0.000 OA
BRANCH   2   6
ATOM      3  C   UNL     1      47.785   4.256  16.076  0.00  0.00    +0.000 A 
ATOM      4  C   UNL     1      48.382   5.517  15.963  0.00  0.00    +0.000 A 
ATOM      5  C   UNL     1      48.078   6.339  14.874  0.00  0.00    +0.000 A 
ATOM      6  C   UNL     1      47.180   5.915  13.892  0.00  0.00    +0.000 A 
ATOM      7  C   UNL     1      46.607   4.643  13.995  0.00  0.00    +0.000 A 
ATOM      8  C   UNL     1      46.912   3.813  15.079  0.00  0.00    +0.000 A 
BRANCH   3  10
ATOM      9  N   UNL     1      47.001   2.716  17.786  0.00  0.00    +0.000 N 
ATOM     10  C   UNL     1      48.071   3.367  17.230  0.00  0.00    +0.000 C 
ATOM     11  O   UNL     1      49.206   3.184  17.643  0.00  0.00    +0.000 OA
ATOM     12  H   UNL     1      47.219   2.027  18.492  0.00  0.00    +0.000 HD
ATOM     13  H   UNL     1      46.111   2.639  17.314  0.00  0.00    +0.000 HD
ENDBRANCH   3  10
ENDBRANCH   2   6
ENDBRANCH   1   2
BRANCH   1  14
ATOM     14  C   UNL     1      45.454   6.399  10.798  0.00  0.00    +0.000 C 
BRANCH  14  15
ATOM     15  C   UNL     1      45.164   5.014  10.271  0.00  0.00    +0.000 A 
ATOM     16  C   UNL     1      44.471   4.082  11.051  0.00  0.00    +0.000 A 
ATOM     17  C   UNL     1      44.150   2.826  10.527  0.00  0.00    +0.000 A 
ATOM     18  C   UNL     1      44.515   2.489   9.222  0.00  0.00    +0.000 A 
ATOM     19  C   UNL     1      45.212   3.407   8.440  0.00  0.00    +0.000 A 
ATOM     20  C   UNL     1      45.525   4.666   8.962  0.00  0.00    +0.000 A 
BRANCH  19  21
ATOM     21  O   UNL     1      45.594   3.203   7.138  0.00  0.00    +0.000 OA
BRANCH  21  22
ATOM     22  C   UNL     1      47.003   3.129   6.820  0.00  0.00    +0.000 C 
ATOM     23  C   UNL     1      47.401   2.883   5.351  0.00  0.00    +0.000 C 
ATOM     24  N   UNL     1      48.204   1.716   5.743  0.00  0.00    +0.000 NA
ATOM     25  C   UNL     1      47.659   1.762   7.105  0.00  0.00    +0.000 C 
ATOM     26  H   UNL     1      49.211   1.862   5.691  0.00  0.00    +0.000 HD
ENDBRANCH  21  22
ENDBRANCH  19  21
ENDBRANCH  14  15
ENDBRANCH   1  14
TORSDOF 7
ENDMDL
MODEL 6
REMARK VINA RESULT:    -6.505      3.169      7.531
REMARK INTER + INTRA:         -10.145
REMARK INTER:                  -9.384
REMARK INTRA:                  -0.760
REMARK UNBOUND:                -0.977
REMARK  Name = 
REMARK  7 active torsions:
REMARK  status: ('A' for Active; 'I' for Inactive)
REMARK    1  A    between atoms: C_2  and  C_4
REMARK    2  A    between atoms: C_7  and  O_8
REMARK    3  A    between atoms: O_8  and  C_9
REMARK    4  A    between atoms: C_9  and  C_10
REMARK    5  A    between atoms: C_10  and  C_11
REMARK    6  A    between atoms: C_15  and  O_16
REMARK    7  A    between atoms: O_16  and  C_17
REMARK                            x       y       z     vdW  Elec       q    Type
REMARK                         _______ _______ _______ _____ _____    ______ ____
ROOT
ATOM      1  C   UNL     1      45.225   6.321  12.582  0.00  0.00    +0.000 C 
ENDROOT
BRANCH   1   2
ATOM      2  O   UNL     1      45.709   7.628  12.906  0.00  0.00    +0.000 OA
BRANCH   2   6
ATOM      3  C   UNL     1      49.739   8.179  11.962  0.00  0.00    +0.000 A 
ATOM      4  C   UNL     1      48.880   9.281  11.889  0.00  0.00    +0.000 A 
ATOM      5  C   UNL     1      47.523   9.131  12.193  0.00  0.00    +0.000 A 
ATOM      6  C   UNL     1      47.012   7.886  12.569  0.00  0.00    +0.000 A 
ATOM      7  C   UNL     1      47.870   6.783  12.614  0.00  0.00    +0.000 A 
ATOM      8  C   UNL     1      49.227   6.925  12.306  0.00  0.00    +0.000 A 
BRANCH   3  10
ATOM      9  N   UNL     1      52.050   8.116  12.715  0.00  0.00    +0.000 N 
ATOM     10  C   UNL     1      51.189   8.308  11.667  0.00  0.00    +0.000 C 
ATOM     11  O   UNL     1      51.604   8.531  10.540  0.00  0.00    +0.000 OA
ATOM     12  H   UNL     1      53.033   8.091  12.482  0.00  0.00    +0.000 HD
ATOM     13  H   UNL     1      51.761   7.679  13.579  0.00  0.00    +0.000 HD
ENDBRANCH   3  10
ENDBRANCH   2   6
ENDBRANCH   1   2
BRANCH   1  14
ATOM     14  C   UNL     1      44.510   6.362  11.232  0.00  0.00    +0.000 C 
BRANCH  14  15
ATOM     15  C   UNL     1      44.694   5.063  10.485  0.00  0.00    +0.000 A 
ATOM     16  C   UNL     1      44.043   3.898  10.905  0.00  0.00    +0.000 A 
ATOM     17  C   UNL     1      44.168   2.717  10.167  0.00  0.00    +0.000 A 
ATOM     18  C   UNL     1      44.943   2.686   9.005  0.00  0.00    +0.000 A 
ATOM     19  C   UNL     1      45.602   3.839   8.584  0.00  0.00    +0.000 A 
ATOM     20  C   UNL     1      45.468   5.022   9.318  0.00  0.00    +0.000 A 
BRANCH  19  21
ATOM     21  O   UNL     1      46.361   3.940   7.446  0.00  0.00    +0.000 OA
BRANCH  21  22
ATOM     22  C   UNL     1      46.690   2.740   6.709  0.00  0.00    +0.000 C 
ATOM     23  C   UNL     1      48.099   2.143   6.890  0.00  0.00    +0.000 C 
ATOM     24  N   UNL     1      48.327   2.185   5.439  0.00  0.00    +0.000 NA
ATOM     25  C   UNL     1      47.106   2.976   5.242  0.00  0.00    +0.000 C 
ATOM     26  H   UNL     1      48.312   1.273   4.984  0.00  0.00    +0.000 HD
ENDBRANCH  21  22
ENDBRANCH  19  21
ENDBRANCH  14  15
ENDBRANCH   1  14
TORSDOF 7
ENDMDL
MODEL 7
REMARK VINA RESULT:    -6.401      2.283      3.557
REMARK INTER + INTRA:          -9.997
REMARK INTER:                  -9.918
REMARK INTRA:                  -0.078
REMARK UNBOUND:                -0.977
REMARK  Name = 
REMARK  7 active torsions:
REMARK  status: ('A' for Active; 'I' for Inactive)
REMARK    1  A    between atoms: C_2  and  C_4
REMARK    2  A    between atoms: C_7  and  O_8
REMARK    3  A    between atoms: O_8  and  C_9
REMARK    4  A    between atoms: C_9  and  C_10
REMARK    5  A    between atoms: C_10  and  C_11
REMARK    6  A    between atoms: C_15  and  O_16
REMARK    7  A    between atoms: O_16  and  C_17
REMARK                            x       y       z     vdW  Elec       q    Type
REMARK                         _______ _______ _______ _____ _____    ______ ____
ROOT
ATOM      1  C   UNL     1      43.777   3.959  11.736  0.00  0.00    +0.000 C 
ENDROOT
BRANCH   1   2
ATOM      2  O   UNL     1      43.648   4.297  10.352  0.00  0.00    +0.000 OA
BRANCH   2   6
ATOM      3  C   UNL     1      46.389   2.672   7.653  0.00  0.00    +0.000 A 
ATOM      4  C   UNL     1      45.616   1.799   8.426  0.00  0.00    +0.000 A 
ATOM      5  C   UNL     1      44.692   2.309   9.344  0.00  0.00    +0.000 A 
ATOM      6  C   UNL     1      44.533   3.688   9.500  0.00  0.00    +0.000 A 
ATOM      7  C   UNL     1      45.328   4.556   8.744  0.00  0.00    +0.000 A 
ATOM      8  C   UNL     1      46.257   4.052   7.829  0.00  0.00    +0.000 A 
BRANCH   3  10
ATOM      9  N   UNL     1      47.457   2.856   5.477  0.00  0.00    +0.000 N 
ATOM     10  C   UNL     1      47.363   2.163   6.655  0.00  0.00    +0.000 C 
ATOM     11  O   UNL     1      48.082   1.202   6.881  0.00  0.00    +0.000 OA
ATOM     12  H   UNL     1      48.201   2.575   4.854  0.00  0.00    +0.000 HD
ATOM     13  H   UNL     1      47.079   3.788   5.366  0.00  0.00    +0.000 HD
ENDBRANCH   3  10
ENDBRANCH   2   6
ENDBRANCH   1   2
BRANCH   1  14
ATOM     14  C   UNL     1      45.190   3.445  12.007  0.00  0.00    +0.000 C 
BRANCH  14  15
ATOM     15  C   UNL     1      45.997   4.462  12.776  0.00  0.00    +0.000 A 
ATOM     16  C   UNL     1      46.610   4.123  13.987  0.00  0.00    +0.000 A 
ATOM     17  C   UNL     1      47.410   5.053  14.657  0.00  0.00    +0.000 A 
ATOM     18  C   UNL     1      47.605   6.331  14.126  0.00  0.00    +0.000 A 
ATOM     19  C   UNL     1      46.992   6.681  12.925  0.00  0.00    +0.000 A 
ATOM     20  C   UNL     1      46.200   5.746  12.252  0.00  0.00    +0.000 A 
BRANCH  19  21
ATOM     21  O   UNL     1      47.136   7.890  12.291  0.00  0.00    +0.000 OA
BRANCH  21  22
ATOM     22  C   UNL     1      48.390   8.199  11.640  0.00  0.00    +0.000 C 
ATOM     23  C   UNL     1      49.619   7.337  11.991  0.00  0.00    +0.000 C 
ATOM     24  N   UNL     1      50.384   8.538  12.354  0.00  0.00    +0.000 NA
ATOM     25  C   UNL     1      49.175   9.367  12.272  0.00  0.00    +0.000 C 
ATOM     26  H   UNL     1      51.111   8.792  11.687  0.00  0.00    +0.000 HD
ENDBRANCH  21  22
ENDBRANCH  19  21
ENDBRANCH  14  15
ENDBRANCH   1  14
TORSDOF 7
ENDMDL
MODEL 8
REMARK VINA RESULT:    -6.226      2.322      8.367
REMARK INTER + INTRA:          -9.751
REMARK INTER:                  -9.294
REMARK INTRA:                  -0.457
REMARK UNBOUND:                -0.977
REMARK  Name = 
REMARK  7 active torsions:
REMARK  status: ('A' for Active; 'I' for Inactive)
REMARK    1  A    between atoms: C_2  and  C_4
REMARK    2  A    between atoms: C_7  and  O_8
REMARK    3  A    between atoms: O_8  and  C_9
REMARK    4  A    between atoms: C_9  and  C_10
REMARK    5  A    between atoms: C_10  and  C_11
REMARK    6  A    between atoms: C_15  and  O_16
REMARK    7  A    between atoms: O_16  and  C_17
REMARK                            x       y       z     vdW  Elec       q    Type
REMARK                         _______ _______ _______ _____ _____    ______ ____
ROOT
ATOM      1  C   UNL     1      46.858   3.996  14.157  0.00  0.00    +0.000 C 
ENDROOT
BRANCH   1   2
ATOM      2  O   UNL     1      46.729   4.017  15.582  0.00  0.00    +0.000 OA
BRANCH   2   6
ATOM      3  C   UNL     1      50.315   3.931  17.720  0.00  0.00    +0.000 A 
ATOM      4  C   UNL     1      49.720   2.714  17.365  0.00  0.00    +0.000 A 
ATOM      5  C   UNL     1      48.516   2.707  16.654  0.00  0.00    +0.000 A 
ATOM      6  C   UNL     1      47.896   3.905  16.293  0.00  0.00    +0.000 A 
ATOM      7  C   UNL     1      48.481   5.117  16.674  0.00  0.00    +0.000 A 
ATOM      8  C   UNL     1      49.683   5.132  17.390  0.00  0.00    +0.000 A 
BRANCH   3  10
ATOM      9  N   UNL     1      52.260   2.783  18.622  0.00  0.00    +0.000 N 
ATOM     10  C   UNL     1      51.604   3.974  18.456  0.00  0.00    +0.000 C 
ATOM     11  O   UNL     1      52.086   5.023  18.858  0.00  0.00    +0.000 OA
ATOM     12  H   UNL     1      53.187   2.838  19.019  0.00  0.00    +0.000 HD
ATOM     13  H   UNL     1      52.027   1.959  18.085  0.00  0.00    +0.000 HD
ENDBRANCH   3  10
ENDBRANCH   2   6
ENDBRANCH   1   2
BRANCH   1  14
ATOM     14  C   UNL     1      46.369   5.324  13.581  0.00  0.00    +0.000 C 
BRANCH  14  15
ATOM     15  C   UNL     1      45.274   5.101  12.566  0.00  0.00    +0.000 A 
ATOM     16  C   UNL     1      43.928   5.158  12.942  0.00  0.00    +0.000 A 
ATOM     17  C   UNL     1      42.922   5.016  11.982  0.00  0.00    +0.000 A 
ATOM     18  C   UNL     1      43.249   4.814  10.638  0.00  0.00    +0.000 A 
ATOM     19  C   UNL     1      44.587   4.747  10.256  0.00  0.00    +0.000 A 
ATOM     20  C   UNL     1      45.591   4.899  11.216  0.00  0.00    +0.000 A 
BRANCH  19  21
ATOM     21  O   UNL     1      45.030   4.588   8.967  0.00  0.00    +0.000 OA
BRANCH  21  22
ATOM     22  C   UNL     1      44.872   3.303   8.321  0.00  0.00    +0.000 C 
ATOM     23  C   UNL     1      44.790   2.050   9.215  0.00  0.00    +0.000 C 
ATOM     24  N   UNL     1      45.904   1.429   8.483  0.00  0.00    +0.000 NA
ATOM     25  C   UNL     1      46.179   2.688   7.778  0.00  0.00    +0.000 C 
ATOM     26  H   UNL     1      45.630   0.660   7.874  0.00  0.00    +0.000 HD
ENDBRANCH  21  22
ENDBRANCH  19  21
ENDBRANCH  14  15
ENDBRANCH   1  14
TORSDOF 7
ENDMDL
MODEL 9
REMARK VINA RESULT:    -6.086      3.292      7.184
REMARK INTER + INTRA:          -9.553
REMARK INTER:                  -8.815
REMARK INTRA:                  -0.738
REMARK UNBOUND:                -0.977
REMARK  Name = 
REMARK  7 active torsions:
REMARK  status: ('A' for Active; 'I' for Inactive)
REMARK    1  A    between atoms: C_2  and  C_4
REMARK    2  A    between atoms: C_7  and  O_8
REMARK    3  A    between atoms: O_8  and  C_9
REMARK    4  A    between atoms: C_9  and  C_10
REMARK    5  A    between atoms: C_10  and  C_11
REMARK    6  A    between atoms: C_15  and  O_16
REMARK    7  A    between atoms: O_16  and  C_17
REMARK                            x       y       z     vdW  Elec       q    Type
REMARK                         _______ _______ _______ _____ _____    ______ ____
ROOT
ATOM      1  C   UNL     1      46.941   4.772  14.170  0.00  0.00    +0.000 C 
ENDROOT
BRANCH   1   2
ATOM      2  O   UNL     1      47.831   5.479  13.302  0.00  0.00    +0.000 OA
BRANCH   2   6
ATOM      3  C   UNL     1      46.912   9.393  12.177  0.00  0.00    +0.000 A 
ATOM      4  C   UNL     1      45.933   8.642  12.838  0.00  0.00    +0.000 A 
ATOM      5  C   UNL     1      46.206   7.325  13.223  0.00  0.00    +0.000 A 
ATOM      6  C   UNL     1      47.449   6.749  12.955  0.00  0.00    +0.000 A 
ATOM      7  C   UNL     1      48.413   7.496  12.270  0.00  0.00    +0.000 A 
ATOM      8  C   UNL     1      48.146   8.811  11.876  0.00  0.00    +0.000 A 
BRANCH   3  10
ATOM      9  N   UNL     1      45.442  11.329  12.101  0.00  0.00    +0.000 N 
ATOM     10  C   UNL     1      46.663  10.800  11.773  0.00  0.00    +0.000 C 
ATOM     11  O   UNL     1      47.515  11.475  11.214  0.00  0.00    +0.000 OA
ATOM     12  H   UNL     1      45.326  12.318  11.927  0.00  0.00    +0.000 HD
ATOM     13  H   UNL     1      44.831  10.897  12.779  0.00  0.00    +0.000 HD
ENDBRANCH   3  10
ENDBRANCH   2   6
ENDBRANCH   1   2
BRANCH   1  14
ATOM     14  C   UNL     1      46.360   3.566  13.435  0.00  0.00    +0.000 C 
BRANCH  14  15
ATOM     15  C   UNL     1      45.223   3.980  12.533  0.00  0.00    +0.000 A 
ATOM     16  C   UNL     1      43.978   4.334  13.066  0.00  0.00    +0.000 A 
ATOM     17  C   UNL     1      42.954   4.780  12.227  0.00  0.00    +0.000 A 
ATOM     18  C   UNL     1      43.159   4.877  10.848  0.00  0.00    +0.000 A 
ATOM     19  C   UNL     1      44.392   4.520  10.307  0.00  0.00    +0.000 A 
ATOM     20  C   UNL     1      45.419   4.083  11.149  0.00  0.00    +0.000 A 
BRANCH  19  21
ATOM     21  O   UNL     1      44.722   4.605   8.978  0.00  0.00    +0.000 OA
BRANCH  21  22
ATOM     22  C   UNL     1      44.810   3.392   8.195  0.00  0.00    +0.000 C 
ATOM     23  C   UNL     1      45.016   2.061   8.944  0.00  0.00    +0.000 C 
ATOM     24  N   UNL     1      46.208   1.767   8.136  0.00  0.00    +0.000 NA
ATOM     25  C   UNL     1      46.196   3.123   7.574  0.00  0.00    +0.000 C 
ATOM     26  H   UNL     1      46.078   1.027   7.447  0.00  0.00    +0.000 HD
ENDBRANCH  21  22
ENDBRANCH  19  21
ENDBRANCH  14  15
ENDBRANCH   1  14
TORSDOF 7
ENDMDL
