MODEL 1
REMARK VINA RESULT:    -7.996      0.000      0.000
REMARK INTER + INTRA:         -12.430
REMARK INTER:                 -11.268
REMARK INTRA:                  -1.163
REMARK UNBOUND:                -1.163
REMARK  Name = 
REMARK  8 active torsions:
REMARK  status: ('A' for Active; 'I' for Inactive)
REMARK    1  A    between atoms: C_1  and  C_2
REMARK    2  A    between atoms: C_2  and  N_3
REMARK    3  A    between atoms: C_2  and  C_25
REMARK    4  A    between atoms: N_3  and  C_4
REMARK    5  A    between atoms: C_4  and  C_5
REMARK    6  A    between atoms: C_8  and  C_9
REMARK    7  A    between atoms: C_9  and  N_10
REMARK    8  A    between atoms: C_11  and  C_13
REMARK                            x       y       z     vdW  Elec       q    Type
REMARK                         _______ _______ _______ _____ _____    ______ ____
ROOT
ATOM      1  C   UNL     1      44.722   5.930  11.143  0.00  0.00    +0.000 A 
ATOM      2  C   UNL     1      44.394   7.235  11.539  0.00  0.00    +0.000 A 
ATOM      3  C   UNL     1      45.269   7.982  12.333  0.00  0.00    +0.000 A 
ATOM      4  C   UNL     1      46.493   7.440  12.752  0.00  0.00    +0.000 A 
ATOM      5  C   UNL     1      46.812   6.131  12.373  0.00  0.00    +0.000 A 
ATOM      6  C   UNL     1      45.942   5.388  11.572  0.00  0.00    +0.000 A 
ENDROOT
BRANCH   1   7
ATOM      7  C   UNL     1      43.760   5.088  10.333  0.00  0.00    +0.000 C 
BRANCH   7   8
ATOM      8  N   UNL     1      44.365   4.573   9.102  0.00  0.00    +0.000 NA
ATOM      9  H   UNL     1      43.832   4.934   8.310  0.00  0.00    +0.000 HD
BRANCH   8  11
ATOM     10  C   UNL     1      44.273   2.420  10.394  0.00  0.00    +0.000 C 
ATOM     11  C   UNL     1      44.325   3.101   9.017  0.00  0.00    +0.000 C 
BRANCH  11  12
ATOM     12  C   UNL     1      45.527   2.560   8.250  0.00  0.00    +0.000 A 
ATOM     13  C   UNL     1      46.325   3.410   7.484  0.00  0.00    +0.000 A 
ATOM     14  N   UNL     1      47.446   2.997   6.843  0.00  0.00    +0.000 NA
ATOM     15  C   UNL     1      47.738   1.689   6.986  0.00  0.00    +0.000 A 
ATOM     16  C   UNL     1      46.941   0.827   7.722  0.00  0.00    +0.000 A 
ATOM     17  N   UNL     1      45.826   1.238   8.370  0.00  0.00    +0.000 NA
ENDBRANCH  11  12
ENDBRANCH   8  11
ENDBRANCH   7   8
ENDBRANCH   1   7
BRANCH   4  18
ATOM     18  C   UNL     1      47.429   8.218  13.640  0.00  0.00    +0.000 C 
BRANCH  18  19
ATOM     19  N   UNL     1      47.737   7.482  14.838  0.00  0.00    +0.000 N 
ATOM     20  C   UNL     1      48.962   6.896  15.020  0.00  0.00    +0.000 C 
ATOM     21  O   UNL     1      49.866   7.004  14.193  0.00  0.00    +0.000 OA
ATOM     22  H   UNL     1      46.949   7.176  15.401  0.00  0.00    +0.000 HD
BRANCH  20  23
ATOM     23  C   UNL     1      49.163   6.175  16.284  0.00  0.00    +0.000 A 
ATOM     24  C   UNL     1      50.135   6.607  17.174  0.00  0.00    +0.000 A 
ATOM     25  S   UNL     1      50.210   5.684  18.605  0.00  0.00    +0.000 S 
ATOM     26  C   UNL     1      48.975   4.646  18.064  0.00  0.00    +0.000 A 
ATOM     27  N   UNL     1      48.567   3.590  18.820  0.00  0.00    +0.000 NA
ATOM     28  C   UNL     1      47.637   2.876  18.282  0.00  0.00    +0.000 A 
ATOM     29  N   UNL     1      47.079   3.117  17.053  0.00  0.00    +0.000 N 
ATOM     30  C   UNL     1      47.437   4.186  16.267  0.00  0.00    +0.000 A 
ATOM     31  O   UNL     1      46.886   4.399  15.193  0.00  0.00    +0.000 OA
ATOM     32  C   UNL     1      48.494   5.013  16.820  0.00  0.00    +0.000 A 
ATOM     33  H   UNL     1      46.344   2.527  16.693  0.00  0.00    +0.000 HD
ENDBRANCH  20  23
ENDBRANCH  18  19
ENDBRANCH   4  18
TORSDOF 7
ENDMDL
MODEL 2
REMARK VINA RESULT:    -7.615      1.659      2.104
REMARK INTER + INTRA:         -11.894
REMARK INTER:                 -10.830
REMARK INTRA:                  -1.064
REMARK UNBOUND:                -1.163
REMARK  Name = 
REMARK  8 active torsions:
REMARK  status: ('A' for Active; 'I' for Inactive)
REMARK    1  A    between atoms: C_1  and  C_2
REMARK    2  A    between atoms: C_2  and  N_3
REMARK    3  A    between atoms: C_2  and  C_25
REMARK    4  A    between atoms: N_3  and  C_4
REMARK    5  A    between atoms: C_4  and  C_5
REMARK    6  A    between atoms: C_8  and  C_9
REMARK    7  A    between atoms: C_9  and  N_10
REMARK    8  A    between atoms: C_11  and  C_13
REMARK                            x       y       z     vdW  Elec       q    Type
REMARK                         _______ _______ _______ _____ _____    ______ ____
ROOT
ATOM      1  C   UNL     1      45.086   5.365  11.470  0.00  0.00    +0.000 A 
ATOM      2  C   UNL     1      45.414   4.756  12.690  0.00  0.00    +0.000 A 
ATOM      3  C   UNL     1      46.503   5.204  13.443  0.00  0.00    +0.000 A 
ATOM      4  C   UNL     1      47.292   6.272  12.992  0.00  0.00    +0.000 A 
ATOM      5  C   UNL     1      46.977   6.868  11.765  0.00  0.00    +0.000 A 
ATOM      6  C   UNL     1      45.884   6.426  11.018  0.00  0.00    +0.000 A 
ENDROOT
BRANCH   1   7
ATOM      7  C   UNL     1      43.946   4.854  10.615  0.00  0.00    +0.000 C 
BRANCH   7   8
ATOM      8  N   UNL     1      44.344   4.638   9.222  0.00  0.00    +0.000 NA
ATOM      9  H   UNL     1      43.646   5.077   8.620  0.00  0.00    +0.000 HD
BRANCH   8  11
ATOM     10  C   UNL     1      44.326   2.274  10.075  0.00  0.00    +0.000 C 
ATOM     11  C   UNL     1      44.395   3.209   8.857  0.00  0.00    +0.000 C 
BRANCH  11  12
ATOM     12  C   UNL     1      45.657   2.887   8.064  0.00  0.00    +0.000 A 
ATOM     13  C   UNL     1      46.229   1.615   8.120  0.00  0.00    +0.000 A 
ATOM     14  N   UNL     1      47.305   1.253   7.380  0.00  0.00    +0.000 NA
ATOM     15  C   UNL     1      47.804   2.220   6.584  0.00  0.00    +0.000 A 
ATOM     16  C   UNL     1      47.264   3.495   6.538  0.00  0.00    +0.000 A 
ATOM     17  N   UNL     1      46.184   3.857   7.269  0.00  0.00    +0.000 NA
ENDBRANCH  11  12
ENDBRANCH   8  11
ENDBRANCH   7   8
ENDBRANCH   1   7
BRANCH   4  18
ATOM     18  C   UNL     1      48.492   6.741  13.772  0.00  0.00    +0.000 C 
BRANCH  18  19
ATOM     19  N   UNL     1      48.257   6.649  15.189  0.00  0.00    +0.000 N 
ATOM     20  C   UNL     1      48.954   7.422  16.081  0.00  0.00    +0.000 C 
ATOM     21  O   UNL     1      49.779   8.255  15.713  0.00  0.00    +0.000 OA
ATOM     22  H   UNL     1      47.778   5.816  15.519  0.00  0.00    +0.000 HD
BRANCH  20  23
ATOM     23  C   UNL     1      48.624   7.244  17.500  0.00  0.00    +0.000 A 
ATOM     24  C   UNL     1      48.124   8.315  18.229  0.00  0.00    +0.000 A 
ATOM     25  S   UNL     1      47.759   7.928  19.848  0.00  0.00    +0.000 S 
ATOM     26  C   UNL     1      48.300   6.327  19.645  0.00  0.00    +0.000 A 
ATOM     27  N   UNL     1      48.290   5.448  20.684  0.00  0.00    +0.000 NA
ATOM     28  C   UNL     1      48.744   4.275  20.394  0.00  0.00    +0.000 A 
ATOM     29  N   UNL     1      49.212   3.900  19.161  0.00  0.00    +0.000 N 
ATOM     30  C   UNL     1      49.214   4.743  18.076  0.00  0.00    +0.000 A 
ATOM     31  O   UNL     1      49.598   4.363  16.975  0.00  0.00    +0.000 OA
ATOM     32  C   UNL     1      48.728   6.083  18.352  0.00  0.00    +0.000 A 
ATOM     33  H   UNL     1      49.541   2.962  18.995  0.00  0.00    +0.000 HD
ENDBRANCH  20  23
ENDBRANCH  18  19
ENDBRANCH   4  18
TORSDOF 7
ENDMDL
MODEL 3
REMARK VINA RESULT:    -7.439      2.178      2.770
REMARK INTER + INTRA:         -11.646
REMARK INTER:                 -10.528
REMARK INTRA:                  -1.117
REMARK UNBOUND:                -1.163
REMARK  Name = 
REMARK  8 active torsions:
REMARK  status: ('A' for Active; 'I' for Inactive)
REMARK    1  A    between atoms: C_1  and  C_2
REMARK    2  A    between atoms: C_2  and  N_3
REMARK    3  A    between atoms: C_2  and  C_25
REMARK    4  A    between atoms: N_3  and  C_4
REMARK    5  A    between atoms: C_4  and  C_5
REMARK    6  A    between atoms: C_8  and  C_9
REMARK    7  A    between atoms: C_9  and  N_10
REMARK    8  A    between atoms: C_11  and  C_13
REMARK                            x       y       z     vdW  Elec       q    Type
REMARK                         _______ _______ _______ _____ _____    ______ ____
ROOT
ATOM      1  C   UNL     1      45.573   5.701  11.722  0.00  0.00    +0.000 A 
ATOM      2  C   UNL     1      46.377   6.798  11.380  0.00  0.00    +0.000 A 
ATOM      3  C   UNL     1      47.439   7.189  12.200  0.00  0.00    +0.000 A 
ATOM      4  C   UNL     1      47.721   6.492  13.384  0.00  0.00    +0.000 A 
ATOM      5  C   UNL     1      46.907   5.408  13.736  0.00  0.00    +0.000 A 
ATOM      6  C   UNL     1      45.852   5.013  12.911  0.00  0.00    +0.000 A 
ENDROOT
BRANCH   1   7
ATOM      7  C   UNL     1      44.383   5.303  10.875  0.00  0.00    +0.000 C 
BRANCH   7   8
ATOM      8  N   UNL     1      44.752   5.027   9.485  0.00  0.00    +0.000 NA
ATOM      9  H   UNL     1      44.206   5.643   8.882  0.00  0.00    +0.000 HD
BRANCH   8  11
ATOM     10  C   UNL     1      44.122   2.722  10.265  0.00  0.00    +0.000 C 
ATOM     11  C   UNL     1      44.451   3.641   9.076  0.00  0.00    +0.000 C 
BRANCH  11  12
ATOM     12  C   UNL     1      45.609   3.032   8.294  0.00  0.00    +0.000 A 
ATOM     13  C   UNL     1      45.906   1.673   8.402  0.00  0.00    +0.000 A 
ATOM     14  N   UNL     1      46.874   1.065   7.674  0.00  0.00    +0.000 NA
ATOM     15  C   UNL     1      47.552   1.874   6.836  0.00  0.00    +0.000 A 
ATOM     16  C   UNL     1      47.287   3.230   6.736  0.00  0.00    +0.000 A 
ATOM     17  N   UNL     1      46.314   3.837   7.455  0.00  0.00    +0.000 NA
ENDBRANCH  11  12
ENDBRANCH   8  11
ENDBRANCH   7   8
ENDBRANCH   1   7
BRANCH   4  18
ATOM     18  C   UNL     1      48.838   6.924  14.298  0.00  0.00    +0.000 C 
BRANCH  18  19
ATOM     19  N   UNL     1      48.531   6.618  15.671  0.00  0.00    +0.000 N 
ATOM     20  C   UNL     1      49.502   6.202  16.544  0.00  0.00    +0.000 C 
ATOM     21  O   UNL     1      50.682   6.111  16.210  0.00  0.00    +0.000 OA
ATOM     22  H   UNL     1      47.555   6.448  15.893  0.00  0.00    +0.000 HD
BRANCH  20  23
ATOM     23  C   UNL     1      49.071   5.924  17.919  0.00  0.00    +0.000 A 
ATOM     24  C   UNL     1      49.201   4.641  18.434  0.00  0.00    +0.000 A 
ATOM     25  S   UNL     1      48.689   4.500  20.054  0.00  0.00    +0.000 S 
ATOM     26  C   UNL     1      48.233   6.138  20.110  0.00  0.00    +0.000 A 
ATOM     27  N   UNL     1      47.676   6.671  21.231  0.00  0.00    +0.000 NA
ATOM     28  C   UNL     1      47.362   7.918  21.129  0.00  0.00    +0.000 A 
ATOM     29  N   UNL     1      47.549   8.683  20.007  0.00  0.00    +0.000 N 
ATOM     30  C   UNL     1      48.134   8.197  18.862  0.00  0.00    +0.000 A 
ATOM     31  O   UNL     1      48.329   8.919  17.891  0.00  0.00    +0.000 OA
ATOM     32  C   UNL     1      48.492   6.791  18.918  0.00  0.00    +0.000 A 
ATOM     33  H   UNL     1      47.294   9.659  19.996  0.00  0.00    +0.000 HD
ENDBRANCH  20  23
ENDBRANCH  18  19
ENDBRANCH   4  18
TORSDOF 7
ENDMDL
MODEL 4
REMARK VINA RESULT:    -7.172      4.798      9.624
REMARK INTER + INTRA:         -11.270
REMARK INTER:                 -10.381
REMARK INTRA:                  -0.889
REMARK UNBOUND:                -1.163
REMARK  Name = 
REMARK  8 active torsions:
REMARK  status: ('A' for Active; 'I' for Inactive)
REMARK    1  A    between atoms: C_1  and  C_2
REMARK    2  A    between atoms: C_2  and  N_3
REMARK    3  A    between atoms: C_2  and  C_25
REMARK    4  A    between atoms: N_3  and  C_4
REMARK    5  A    between atoms: C_4  and  C_5
REMARK    6  A    between atoms: C_8  and  C_9
REMARK    7  A    between atoms: C_9  and  N_10
REMARK    8  A    between atoms: C_11  and  C_13
REMARK                            x       y       z     vdW  Elec       q    Type
REMARK                         _______ _______ _______ _____ _____    ______ ____
ROOT
ATOM      1  C   UNL     1      51.437   3.128  17.742  0.00  0.00    +0.000 A 
ATOM      2  C   UNL     1      50.739   2.031  17.216  0.00  0.00    +0.000 A 
ATOM      3  C   UNL     1      49.369   2.115  16.952  0.00  0.00    +0.000 A 
ATOM      4  C   UNL     1      48.663   3.299  17.212  0.00  0.00    +0.000 A 
ATOM      5  C   UNL     1      49.355   4.389  17.755  0.00  0.00    +0.000 A 
ATOM      6  C   UNL     1      50.726   4.307  18.009  0.00  0.00    +0.000 A 
ENDROOT
BRANCH   1   7
ATOM      7  C   UNL     1      52.908   3.033  18.087  0.00  0.00    +0.000 C 
BRANCH   7   8
ATOM      8  N   UNL     1      53.243   1.783  18.773  0.00  0.00    +0.000 NA
ATOM      9  H   UNL     1      53.271   1.968  19.776  0.00  0.00    +0.000 HD
BRANCH   8  11
ATOM     10  C   UNL     1      55.007   1.698  16.985  0.00  0.00    +0.000 C 
ATOM     11  C   UNL     1      54.568   1.259  18.392  0.00  0.00    +0.000 C 
BRANCH  11  12
ATOM     12  C   UNL     1      54.600  -0.264  18.461  0.00  0.00    +0.000 A 
ATOM     13  C   UNL     1      54.813  -1.025  17.310  0.00  0.00    +0.000 A 
ATOM     14  N   UNL     1      54.924  -2.376  17.325  0.00  0.00    +0.000 NA
ATOM     15  C   UNL     1      54.801  -2.947  18.540  0.00  0.00    +0.000 A 
ATOM     16  C   UNL     1      54.563  -2.207  19.687  0.00  0.00    +0.000 A 
ATOM     17  N   UNL     1      54.461  -0.858  19.676  0.00  0.00    +0.000 NA
ENDBRANCH  11  12
ENDBRANCH   8  11
ENDBRANCH   7   8
ENDBRANCH   1   7
BRANCH   4  18
ATOM     18  C   UNL     1      47.179   3.394  16.970  0.00  0.00    +0.000 C 
BRANCH  18  19
ATOM     19  N   UNL     1      46.879   4.395  15.980  0.00  0.00    +0.000 N 
ATOM     20  C   UNL     1      46.986   4.129  14.640  0.00  0.00    +0.000 C 
ATOM     21  O   UNL     1      47.301   3.017  14.220  0.00  0.00    +0.000 OA
ATOM     22  H   UNL     1      46.862   5.360  16.297  0.00  0.00    +0.000 HD
BRANCH  20  23
ATOM     23  C   UNL     1      46.649   5.226  13.725  0.00  0.00    +0.000 A 
ATOM     24  C   UNL     1      47.568   6.242  13.502  0.00  0.00    +0.000 A 
ATOM     25  S   UNL     1      47.033   7.414  12.386  0.00  0.00    +0.000 S 
ATOM     26  C   UNL     1      45.535   6.629  12.196  0.00  0.00    +0.000 A 
ATOM     27  N   UNL     1      44.574   7.144  11.382  0.00  0.00    +0.000 NA
ATOM     28  C   UNL     1      43.482   6.458  11.346  0.00  0.00    +0.000 A 
ATOM     29  N   UNL     1      43.260   5.305  12.053  0.00  0.00    +0.000 N 
ATOM     30  C   UNL     1      44.209   4.732  12.864  0.00  0.00    +0.000 A 
ATOM     31  O   UNL     1      43.995   3.676  13.448  0.00  0.00    +0.000 OA
ATOM     32  C   UNL     1      45.454   5.475  12.954  0.00  0.00    +0.000 A 
ATOM     33  H   UNL     1      42.387   4.807  11.970  0.00  0.00    +0.000 HD
ENDBRANCH  20  23
ENDBRANCH  18  19
ENDBRANCH   4  18
TORSDOF 7
ENDMDL
MODEL 5
REMARK VINA RESULT:    -7.094      3.215      7.891
REMARK INTER + INTRA:         -11.160
REMARK INTER:                  -9.709
REMARK INTRA:                  -1.452
REMARK UNBOUND:                -1.163
REMARK  Name = 
REMARK  8 active torsions:
REMARK  status: ('A' for Active; 'I' for Inactive)
REMARK    1  A    between atoms: C_1  and  C_2
REMARK    2  A    between atoms: C_2  and  N_3
REMARK    3  A    between atoms: C_2  and  C_25
REMARK    4  A    between atoms: N_3  and  C_4
REMARK    5  A    between atoms: C_4  and  C_5
REMARK    6  A    between atoms: C_8  and  C_9
REMARK    7  A    between atoms: C_9  and  N_10
REMARK    8  A    between atoms: C_11  and  C_13
REMARK                            x       y       z     vdW  Elec       q    Type
REMARK                         _______ _______ _______ _____ _____    ______ ____
ROOT
ATOM      1  C   UNL     1      48.831   7.740  16.239  0.00  0.00    +0.000 A 
ATOM      2  C   UNL     1      49.110   6.689  15.354  0.00  0.00    +0.000 A 
ATOM      3  C   UNL     1      48.938   6.850  13.976  0.00  0.00    +0.000 A 
ATOM      4  C   UNL     1      48.479   8.067  13.451  0.00  0.00    +0.000 A 
ATOM      5  C   UNL     1      48.182   9.111  14.336  0.00  0.00    +0.000 A 
ATOM      6  C   UNL     1      48.363   8.952  15.711  0.00  0.00    +0.000 A 
ENDROOT
BRANCH   1   7
ATOM      7  C   UNL     1      48.956   7.562  17.737  0.00  0.00    +0.000 C 
BRANCH   7   8
ATOM      8  N   UNL     1      47.694   7.156  18.361  0.00  0.00    +0.000 NA
ATOM      9  H   UNL     1      47.391   7.905  18.983  0.00  0.00    +0.000 HD
BRANCH   8  11
ATOM     10  C   UNL     1      48.956   6.034  20.222  0.00  0.00    +0.000 C 
ATOM     11  C   UNL     1      47.827   5.937  19.182  0.00  0.00    +0.000 C 
BRANCH  11  12
ATOM     12  C   UNL     1      48.069   4.709  18.311  0.00  0.00    +0.000 A 
ATOM     13  C   UNL     1      47.099   4.274  17.407  0.00  0.00    +0.000 A 
ATOM     14  N   UNL     1      47.291   3.235  16.558  0.00  0.00    +0.000 NA
ATOM     15  C   UNL     1      48.492   2.631  16.654  0.00  0.00    +0.000 A 
ATOM     16  C   UNL     1      49.454   3.034  17.565  0.00  0.00    +0.000 A 
ATOM     17  N   UNL     1      49.270   4.077  18.408  0.00  0.00    +0.000 NA
ENDBRANCH  11  12
ENDBRANCH   8  11
ENDBRANCH   7   8
ENDBRANCH   1   7
BRANCH   4  18
ATOM     18  C   UNL     1      48.252   8.244  11.973  0.00  0.00    +0.000 C 
BRANCH  18  19
ATOM     19  N   UNL     1      47.582   7.100  11.411  0.00  0.00    +0.000 N 
ATOM     20  C   UNL     1      46.215   7.007  11.402  0.00  0.00    +0.000 C 
ATOM     21  O   UNL     1      45.498   7.908  11.832  0.00  0.00    +0.000 OA
ATOM     22  H   UNL     1      48.140   6.261  11.285  0.00  0.00    +0.000 HD
BRANCH  20  23
ATOM     23  C   UNL     1      45.645   5.796  10.798  0.00  0.00    +0.000 A 
ATOM     24  C   UNL     1      45.842   5.543   9.448  0.00  0.00    +0.000 A 
ATOM     25  S   UNL     1      45.147   4.079   8.919  0.00  0.00    +0.000 S 
ATOM     26  C   UNL     1      44.518   3.755  10.467  0.00  0.00    +0.000 A 
ATOM     27  N   UNL     1      43.770   2.642  10.699  0.00  0.00    +0.000 NA
ATOM     28  C   UNL     1      43.342   2.531  11.911  0.00  0.00    +0.000 A 
ATOM     29  N   UNL     1      43.588   3.433  12.913  0.00  0.00    +0.000 N 
ATOM     30  C   UNL     1      44.362   4.555  12.734  0.00  0.00    +0.000 A 
ATOM     31  O   UNL     1      44.601   5.318  13.663  0.00  0.00    +0.000 OA
ATOM     32  C   UNL     1      44.855   4.737  11.381  0.00  0.00    +0.000 A 
ATOM     33  H   UNL     1      43.235   3.280  13.846  0.00  0.00    +0.000 HD
ENDBRANCH  20  23
ENDBRANCH  18  19
ENDBRANCH   4  18
TORSDOF 7
ENDMDL
MODEL 6
REMARK VINA RESULT:    -7.042      2.861      8.094
REMARK INTER + INTRA:         -11.087
REMARK INTER:                  -9.624
REMARK INTRA:                  -1.463
REMARK UNBOUND:                -1.163
REMARK  Name = 
REMARK  8 active torsions:
REMARK  status: ('A' for Active; 'I' for Inactive)
REMARK    1  A    between atoms: C_1  and  C_2
REMARK    2  A    between atoms: C_2  and  N_3
REMARK    3  A    between atoms: C_2  and  C_25
REMARK    4  A    between atoms: N_3  and  C_4
REMARK    5  A    between atoms: C_4  and  C_5
REMARK    6  A    between atoms: C_8  and  C_9
REMARK    7  A    between atoms: C_9  and  N_10
REMARK    8  A    between atoms: C_11  and  C_13
REMARK                            x       y       z     vdW  Elec       q    Type
REMARK                         _______ _______ _______ _____ _____    ______ ____
ROOT
ATOM      1  C   UNL     1      49.459   8.360  15.790  0.00  0.00    +0.000 A 
ATOM      2  C   UNL     1      50.021   7.428  14.905  0.00  0.00    +0.000 A 
ATOM      3  C   UNL     1      49.531   7.294  13.602  0.00  0.00    +0.000 A 
ATOM      4  C   UNL     1      48.466   8.089  13.155  0.00  0.00    +0.000 A 
ATOM      5  C   UNL     1      47.892   9.007  14.044  0.00  0.00    +0.000 A 
ATOM      6  C   UNL     1      48.388   9.146  15.342  0.00  0.00    +0.000 A 
ENDROOT
BRANCH   1   7
ATOM      7  C   UNL     1      49.939   8.476  17.221  0.00  0.00    +0.000 C 
BRANCH   7   8
ATOM      8  N   UNL     1      49.965   7.183  17.909  0.00  0.00    +0.000 NA
ATOM      9  H   UNL     1      50.491   6.526  17.332  0.00  0.00    +0.000 HD
BRANCH   8  11
ATOM     10  C   UNL     1      48.150   6.655  19.565  0.00  0.00    +0.000 C 
ATOM     11  C   UNL     1      48.619   6.610  18.101  0.00  0.00    +0.000 C 
BRANCH  11  12
ATOM     12  C   UNL     1      48.560   5.166  17.614  0.00  0.00    +0.000 A 
ATOM     13  C   UNL     1      49.730   4.450  17.361  0.00  0.00    +0.000 A 
ATOM     14  N   UNL     1      49.737   3.144  16.998  0.00  0.00    +0.000 NA
ATOM     15  C   UNL     1      48.520   2.576  16.882  0.00  0.00    +0.000 A 
ATOM     16  C   UNL     1      47.348   3.281  17.104  0.00  0.00    +0.000 A 
ATOM     17  N   UNL     1      47.339   4.582  17.475  0.00  0.00    +0.000 NA
ENDBRANCH  11  12
ENDBRANCH   8  11
ENDBRANCH   7   8
ENDBRANCH   1   7
BRANCH   4  18
ATOM     18  C   UNL     1      47.901   7.930  11.767  0.00  0.00    +0.000 C 
BRANCH  18  19
ATOM     19  N   UNL     1      47.137   6.716  11.655  0.00  0.00    +0.000 N 
ATOM     20  C   UNL     1      45.775   6.713  11.806  0.00  0.00    +0.000 C 
ATOM     21  O   UNL     1      45.139   7.747  12.002  0.00  0.00    +0.000 OA
ATOM     22  H   UNL     1      47.650   5.844  11.743  0.00  0.00    +0.000 HD
BRANCH  20  23
ATOM     23  C   UNL     1      45.103   5.415  11.665  0.00  0.00    +0.000 A 
ATOM     24  C   UNL     1      44.406   4.883  12.740  0.00  0.00    +0.000 A 
ATOM     25  S   UNL     1      43.655   3.392  12.397  0.00  0.00    +0.000 S 
ATOM     26  C   UNL     1      44.273   3.383  10.811  0.00  0.00    +0.000 A 
ATOM     27  N   UNL     1      44.026   2.343   9.969  0.00  0.00    +0.000 NA
ATOM     28  C   UNL     1      44.571   2.458   8.805  0.00  0.00    +0.000 A 
ATOM     29  N   UNL     1      45.345   3.517   8.406  0.00  0.00    +0.000 N 
ATOM     30  C   UNL     1      45.599   4.602   9.210  0.00  0.00    +0.000 A 
ATOM     31  O   UNL     1      46.257   5.554   8.806  0.00  0.00    +0.000 OA
ATOM     32  C   UNL     1      45.021   4.515  10.539  0.00  0.00    +0.000 A 
ATOM     33  H   UNL     1      45.732   3.554   7.475  0.00  0.00    +0.000 HD
ENDBRANCH  20  23
ENDBRANCH  18  19
ENDBRANCH   4  18
TORSDOF 7
ENDMDL
MODEL 7
REMARK VINA RESULT:    -6.949      1.782      2.446
REMARK INTER + INTRA:         -10.956
REMARK INTER:                  -9.794
REMARK INTRA:                  -1.163
REMARK UNBOUND:                -1.163
REMARK  Name = 
REMARK  8 active torsions:
REMARK  status: ('A' for Active; 'I' for Inactive)
REMARK    1  A    between atoms: C_1  and  C_2
REMARK    2  A    between atoms: C_2  and  N_3
REMARK    3  A    between atoms: C_2  and  C_25
REMARK    4  A    between atoms: N_3  and  C_4
REMARK    5  A    between atoms: C_4  and  C_5
REMARK    6  A    between atoms: C_8  and  C_9
REMARK    7  A    between atoms: C_9  and  N_10
REMARK    8  A    between atoms: C_11  and  C_13
REMARK                            x       y       z     vdW  Elec       q    Type
REMARK                         _______ _______ _______ _____ _____    ______ ____
ROOT
ATOM      1  C   UNL     1      45.188   6.429  11.994  0.00  0.00    +0.000 A 
ATOM      2  C   UNL     1      46.392   5.734  12.182  0.00  0.00    +0.000 A 
ATOM      3  C   UNL     1      47.539   6.397  12.625  0.00  0.00    +0.000 A 
ATOM      4  C   UNL     1      47.510   7.775  12.889  0.00  0.00    +0.000 A 
ATOM      5  C   UNL     1      46.314   8.473  12.683  0.00  0.00    +0.000 A 
ATOM      6  C   UNL     1      45.166   7.807  12.249  0.00  0.00    +0.000 A 
ENDROOT
BRANCH   1   7
ATOM      7  C   UNL     1      43.954   5.736  11.458  0.00  0.00    +0.000 C 
BRANCH   7   8
ATOM      8  N   UNL     1      44.089   5.361  10.049  0.00  0.00    +0.000 NA
ATOM      9  H   UNL     1      43.338   5.814   9.526  0.00  0.00    +0.000 HD
BRANCH   8  11
ATOM     10  C   UNL     1      43.957   3.098  11.134  0.00  0.00    +0.000 C 
ATOM     11  C   UNL     1      43.956   3.909   9.827  0.00  0.00    +0.000 C 
BRANCH  11  12
ATOM     12  C   UNL     1      45.068   3.384   8.926  0.00  0.00    +0.000 A 
ATOM     13  C   UNL     1      45.396   2.027   8.914  0.00  0.00    +0.000 A 
ATOM     14  N   UNL     1      46.323   1.496   8.081  0.00  0.00    +0.000 NA
ATOM     15  C   UNL     1      46.928   2.378   7.261  0.00  0.00    +0.000 A 
ATOM     16  C   UNL     1      46.633   3.731   7.280  0.00  0.00    +0.000 A 
ATOM     17  N   UNL     1      45.701   4.263   8.104  0.00  0.00    +0.000 NA
ENDBRANCH  11  12
ENDBRANCH   8  11
ENDBRANCH   7   8
ENDBRANCH   1   7
BRANCH   4  18
ATOM     18  C   UNL     1      48.748   8.512  13.330  0.00  0.00    +0.000 C 
BRANCH  18  19
ATOM     19  N   UNL     1      49.599   7.667  14.126  0.00  0.00    +0.000 N 
ATOM     20  C   UNL     1      50.535   8.193  14.975  0.00  0.00    +0.000 C 
ATOM     21  O   UNL     1      50.666   9.406  15.129  0.00  0.00    +0.000 OA
ATOM     22  H   UNL     1      49.679   6.697  13.835  0.00  0.00    +0.000 HD
BRANCH  20  23
ATOM     23  C   UNL     1      51.342   7.233  15.738  0.00  0.00    +0.000 A 
ATOM     24  C   UNL     1      52.727   7.318  15.703  0.00  0.00    +0.000 A 
ATOM     25  S   UNL     1      53.507   6.153  16.673  0.00  0.00    +0.000 S 
ATOM     26  C   UNL     1      52.022   5.465  17.137  0.00  0.00    +0.000 A 
ATOM     27  N   UNL     1      51.980   4.379  17.957  0.00  0.00    +0.000 NA
ATOM     28  C   UNL     1      50.791   3.950  18.212  0.00  0.00    +0.000 A 
ATOM     29  N   UNL     1      49.637   4.503  17.721  0.00  0.00    +0.000 N 
ATOM     30  C   UNL     1      49.628   5.616  16.914  0.00  0.00    +0.000 A 
ATOM     31  O   UNL     1      48.576   6.114  16.528  0.00  0.00    +0.000 OA
ATOM     32  C   UNL     1      50.944   6.130  16.581  0.00  0.00    +0.000 A 
ATOM     33  H   UNL     1      48.735   4.128  17.970  0.00  0.00    +0.000 HD
ENDBRANCH  20  23
ENDBRANCH  18  19
ENDBRANCH   4  18
TORSDOF 7
ENDMDL
MODEL 8
REMARK VINA RESULT:    -6.487      3.461      4.903
REMARK INTER + INTRA:         -10.305
REMARK INTER:                  -9.085
REMARK INTRA:                  -1.220
REMARK UNBOUND:                -1.163
REMARK  Name = 
REMARK  8 active torsions:
REMARK  status: ('A' for Active; 'I' for Inactive)
REMARK    1  A    between atoms: C_1  and  C_2
REMARK    2  A    between atoms: C_2  and  N_3
REMARK    3  A    between atoms: C_2  and  C_25
REMARK    4  A    between atoms: N_3  and  C_4
REMARK    5  A    between atoms: C_4  and  C_5
REMARK    6  A    between atoms: C_8  and  C_9
REMARK    7  A    between atoms: C_9  and  N_10
REMARK    8  A    between atoms: C_11  and  C_13
REMARK                            x       y       z     vdW  Elec       q    Type
REMARK                         _______ _______ _______ _____ _____    ______ ____
ROOT
ATOM      1  C   UNL     1      45.362   6.670  11.955  0.00  0.00    +0.000 A 
ATOM      2  C   UNL     1      45.140   8.039  12.164  0.00  0.00    +0.000 A 
ATOM      3  C   UNL     1      46.040   8.804  12.910  0.00  0.00    +0.000 A 
ATOM      4  C   UNL     1      47.185   8.217  13.468  0.00  0.00    +0.000 A 
ATOM      5  C   UNL     1      47.399   6.846  13.276  0.00  0.00    +0.000 A 
ATOM      6  C   UNL     1      46.503   6.084  12.523  0.00  0.00    +0.000 A 
ENDROOT
BRANCH   1   7
ATOM      7  C   UNL     1      44.367   5.816  11.199  0.00  0.00    +0.000 C 
BRANCH   7   8
ATOM      8  N   UNL     1      44.874   5.388   9.894  0.00  0.00    +0.000 NA
ATOM      9  H   UNL     1      44.566   6.065   9.195  0.00  0.00    +0.000 HD
BRANCH   8  11
ATOM     10  C   UNL     1      43.920   3.195  10.668  0.00  0.00    +0.000 C 
ATOM     11  C   UNL     1      44.350   4.072   9.480  0.00  0.00    +0.000 C 
BRANCH  11  12
ATOM     12  C   UNL     1      45.377   3.305   8.653  0.00  0.00    +0.000 A 
ATOM     13  C   UNL     1      45.558   1.933   8.836  0.00  0.00    +0.000 A 
ATOM     14  N   UNL     1      46.402   1.190   8.080  0.00  0.00    +0.000 NA
ATOM     15  C   UNL     1      47.074   1.874   7.132  0.00  0.00    +0.000 A 
ATOM     16  C   UNL     1      46.925   3.239   6.956  0.00  0.00    +0.000 A 
ATOM     17  N   UNL     1      46.076   3.983   7.704  0.00  0.00    +0.000 NA
ENDBRANCH  11  12
ENDBRANCH   8  11
ENDBRANCH   7   8
ENDBRANCH   1   7
BRANCH   4  18
ATOM     18  C   UNL     1      48.145   9.019  14.307  0.00  0.00    +0.000 C 
BRANCH  18  19
ATOM     19  N   UNL     1      49.441   9.090  13.686  0.00  0.00    +0.000 N 
ATOM     20  C   UNL     1      50.546   8.532  14.273  0.00  0.00    +0.000 C 
ATOM     21  O   UNL     1      50.477   7.911  15.332  0.00  0.00    +0.000 OA
ATOM     22  H   UNL     1      49.562   9.793  12.962  0.00  0.00    +0.000 HD
BRANCH  20  23
ATOM     23  C   UNL     1      51.813   8.665  13.544  0.00  0.00    +0.000 A 
ATOM     24  C   UNL     1      52.933   9.162  14.196  0.00  0.00    +0.000 A 
ATOM     25  S   UNL     1      54.327   9.214  13.217  0.00  0.00    +0.000 S 
ATOM     26  C   UNL     1      53.472   8.617  11.873  0.00  0.00    +0.000 A 
ATOM     27  N   UNL     1      54.087   8.451  10.670  0.00  0.00    +0.000 NA
ATOM     28  C   UNL     1      53.317   8.008   9.734  0.00  0.00    +0.000 A 
ATOM     29  N   UNL     1      51.985   7.721   9.888  0.00  0.00    +0.000 N 
ATOM     30  C   UNL     1      51.328   7.845  11.089  0.00  0.00    +0.000 A 
ATOM     31  O   UNL     1      50.148   7.536  11.203  0.00  0.00    +0.000 OA
ATOM     32  C   UNL     1      52.147   8.356  12.173  0.00  0.00    +0.000 A 
ATOM     33  H   UNL     1      51.440   7.364   9.118  0.00  0.00    +0.000 HD
ENDBRANCH  20  23
ENDBRANCH  18  19
ENDBRANCH   4  18
TORSDOF 7
ENDMDL
MODEL 9
REMARK VINA RESULT:    -6.460      3.442      7.875
REMARK INTER + INTRA:         -10.266
REMARK INTER:                  -8.584
REMARK INTRA:                  -1.682
REMARK UNBOUND:                -1.163
REMARK  Name = 
REMARK  8 active torsions:
REMARK  status: ('A' for Active; 'I' for Inactive)
REMARK    1  A    between atoms: C_1  and  C_2
REMARK    2  A    between atoms: C_2  and  N_3
REMARK    3  A    between atoms: C_2  and  C_25
REMARK    4  A    between atoms: N_3  and  C_4
REMARK    5  A    between atoms: C_4  and  C_5
REMARK    6  A    between atoms: C_8  and  C_9
REMARK    7  A    between atoms: C_9  and  N_10
REMARK    8  A    between atoms: C_11  and  C_13
REMARK                            x       y       z     vdW  Elec       q    Type
REMARK                         _______ _______ _______ _____ _____    ______ ____
ROOT
ATOM      1  C   UNL     1      51.377   7.082  17.197  0.00  0.00    +0.000 A 
ATOM      2  C   UNL     1      51.449   7.188  15.801  0.00  0.00    +0.000 A 
ATOM      3  C   UNL     1      50.476   7.892  15.086  0.00  0.00    +0.000 A 
ATOM      4  C   UNL     1      49.405   8.505  15.752  0.00  0.00    +0.000 A 
ATOM      5  C   UNL     1      49.322   8.385  17.144  0.00  0.00    +0.000 A 
ATOM      6  C   UNL     1      50.299   7.689  17.858  0.00  0.00    +0.000 A 
ENDROOT
BRANCH   1   7
ATOM      7  C   UNL     1      52.390   6.274  17.979  0.00  0.00    +0.000 C 
BRANCH   7   8
ATOM      8  N   UNL     1      52.562   4.921  17.443  0.00  0.00    +0.000 NA
ATOM      9  H   UNL     1      52.146   4.893  16.512  0.00  0.00    +0.000 HD
BRANCH   8  11
ATOM     10  C   UNL     1      52.769   2.672  18.544  0.00  0.00    +0.000 C 
ATOM     11  C   UNL     1      51.881   3.893  18.253  0.00  0.00    +0.000 C 
BRANCH  11  12
ATOM     12  C   UNL     1      50.601   3.416  17.577  0.00  0.00    +0.000 A 
ATOM     13  C   UNL     1      50.565   2.198  16.897  0.00  0.00    +0.000 A 
ATOM     14  N   UNL     1      49.436   1.692  16.342  0.00  0.00    +0.000 NA
ATOM     15  C   UNL     1      48.337   2.459  16.481  0.00  0.00    +0.000 A 
ATOM     16  C   UNL     1      48.362   3.683  17.129  0.00  0.00    +0.000 A 
ATOM     17  N   UNL     1      49.486   4.187  17.692  0.00  0.00    +0.000 NA
ENDBRANCH  11  12
ENDBRANCH   8  11
ENDBRANCH   7   8
ENDBRANCH   1   7
BRANCH   4  18
ATOM     18  C   UNL     1      48.328   9.235  14.993  0.00  0.00    +0.000 C 
BRANCH  18  19
ATOM     19  N   UNL     1      47.384   8.312  14.417  0.00  0.00    +0.000 N 
ATOM     20  C   UNL     1      47.144   8.285  13.069  0.00  0.00    +0.000 C 
ATOM     21  O   UNL     1      47.749   9.014  12.285  0.00  0.00    +0.000 OA
ATOM     22  H   UNL     1      46.712   7.892  15.052  0.00  0.00    +0.000 HD
BRANCH  20  23
ATOM     23  C   UNL     1      46.164   7.299  12.597  0.00  0.00    +0.000 A 
ATOM     24  C   UNL     1      45.064   7.720  11.862  0.00  0.00    +0.000 A 
ATOM     25  S   UNL     1      44.049   6.446  11.362  0.00  0.00    +0.000 S 
ATOM     26  C   UNL     1      45.019   5.290  12.150  0.00  0.00    +0.000 A 
ATOM     27  N   UNL     1      44.683   3.972  12.141  0.00  0.00    +0.000 NA
ATOM     28  C   UNL     1      45.495   3.210  12.791  0.00  0.00    +0.000 A 
ATOM     29  N   UNL     1      46.613   3.645  13.456  0.00  0.00    +0.000 N 
ATOM     30  C   UNL     1      47.008   4.962  13.469  0.00  0.00    +0.000 A 
ATOM     31  O   UNL     1      48.037   5.312  14.035  0.00  0.00    +0.000 OA
ATOM     32  C   UNL     1      46.117   5.865  12.764  0.00  0.00    +0.000 A 
ATOM     33  H   UNL     1      47.217   2.995  13.936  0.00  0.00    +0.000 HD
ENDBRANCH  20  23
ENDBRANCH  18  19
ENDBRANCH   4  18
TORSDOF 7
ENDMDL
