MODEL 1
REMARK VINA RESULT:    -8.178      0.000      0.000
REMARK INTER + INTRA:         -11.990
REMARK INTER:                 -11.285
REMARK INTRA:                  -0.705
REMARK UNBOUND:                -0.705
REMARK  Name = 
REMARK  8 active torsions:
REMARK  status: ('A' for Active; 'I' for Inactive)
REMARK    1  A    between atoms: C_1  and  C_2
REMARK    2  A    between atoms: C_2  and  C_3
REMARK    3  A    between atoms: C_2  and  C_15
REMARK    4  A    between atoms: C_3  and  O_4
REMARK    5  A    between atoms: O_4  and  C_5
REMARK    6  A    between atoms: C_8  and  C_9
REMARK    7  A    between atoms: C_19  and  C_20
REMARK    8  A    between atoms: C_20  and  N_21
REMARK                            x       y       z     vdW  Elec       q    Type
REMARK                         _______ _______ _______ _____ _____    ______ ____
ROOT
ATOM      1  C   UNL     1      43.655   4.944  10.282  0.00  0.00    +0.000 C 
ENDROOT
BRANCH   1   3
ATOM      2  C   UNL     1      42.813   4.913  12.673  0.00  0.00    +0.000 C 
ATOM      3  C   UNL     1      43.702   5.639  11.655  0.00  0.00    +0.000 C 
BRANCH   3   4
ATOM      4  C   UNL     1      45.162   5.770  12.068  0.00  0.00    +0.000 A 
ATOM      5  C   UNL     1      46.055   6.649  11.440  0.00  0.00    +0.000 A 
ATOM      6  C   UNL     1      47.347   6.828  11.938  0.00  0.00    +0.000 A 
ATOM      7  C   UNL     1      47.763   6.148  13.083  0.00  0.00    +0.000 A 
ATOM      8  C   UNL     1      46.892   5.269  13.736  0.00  0.00    +0.000 A 
ATOM      9  C   UNL     1      45.606   5.072  13.205  0.00  0.00    +0.000 A 
BRANCH   8  10
ATOM     10  C   UNL     1      47.312   4.553  14.994  0.00  0.00    +0.000 C 
BRANCH  10  11
ATOM     11  N   UNL     1      47.540   3.132  14.745  0.00  0.00    +0.000 NA
ATOM     12  H   UNL     1      47.704   2.668  15.638  0.00  0.00    +0.000 HD
ATOM     13  H   UNL     1      48.393   3.021  14.201  0.00  0.00    +0.000 HD
ENDBRANCH  10  11
ENDBRANCH   8  10
ENDBRANCH   3   4
ENDBRANCH   1   3
BRANCH   1  14
ATOM     14  O   UNL     1      44.110   3.588  10.369  0.00  0.00    +0.000 OA
BRANCH  14  15
ATOM     15  C   UNL     1      44.957   3.181   9.376  0.00  0.00    +0.000 A 
ATOM     16  C   UNL     1      45.483   4.174   8.557  0.00  0.00    +0.000 A 
ATOM     17  N   UNL     1      46.328   3.944   7.523  0.00  0.00    +0.000 NA
ATOM     18  C   UNL     1      46.677   2.639   7.284  0.00  0.00    +0.000 A 
ATOM     19  C   UNL     1      46.206   1.577   8.051  0.00  0.00    +0.000 A 
ATOM     20 CL   UNL     1      46.597  -0.083   7.805  0.00  0.00    +0.000 Cl
ATOM     21  C   UNL     1      45.337   1.867   9.109  0.00  0.00    +0.000 A 
BRANCH  18  22
ATOM     22  C   UNL     1      47.615   2.457   6.120  0.00  0.00    +0.000 C 
ATOM     23  N   UNL     1      47.399   3.306   5.065  0.00  0.00    +0.000 N 
ATOM     24  O   UNL     1      48.517   1.633   6.065  0.00  0.00    +0.000 OA
ATOM     25  H   UNL     1      46.655   3.993   5.113  0.00  0.00    +0.000 HD
ATOM     26  H   UNL     1      47.995   3.244   4.251  0.00  0.00    +0.000 HD
ENDBRANCH  18  22
ENDBRANCH  14  15
ENDBRANCH   1  14
TORSDOF 7
ENDMDL
MODEL 2
REMARK VINA RESULT:    -7.858      1.969      2.364
REMARK INTER + INTRA:         -11.549
REMARK INTER:                 -10.857
REMARK INTRA:                  -0.692
REMARK UNBOUND:                -0.705
REMARK  Name = 
REMARK  8 active torsions:
REMARK  status: ('A' for Active; 'I' for Inactive)
REMARK    1  A    between atoms: C_1  and  C_2
REMARK    2  A    between atoms: C_2  and  C_3
REMARK    3  A    between atoms: C_2  and  C_15
REMARK    4  A    between atoms: C_3  and  O_4
REMARK    5  A    between atoms: O_4  and  C_5
REMARK    6  A    between atoms: C_8  and  C_9
REMARK    7  A    between atoms: C_19  and  C_20
REMARK    8  A    between atoms: C_20  and  N_21
REMARK                            x       y       z     vdW  Elec       q    Type
REMARK                         _______ _______ _______ _____ _____    ______ ____
ROOT
ATOM      1  C   UNL     1      43.693   4.751  10.791  0.00  0.00    +0.000 C 
ENDROOT
BRANCH   1   3
ATOM      2  C   UNL     1      43.677   3.299  12.868  0.00  0.00    +0.000 C 
ATOM      3  C   UNL     1      43.738   4.734  12.330  0.00  0.00    +0.000 C 
BRANCH   3   4
ATOM      4  C   UNL     1      44.960   5.527  12.774  0.00  0.00    +0.000 A 
ATOM      5  C   UNL     1      46.136   4.918  13.234  0.00  0.00    +0.000 A 
ATOM      6  C   UNL     1      47.274   5.682  13.505  0.00  0.00    +0.000 A 
ATOM      7  C   UNL     1      47.263   7.062  13.302  0.00  0.00    +0.000 A 
ATOM      8  C   UNL     1      46.106   7.696  12.838  0.00  0.00    +0.000 A 
ATOM      9  C   UNL     1      44.958   6.922  12.601  0.00  0.00    +0.000 A 
BRANCH   8  10
ATOM     10  C   UNL     1      46.087   9.182  12.580  0.00  0.00    +0.000 C 
BRANCH  10  11
ATOM     11  N   UNL     1      44.730   9.716  12.656  0.00  0.00    +0.000 NA
ATOM     12  H   UNL     1      44.075   8.976  12.405  0.00  0.00    +0.000 HD
ATOM     13  H   UNL     1      44.619  10.448  11.959  0.00  0.00    +0.000 HD
ENDBRANCH  10  11
ENDBRANCH   8  10
ENDBRANCH   3   4
ENDBRANCH   1   3
BRANCH   1  14
ATOM     14  O   UNL     1      43.640   3.423  10.256  0.00  0.00    +0.000 OA
BRANCH  14  15
ATOM     15  C   UNL     1      44.561   3.136   9.286  0.00  0.00    +0.000 A 
ATOM     16  C   UNL     1      44.961   4.190   8.474  0.00  0.00    +0.000 A 
ATOM     17  N   UNL     1      45.857   4.079   7.462  0.00  0.00    +0.000 NA
ATOM     18  C   UNL     1      46.392   2.836   7.242  0.00  0.00    +0.000 A 
ATOM     19  C   UNL     1      46.058   1.720   8.004  0.00  0.00    +0.000 A 
ATOM     20 CL   UNL     1      46.685   0.132   7.780  0.00  0.00    +0.000 Cl
ATOM     21  C   UNL     1      45.130   1.888   9.039  0.00  0.00    +0.000 A 
BRANCH  18  22
ATOM     22  C   UNL     1      47.376   2.785   6.101  0.00  0.00    +0.000 C 
ATOM     23  N   UNL     1      48.686   2.640   6.475  0.00  0.00    +0.000 N 
ATOM     24  O   UNL     1      47.083   2.860   4.916  0.00  0.00    +0.000 OA
ATOM     25  H   UNL     1      48.929   2.573   7.457  0.00  0.00    +0.000 HD
ATOM     26  H   UNL     1      49.401   2.593   5.761  0.00  0.00    +0.000 HD
ENDBRANCH  18  22
ENDBRANCH  14  15
ENDBRANCH   1  14
TORSDOF 7
ENDMDL
MODEL 3
REMARK VINA RESULT:    -7.501      3.258      6.721
REMARK INTER + INTRA:         -11.056
REMARK INTER:                 -10.256
REMARK INTRA:                  -0.801
REMARK UNBOUND:                -0.705
REMARK  Name = 
REMARK  8 active torsions:
REMARK  status: ('A' for Active; 'I' for Inactive)
REMARK    1  A    between atoms: C_1  and  C_2
REMARK    2  A    between atoms: C_2  and  C_3
REMARK    3  A    between atoms: C_2  and  C_15
REMARK    4  A    between atoms: C_3  and  O_4
REMARK    5  A    between atoms: O_4  and  C_5
REMARK    6  A    between atoms: C_8  and  C_9
REMARK    7  A    between atoms: C_19  and  C_20
REMARK    8  A    between atoms: C_20  and  N_21
REMARK                            x       y       z     vdW  Elec       q    Type
REMARK                         _______ _______ _______ _____ _____    ______ ____
ROOT
ATOM      1  C   UNL     1      45.110   2.974  12.172  0.00  0.00    +0.000 C 
ENDROOT
BRANCH   1   3
ATOM      2  C   UNL     1      43.046   4.166  11.310  0.00  0.00    +0.000 C 
ATOM      3  C   UNL     1      44.082   3.070  11.030  0.00  0.00    +0.000 C 
BRANCH   3   4
ATOM      4  C   UNL     1      44.845   3.239   9.722  0.00  0.00    +0.000 A 
ATOM      5  C   UNL     1      45.117   4.492   9.156  0.00  0.00    +0.000 A 
ATOM      6  C   UNL     1      45.932   4.601   8.027  0.00  0.00    +0.000 A 
ATOM      7  C   UNL     1      46.505   3.464   7.458  0.00  0.00    +0.000 A 
ATOM      8  C   UNL     1      46.256   2.201   8.003  0.00  0.00    +0.000 A 
ATOM      9  C   UNL     1      45.408   2.100   9.119  0.00  0.00    +0.000 A 
BRANCH   8  10
ATOM     10  C   UNL     1      46.895   0.965   7.422  0.00  0.00    +0.000 C 
BRANCH  10  11
ATOM     11  N   UNL     1      48.019   1.307   6.555  0.00  0.00    +0.000 NA
ATOM     12  H   UNL     1      47.703   1.988   5.866  0.00  0.00    +0.000 HD
ATOM     13  H   UNL     1      48.303   0.480   6.034  0.00  0.00    +0.000 HD
ENDBRANCH  10  11
ENDBRANCH   8  10
ENDBRANCH   3   4
ENDBRANCH   1   3
BRANCH   1  14
ATOM     14  O   UNL     1      44.868   3.967  13.176  0.00  0.00    +0.000 OA
BRANCH  14  15
ATOM     15  C   UNL     1      45.887   4.853  13.393  0.00  0.00    +0.000 A 
ATOM     16  C   UNL     1      46.799   4.526  14.388  0.00  0.00    +0.000 A 
ATOM     17  N   UNL     1      47.860   5.294  14.737  0.00  0.00    +0.000 NA
ATOM     18  C   UNL     1      48.028   6.468  14.049  0.00  0.00    +0.000 A 
ATOM     19  C   UNL     1      47.170   6.881  13.032  0.00  0.00    +0.000 A 
ATOM     20 CL   UNL     1      47.317   8.342  12.133  0.00  0.00    +0.000 Cl
ATOM     21  C   UNL     1      46.091   6.051  12.709  0.00  0.00    +0.000 A 
BRANCH  18  22
ATOM     22  C   UNL     1      49.223   7.273  14.489  0.00  0.00    +0.000 C 
ATOM     23  N   UNL     1      50.244   7.338  13.577  0.00  0.00    +0.000 N 
ATOM     24  O   UNL     1      49.328   7.846  15.565  0.00  0.00    +0.000 OA
ATOM     25  H   UNL     1      50.155   6.867  12.683  0.00  0.00    +0.000 HD
ATOM     26  H   UNL     1      51.076   7.866  13.804  0.00  0.00    +0.000 HD
ENDBRANCH  18  22
ENDBRANCH  14  15
ENDBRANCH   1  14
TORSDOF 7
ENDMDL
MODEL 4
REMARK VINA RESULT:    -6.910      3.421      7.236
REMARK INTER + INTRA:         -10.241
REMARK INTER:                  -9.718
REMARK INTRA:                  -0.523
REMARK UNBOUND:                -0.705
REMARK  Name = 
REMARK  8 active torsions:
REMARK  status: ('A' for Active; 'I' for Inactive)
REMARK    1  A    between atoms: C_1  and  C_2
REMARK    2  A    between atoms: C_2  and  C_3
REMARK    3  A    between atoms: C_2  and  C_15
REMARK    4  A    between atoms: C_3  and  O_4
REMARK    5  A    between atoms: O_4  and  C_5
REMARK    6  A    between atoms: C_8  and  C_9
REMARK    7  A    between atoms: C_19  and  C_20
REMARK    8  A    between atoms: C_20  and  N_21
REMARK                            x       y       z     vdW  Elec       q    Type
REMARK                         _______ _______ _______ _____ _____    ______ ____
ROOT
ATOM      1  C   UNL     1      45.384   3.262  12.188  0.00  0.00    +0.000 C 
ENDROOT
BRANCH   1   3
ATOM      2  C   UNL     1      43.181   4.193  11.349  0.00  0.00    +0.000 C 
ATOM      3  C   UNL     1      44.304   3.181  11.093  0.00  0.00    +0.000 C 
BRANCH   3   4
ATOM      4  C   UNL     1      44.991   3.325   9.741  0.00  0.00    +0.000 A 
ATOM      5  C   UNL     1      45.239   4.567   9.142  0.00  0.00    +0.000 A 
ATOM      6  C   UNL     1      45.988   4.654   7.967  0.00  0.00    +0.000 A 
ATOM      7  C   UNL     1      46.519   3.505   7.381  0.00  0.00    +0.000 A 
ATOM      8  C   UNL     1      46.293   2.251   7.959  0.00  0.00    +0.000 A 
ATOM      9  C   UNL     1      45.510   2.173   9.123  0.00  0.00    +0.000 A 
BRANCH   8  10
ATOM     10  C   UNL     1      46.888   1.002   7.359  0.00  0.00    +0.000 C 
BRANCH  10  11
ATOM     11  N   UNL     1      48.103   1.302   6.608  0.00  0.00    +0.000 NA
ATOM     12  H   UNL     1      48.449   0.438   6.191  0.00  0.00    +0.000 HD
ATOM     13  H   UNL     1      48.824   1.620   7.252  0.00  0.00    +0.000 HD
ENDBRANCH  10  11
ENDBRANCH   8  10
ENDBRANCH   3   4
ENDBRANCH   1   3
BRANCH   1  14
ATOM     14  O   UNL     1      45.715   4.623  12.493  0.00  0.00    +0.000 OA
BRANCH  14  15
ATOM     15  C   UNL     1      46.510   4.808  13.590  0.00  0.00    +0.000 A 
ATOM     16  C   UNL     1      47.449   5.829  13.515  0.00  0.00    +0.000 A 
ATOM     17  N   UNL     1      48.320   6.143  14.506  0.00  0.00    +0.000 NA
ATOM     18  C   UNL     1      48.253   5.391  15.651  0.00  0.00    +0.000 A 
ATOM     19  C   UNL     1      47.343   4.351  15.822  0.00  0.00    +0.000 A 
ATOM     20 CL   UNL     1      47.208   3.364  17.228  0.00  0.00    +0.000 Cl
ATOM     21  C   UNL     1      46.465   4.069  14.770  0.00  0.00    +0.000 A 
BRANCH  18  22
ATOM     22  C   UNL     1      49.250   5.790  16.707  0.00  0.00    +0.000 C 
ATOM     23  N   UNL     1      48.707   6.372  17.824  0.00  0.00    +0.000 N 
ATOM     24  O   UNL     1      50.460   5.632  16.629  0.00  0.00    +0.000 OA
ATOM     25  H   UNL     1      47.703   6.499  17.891  0.00  0.00    +0.000 HD
ATOM     26  H   UNL     1      49.317   6.660  18.576  0.00  0.00    +0.000 HD
ENDBRANCH  18  22
ENDBRANCH  14  15
ENDBRANCH   1  14
TORSDOF 7
ENDMDL
MODEL 5
REMARK VINA RESULT:    -6.224      4.091      6.611
REMARK INTER + INTRA:          -9.294
REMARK INTER:                  -8.761
REMARK INTRA:                  -0.532
REMARK UNBOUND:                -0.705
REMARK  Name = 
REMARK  8 active torsions:
REMARK  status: ('A' for Active; 'I' for Inactive)
REMARK    1  A    between atoms: C_1  and  C_2
REMARK    2  A    between atoms: C_2  and  C_3
REMARK    3  A    between atoms: C_2  and  C_15
REMARK    4  A    between atoms: C_3  and  O_4
REMARK    5  A    between atoms: O_4  and  C_5
REMARK    6  A    between atoms: C_8  and  C_9
REMARK    7  A    between atoms: C_19  and  C_20
REMARK    8  A    between atoms: C_20  and  N_21
REMARK                            x       y       z     vdW  Elec       q    Type
REMARK                         _______ _______ _______ _____ _____    ______ ____
ROOT
ATOM      1  C   UNL     1      47.728   4.624  16.182  0.00  0.00    +0.000 C 
ENDROOT
BRANCH   1   3
ATOM      2  C   UNL     1      47.624   5.429  18.583  0.00  0.00    +0.000 C 
ATOM      3  C   UNL     1      48.457   5.398  17.296  0.00  0.00    +0.000 C 
BRANCH   3   4
ATOM      4  C   UNL     1      49.848   4.797  17.455  0.00  0.00    +0.000 A 
ATOM      5  C   UNL     1      50.957   5.546  17.873  0.00  0.00    +0.000 A 
ATOM      6  C   UNL     1      52.180   4.922  18.130  0.00  0.00    +0.000 A 
ATOM      7  C   UNL     1      52.310   3.540  17.995  0.00  0.00    +0.000 A 
ATOM      8  C   UNL     1      51.220   2.766  17.586  0.00  0.00    +0.000 A 
ATOM      9  C   UNL     1      50.004   3.409  17.298  0.00  0.00    +0.000 A 
BRANCH   8  10
ATOM     10  C   UNL     1      51.333   1.267  17.468  0.00  0.00    +0.000 C 
BRANCH  10  11
ATOM     11  N   UNL     1      52.451   0.757  18.256  0.00  0.00    +0.000 NA
ATOM     12  H   UNL     1      52.240  -0.200  18.538  0.00  0.00    +0.000 HD
ATOM     13  H   UNL     1      52.532   1.300  19.113  0.00  0.00    +0.000 HD
ENDBRANCH  10  11
ENDBRANCH   8  10
ENDBRANCH   3   4
ENDBRANCH   1   3
BRANCH   1  14
ATOM     14  O   UNL     1      47.775   5.333  14.938  0.00  0.00    +0.000 OA
BRANCH  14  15
ATOM     15  C   UNL     1      46.866   4.938  13.996  0.00  0.00    +0.000 A 
ATOM     16  C   UNL     1      46.732   3.570  13.791  0.00  0.00    +0.000 A 
ATOM     17  N   UNL     1      45.886   3.011  12.892  0.00  0.00    +0.000 NA
ATOM     18  C   UNL     1      45.118   3.867  12.145  0.00  0.00    +0.000 A 
ATOM     19  C   UNL     1      45.178   5.252  12.281  0.00  0.00    +0.000 A 
ATOM     20 CL   UNL     1      44.250   6.386  11.375  0.00  0.00    +0.000 Cl
ATOM     21  C   UNL     1      46.066   5.780  13.225  0.00  0.00    +0.000 A 
BRANCH  18  22
ATOM     22  C   UNL     1      44.205   3.179  11.165  0.00  0.00    +0.000 C 
ATOM     23  N   UNL     1      44.842   2.503  10.157  0.00  0.00    +0.000 N 
ATOM     24  O   UNL     1      42.982   3.188  11.216  0.00  0.00    +0.000 OA
ATOM     25  H   UNL     1      45.856   2.492  10.117  0.00  0.00    +0.000 HD
ATOM     26  H   UNL     1      44.292   2.013   9.466  0.00  0.00    +0.000 HD
ENDBRANCH  18  22
ENDBRANCH  14  15
ENDBRANCH   1  14
TORSDOF 7
ENDMDL
MODEL 6
REMARK VINA RESULT:    -6.080      3.660      7.628
REMARK INTER + INTRA:          -9.096
REMARK INTER:                  -8.485
REMARK INTRA:                  -0.610
REMARK UNBOUND:                -0.705
REMARK  Name = 
REMARK  8 active torsions:
REMARK  status: ('A' for Active; 'I' for Inactive)
REMARK    1  A    between atoms: C_1  and  C_2
REMARK    2  A    between atoms: C_2  and  C_3
REMARK    3  A    between atoms: C_2  and  C_15
REMARK    4  A    between atoms: C_3  and  O_4
REMARK    5  A    between atoms: O_4  and  C_5
REMARK    6  A    between atoms: C_8  and  C_9
REMARK    7  A    between atoms: C_19  and  C_20
REMARK    8  A    between atoms: C_20  and  N_21
REMARK                            x       y       z     vdW  Elec       q    Type
REMARK                         _______ _______ _______ _____ _____    ______ ____
ROOT
ATOM      1  C   UNL     1      45.171   5.731  13.003  0.00  0.00    +0.000 C 
ENDROOT
BRANCH   1   3
ATOM      2  C   UNL     1      45.433   7.161  10.928  0.00  0.00    +0.000 C 
ATOM      3  C   UNL     1      44.660   6.008  11.577  0.00  0.00    +0.000 C 
BRANCH   3   4
ATOM      4  C   UNL     1      44.702   4.699  10.799  0.00  0.00    +0.000 A 
ATOM      5  C   UNL     1      44.074   3.527  11.246  0.00  0.00    +0.000 A 
ATOM      6  C   UNL     1      44.030   2.391  10.436  0.00  0.00    +0.000 A 
ATOM      7  C   UNL     1      44.593   2.410   9.160  0.00  0.00    +0.000 A 
ATOM      8  C   UNL     1      45.221   3.566   8.685  0.00  0.00    +0.000 A 
ATOM      9  C   UNL     1      45.289   4.692   9.521  0.00  0.00    +0.000 A 
BRANCH   8  10
ATOM     10  C   UNL     1      45.805   3.616   7.295  0.00  0.00    +0.000 C 
BRANCH  10  11
ATOM     11  N   UNL     1      46.998   4.455   7.252  0.00  0.00    +0.000 NA
ATOM     12  H   UNL     1      47.522   4.320   8.115  0.00  0.00    +0.000 HD
ATOM     13  H   UNL     1      46.719   5.434   7.234  0.00  0.00    +0.000 HD
ENDBRANCH  10  11
ENDBRANCH   8  10
ENDBRANCH   3   4
ENDBRANCH   1   3
BRANCH   1  14
ATOM     14  O   UNL     1      46.513   5.229  12.988  0.00  0.00    +0.000 OA
BRANCH  14  15
ATOM     15  C   UNL     1      47.134   5.156  14.204  0.00  0.00    +0.000 A 
ATOM     16  C   UNL     1      48.070   6.143  14.488  0.00  0.00    +0.000 A 
ATOM     17  N   UNL     1      48.780   6.215  15.640  0.00  0.00    +0.000 NA
ATOM     18  C   UNL     1      48.545   5.240  16.576  0.00  0.00    +0.000 A 
ATOM     19  C   UNL     1      47.625   4.213  16.385  0.00  0.00    +0.000 A 
ATOM     20 CL   UNL     1      47.284   2.955  17.511  0.00  0.00    +0.000 Cl
ATOM     21  C   UNL     1      46.915   4.185  15.179  0.00  0.00    +0.000 A 
BRANCH  18  22
ATOM     22  C   UNL     1      49.371   5.379  17.828  0.00  0.00    +0.000 C 
ATOM     23  N   UNL     1      48.702   5.896  18.907  0.00  0.00    +0.000 N 
ATOM     24  O   UNL     1      50.550   5.070  17.932  0.00  0.00    +0.000 OA
ATOM     25  H   UNL     1      47.723   6.147  18.823  0.00  0.00    +0.000 HD
ATOM     26  H   UNL     1      49.192   6.012  19.783  0.00  0.00    +0.000 HD
ENDBRANCH  18  22
ENDBRANCH  14  15
ENDBRANCH   1  14
TORSDOF 7
ENDMDL
MODEL 7
REMARK VINA RESULT:    -6.079      4.622      6.706
REMARK INTER + INTRA:          -9.094
REMARK INTER:                  -8.298
REMARK INTRA:                  -0.797
REMARK UNBOUND:                -0.705
REMARK  Name = 
REMARK  8 active torsions:
REMARK  status: ('A' for Active; 'I' for Inactive)
REMARK    1  A    between atoms: C_1  and  C_2
REMARK    2  A    between atoms: C_2  and  C_3
REMARK    3  A    between atoms: C_2  and  C_15
REMARK    4  A    between atoms: C_3  and  O_4
REMARK    5  A    between atoms: O_4  and  C_5
REMARK    6  A    between atoms: C_8  and  C_9
REMARK    7  A    between atoms: C_19  and  C_20
REMARK    8  A    between atoms: C_20  and  N_21
REMARK                            x       y       z     vdW  Elec       q    Type
REMARK                         _______ _______ _______ _____ _____    ______ ____
ROOT
ATOM      1  C   UNL     1      48.963   7.330  14.519  0.00  0.00    +0.000 C 
ENDROOT
BRANCH   1   3
ATOM      2  C   UNL     1      50.804   8.375  15.914  0.00  0.00    +0.000 C 
ATOM      3  C   UNL     1      49.984   7.106  15.651  0.00  0.00    +0.000 C 
BRANCH   3   4
ATOM      4  C   UNL     1      49.233   6.573  16.864  0.00  0.00    +0.000 A 
ATOM      5  C   UNL     1      48.616   7.409  17.805  0.00  0.00    +0.000 A 
ATOM      6  C   UNL     1      47.829   6.873  18.826  0.00  0.00    +0.000 A 
ATOM      7  C   UNL     1      47.628   5.495  18.913  0.00  0.00    +0.000 A 
ATOM      8  C   UNL     1      48.226   4.636  17.986  0.00  0.00    +0.000 A 
ATOM      9  C   UNL     1      49.043   5.185  16.983  0.00  0.00    +0.000 A 
BRANCH   8  10
ATOM     10  C   UNL     1      47.992   3.147  18.043  0.00  0.00    +0.000 C 
BRANCH  10  11
ATOM     11  N   UNL     1      46.630   2.809  17.640  0.00  0.00    +0.000 NA
ATOM     12  H   UNL     1      45.995   3.511  18.019  0.00  0.00    +0.000 HD
ATOM     13  H   UNL     1      46.366   1.922  18.064  0.00  0.00    +0.000 HD
ENDBRANCH  10  11
ENDBRANCH   8  10
ENDBRANCH   3   4
ENDBRANCH   1   3
BRANCH   1  14
ATOM     14  O   UNL     1      48.787   6.144  13.735  0.00  0.00    +0.000 OA
BRANCH  14  15
ATOM     15  C   UNL     1      47.492   5.811  13.447  0.00  0.00    +0.000 A 
ATOM     16  C   UNL     1      47.017   4.623  13.989  0.00  0.00    +0.000 A 
ATOM     17  N   UNL     1      45.764   4.141  13.796  0.00  0.00    +0.000 NA
ATOM     18  C   UNL     1      44.925   4.890  13.012  0.00  0.00    +0.000 A 
ATOM     19  C   UNL     1      45.308   6.096  12.429  0.00  0.00    +0.000 A 
ATOM     20 CL   UNL     1      44.311   7.084  11.430  0.00  0.00    +0.000 Cl
ATOM     21  C   UNL     1      46.611   6.551  12.660  0.00  0.00    +0.000 A 
BRANCH  18  22
ATOM     22  C   UNL     1      43.552   4.295  12.838  0.00  0.00    +0.000 C 
ATOM     23  N   UNL     1      43.509   3.153  12.081  0.00  0.00    +0.000 N 
ATOM     24  O   UNL     1      42.521   4.752  13.312  0.00  0.00    +0.000 OA
ATOM     25  H   UNL     1      44.365   2.771  11.692  0.00  0.00    +0.000 HD
ATOM     26  H   UNL     1      42.622   2.696  11.926  0.00  0.00    +0.000 HD
ENDBRANCH  18  22
ENDBRANCH  14  15
ENDBRANCH   1  14
TORSDOF 7
ENDMDL
MODEL 8
REMARK VINA RESULT:    -6.031      4.934      8.121
REMARK INTER + INTRA:          -9.027
REMARK INTER:                  -8.464
REMARK INTRA:                  -0.564
REMARK UNBOUND:                -0.705
REMARK  Name = 
REMARK  8 active torsions:
REMARK  status: ('A' for Active; 'I' for Inactive)
REMARK    1  A    between atoms: C_1  and  C_2
REMARK    2  A    between atoms: C_2  and  C_3
REMARK    3  A    between atoms: C_2  and  C_15
REMARK    4  A    between atoms: C_3  and  O_4
REMARK    5  A    between atoms: O_4  and  C_5
REMARK    6  A    between atoms: C_8  and  C_9
REMARK    7  A    between atoms: C_19  and  C_20
REMARK    8  A    between atoms: C_20  and  N_21
REMARK                            x       y       z     vdW  Elec       q    Type
REMARK                         _______ _______ _______ _____ _____    ______ ____
ROOT
ATOM      1  C   UNL     1      46.962   4.199  14.838  0.00  0.00    +0.000 C 
ENDROOT
BRANCH   1   3
ATOM      2  C   UNL     1      48.287   6.241  14.133  0.00  0.00    +0.000 C 
ATOM      3  C   UNL     1      46.896   5.599  14.200  0.00  0.00    +0.000 C 
BRANCH   3   4
ATOM      4  C   UNL     1      46.191   5.472  12.856  0.00  0.00    +0.000 A 
ATOM      5  C   UNL     1      46.258   6.460  11.865  0.00  0.00    +0.000 A 
ATOM      6  C   UNL     1      45.705   6.241  10.601  0.00  0.00    +0.000 A 
ATOM      7  C   UNL     1      45.094   5.023  10.300  0.00  0.00    +0.000 A 
ATOM      8  C   UNL     1      45.017   4.015  11.267  0.00  0.00    +0.000 A 
ATOM      9  C   UNL     1      45.548   4.261  12.544  0.00  0.00    +0.000 A 
BRANCH   8  10
ATOM     10  C   UNL     1      44.392   2.681  10.948  0.00  0.00    +0.000 C 
BRANCH  10  11
ATOM     11  N   UNL     1      43.226   2.427  11.789  0.00  0.00    +0.000 NA
ATOM     12  H   UNL     1      42.571   3.200  11.678  0.00  0.00    +0.000 HD
ATOM     13  H   UNL     1      43.512   2.430  12.766  0.00  0.00    +0.000 HD
ENDBRANCH  10  11
ENDBRANCH   8  10
ENDBRANCH   3   4
ENDBRANCH   1   3
BRANCH   1  14
ATOM     14  O   UNL     1      47.239   4.278  16.241  0.00  0.00    +0.000 OA
BRANCH  14  15
ATOM     15  C   UNL     1      48.408   3.696  16.649  0.00  0.00    +0.000 A 
ATOM     16  C   UNL     1      48.623   2.381  16.253  0.00  0.00    +0.000 A 
ATOM     17  N   UNL     1      49.721   1.655  16.576  0.00  0.00    +0.000 NA
ATOM     18  C   UNL     1      50.672   2.276  17.345  0.00  0.00    +0.000 A 
ATOM     19  C   UNL     1      50.549   3.590  17.787  0.00  0.00    +0.000 A 
ATOM     20 CL   UNL     1      51.698   4.429  18.758  0.00  0.00    +0.000 Cl
ATOM     21  C   UNL     1      49.397   4.298  17.424  0.00  0.00    +0.000 A 
BRANCH  18  22
ATOM     22  C   UNL     1      51.861   1.410  17.668  0.00  0.00    +0.000 C 
ATOM     23  N   UNL     1      51.555   0.167  18.160  0.00  0.00    +0.000 N 
ATOM     24  O   UNL     1      53.031   1.738  17.524  0.00  0.00    +0.000 OA
ATOM     25  H   UNL     1      50.586  -0.107  18.275  0.00  0.00    +0.000 HD
ATOM     26  H   UNL     1      52.304  -0.469  18.394  0.00  0.00    +0.000 HD
ENDBRANCH  18  22
ENDBRANCH  14  15
ENDBRANCH   1  14
TORSDOF 7
ENDMDL
MODEL 9
REMARK VINA RESULT:    -5.852      4.608      8.489
REMARK INTER + INTRA:          -8.780
REMARK INTER:                  -8.164
REMARK INTRA:                  -0.616
REMARK UNBOUND:                -0.705
REMARK  Name = 
REMARK  8 active torsions:
REMARK  status: ('A' for Active; 'I' for Inactive)
REMARK    1  A    between atoms: C_1  and  C_2
REMARK    2  A    between atoms: C_2  and  C_3
REMARK    3  A    between atoms: C_2  and  C_15
REMARK    4  A    between atoms: C_3  and  O_4
REMARK    5  A    between atoms: O_4  and  C_5
REMARK    6  A    between atoms: C_8  and  C_9
REMARK    7  A    between atoms: C_19  and  C_20
REMARK    8  A    between atoms: C_20  and  N_21
REMARK                            x       y       z     vdW  Elec       q    Type
REMARK                         _______ _______ _______ _____ _____    ______ ____
ROOT
ATOM      1  C   UNL     1      46.892   3.993  14.143  0.00  0.00    +0.000 C 
ENDROOT
BRANCH   1   3
ATOM      2  C   UNL     1      47.537   6.099  12.888  0.00  0.00    +0.000 C 
ATOM      3  C   UNL     1      46.400   5.343  13.588  0.00  0.00    +0.000 C 
BRANCH   3   4
ATOM      4  C   UNL     1      45.183   5.076  12.712  0.00  0.00    +0.000 A 
ATOM      5  C   UNL     1      43.890   5.492  13.059  0.00  0.00    +0.000 A 
ATOM      6  C   UNL     1      42.829   5.341  12.164  0.00  0.00    +0.000 A 
ATOM      7  C   UNL     1      43.045   4.790  10.900  0.00  0.00    +0.000 A 
ATOM      8  C   UNL     1      44.324   4.371  10.523  0.00  0.00    +0.000 A 
ATOM      9  C   UNL     1      45.377   4.499  11.445  0.00  0.00    +0.000 A 
BRANCH   8  10
ATOM     10  C   UNL     1      44.583   3.807   9.149  0.00  0.00    +0.000 C 
BRANCH  10  11
ATOM     11  N   UNL     1      45.367   4.731   8.335  0.00  0.00    +0.000 NA
ATOM     12  H   UNL     1      45.968   4.188   7.716  0.00  0.00    +0.000 HD
ATOM     13  H   UNL     1      45.985   5.267   8.940  0.00  0.00    +0.000 HD
ENDBRANCH  10  11
ENDBRANCH   8  10
ENDBRANCH   3   4
ENDBRANCH   1   3
BRANCH   1  14
ATOM     14  O   UNL     1      46.703   3.914  15.561  0.00  0.00    +0.000 OA
BRANCH  14  15
ATOM     15  C   UNL     1      47.825   4.100  16.321  0.00  0.00    +0.000 A 
ATOM     16  C   UNL     1      48.438   2.958  16.821  0.00  0.00    +0.000 A 
ATOM     17  N   UNL     1      49.550   2.963  17.596  0.00  0.00    +0.000 NA
ATOM     18  C   UNL     1      50.091   4.187  17.896  0.00  0.00    +0.000 A 
ATOM     19  C   UNL     1      49.552   5.387  17.438  0.00  0.00    +0.000 A 
ATOM     20 CL   UNL     1      50.174   6.956  17.779  0.00  0.00    +0.000 Cl
ATOM     21  C   UNL     1      48.405   5.327  16.639  0.00  0.00    +0.000 A 
BRANCH  18  22
ATOM     22  C   UNL     1      51.321   4.119  18.763  0.00  0.00    +0.000 C 
ATOM     23  N   UNL     1      51.114   4.420  20.084  0.00  0.00    +0.000 N 
ATOM     24  O   UNL     1      52.443   3.824  18.372  0.00  0.00    +0.000 OA
ATOM     25  H   UNL     1      50.184   4.660  20.409  0.00  0.00    +0.000 HD
ATOM     26  H   UNL     1      51.895   4.390  20.726  0.00  0.00    +0.000 HD
ENDBRANCH  18  22
ENDBRANCH  14  15
ENDBRANCH   1  14
TORSDOF 7
ENDMDL
