MODEL 1
REMARK VINA RESULT:    -7.530      0.000      0.000
REMARK INTER + INTRA:         -10.316
REMARK INTER:                  -9.731
REMARK INTRA:                  -0.585
REMARK UNBOUND:                -0.585
REMARK  Name = 
REMARK  5 active torsions:
REMARK  status: ('A' for Active; 'I' for Inactive)
REMARK    1  A    between atoms: C_2  and  C_4
REMARK    2  A    between atoms: C_8  and  S_9
REMARK    3  A    between atoms: S_9  and  C_10
REMARK    4  A    between atoms: C_10  and  C_11
REMARK    5  A    between atoms: C_16  and  N_17
REMARK                            x       y       z     vdW  Elec       q    Type
REMARK                         _______ _______ _______ _____ _____    ______ ____
ROOT
ATOM      1  C   UNL     1      44.800   4.786  12.484  0.00  0.00    +0.000 A 
ATOM      2  C   UNL     1      45.660   3.937  13.188  0.00  0.00    +0.000 A 
ATOM      3  C   UNL     1      46.864   4.424  13.701  0.00  0.00    +0.000 A 
ATOM      4  C   UNL     1      47.219   5.760  13.504  0.00  0.00    +0.000 A 
ATOM      5  F   UNL     1      48.423   6.166  13.940  0.00  0.00    +0.000 F 
ATOM      6  C   UNL     1      46.379   6.653  12.817  0.00  0.00    +0.000 A 
ATOM      7  C   UNL     1      45.152   6.144  12.375  0.00  0.00    +0.000 A 
ENDROOT
BRANCH   6   8
ATOM      8  N   UNL     1      46.783   7.943  12.494  0.00  0.00    +0.000 N 
ATOM      9  C   UNL     1      48.093   8.123  11.845  0.00  0.00    +0.000 C 
ATOM     10  C   UNL     1      48.577   9.572  12.059  0.00  0.00    +0.000 C 
ATOM     11  N   UNL     1      47.614  10.586  11.578  0.00  0.00    +0.000 NA
ATOM     12  C   UNL     1      46.291  10.333  12.203  0.00  0.00    +0.000 C 
ATOM     13  C   UNL     1      45.765   8.887  12.009  0.00  0.00    +0.000 C 
ATOM     14  H   UNL     1      47.513  10.468  10.572  0.00  0.00    +0.000 HD
ENDBRANCH   6   8
BRANCH   1  15
ATOM     15  C   UNL     1      43.515   4.253  11.877  0.00  0.00    +0.000 C 
BRANCH  15  16
ATOM     16  S   UNL     1      43.764   2.691  10.945  0.00  0.00    +0.000 S 
BRANCH  16  21
ATOM     17  C   UNL     1      46.367   2.245   7.906  0.00  0.00    +0.000 A 
ATOM     18  C   UNL     1      46.553   3.539   7.412  0.00  0.00    +0.000 A 
ATOM     19  C   UNL     1      45.911   4.615   8.024  0.00  0.00    +0.000 A 
ATOM     20  C   UNL     1      45.070   4.402   9.122  0.00  0.00    +0.000 A 
ATOM     21  C   UNL     1      44.852   3.111   9.603  0.00  0.00    +0.000 A 
ATOM     22  C   UNL     1      45.516   2.039   8.994  0.00  0.00    +0.000 A 
BRANCH  17  24
ATOM     23  N   UNL     1      46.615  -0.165   7.707  0.00  0.00    +0.000 N 
ATOM     24  C   UNL     1      47.031   1.068   7.287  0.00  0.00    +0.000 C 
ATOM     25  O   UNL     1      47.881   1.193   6.415  0.00  0.00    +0.000 OA
ATOM     26  H   UNL     1      46.999  -0.958   7.207  0.00  0.00    +0.000 HD
ATOM     27  H   UNL     1      45.750  -0.301   8.208  0.00  0.00    +0.000 HD
ENDBRANCH  17  24
ENDBRANCH  16  21
ENDBRANCH  15  16
ENDBRANCH   1  15
TORSDOF 5
ENDMDL
MODEL 2
REMARK VINA RESULT:    -7.097      2.340      3.757
REMARK INTER + INTRA:          -9.756
REMARK INTER:                  -9.459
REMARK INTRA:                  -0.298
REMARK UNBOUND:                -0.585
REMARK  Name = 
REMARK  5 active torsions:
REMARK  status: ('A' for Active; 'I' for Inactive)
REMARK    1  A    between atoms: C_2  and  C_4
REMARK    2  A    between atoms: C_8  and  S_9
REMARK    3  A    between atoms: S_9  and  C_10
REMARK    4  A    between atoms: C_10  and  C_11
REMARK    5  A    between atoms: C_16  and  N_17
REMARK                            x       y       z     vdW  Elec       q    Type
REMARK                         _______ _______ _______ _____ _____    ______ ____
ROOT
ATOM      1  C   UNL     1      45.256   5.198  12.563  0.00  0.00    +0.000 A 
ATOM      2  C   UNL     1      45.855   6.213  11.810  0.00  0.00    +0.000 A 
ATOM      3  C   UNL     1      47.114   6.703  12.168  0.00  0.00    +0.000 A 
ATOM      4  C   UNL     1      47.773   6.188  13.286  0.00  0.00    +0.000 A 
ATOM      5  F   UNL     1      48.942   6.745  13.643  0.00  0.00    +0.000 F 
ATOM      6  C   UNL     1      47.216   5.157  14.062  0.00  0.00    +0.000 A 
ATOM      7  C   UNL     1      45.984   4.648  13.633  0.00  0.00    +0.000 A 
ENDROOT
BRANCH   6   8
ATOM      8  N   UNL     1      47.797   4.736  15.252  0.00  0.00    +0.000 N 
ATOM      9  C   UNL     1      48.208   5.759  16.229  0.00  0.00    +0.000 C 
ATOM     10  C   UNL     1      49.269   5.164  17.177  0.00  0.00    +0.000 C 
ATOM     11  N   UNL     1      48.814   3.938  17.867  0.00  0.00    +0.000 NA
ATOM     12  C   UNL     1      48.347   2.957  16.856  0.00  0.00    +0.000 C 
ATOM     13  C   UNL     1      47.276   3.513  15.881  0.00  0.00    +0.000 C 
ATOM     14  H   UNL     1      48.020   4.186  18.454  0.00  0.00    +0.000 HD
ENDBRANCH   6   8
BRANCH   1  15
ATOM     15  C   UNL     1      43.866   4.697  12.213  0.00  0.00    +0.000 C 
BRANCH  15  16
ATOM     16  S   UNL     1      43.888   3.060  11.384  0.00  0.00    +0.000 S 
BRANCH  16  21
ATOM     17  C   UNL     1      46.159   2.232   8.164  0.00  0.00    +0.000 A 
ATOM     18  C   UNL     1      46.248   3.446   7.477  0.00  0.00    +0.000 A 
ATOM     19  C   UNL     1      45.642   4.587   8.002  0.00  0.00    +0.000 A 
ATOM     20  C   UNL     1      44.932   4.517   9.206  0.00  0.00    +0.000 A 
ATOM     21  C   UNL     1      44.810   3.304   9.883  0.00  0.00    +0.000 A 
ATOM     22  C   UNL     1      45.437   2.168   9.358  0.00  0.00    +0.000 A 
BRANCH  17  24
ATOM     23  N   UNL     1      47.778   1.146   6.712  0.00  0.00    +0.000 N 
ATOM     24  C   UNL     1      46.788   0.991   7.643  0.00  0.00    +0.000 C 
ATOM     25  O   UNL     1      46.465  -0.116   8.054  0.00  0.00    +0.000 OA
ATOM     26  H   UNL     1      48.268   0.302   6.440  0.00  0.00    +0.000 HD
ATOM     27  H   UNL     1      48.242   2.028   6.560  0.00  0.00    +0.000 HD
ENDBRANCH  17  24
ENDBRANCH  16  21
ENDBRANCH  15  16
ENDBRANCH   1  15
TORSDOF 5
ENDMDL
MODEL 3
REMARK VINA RESULT:    -6.912      4.178      7.547
REMARK INTER + INTRA:          -9.517
REMARK INTER:                  -8.788
REMARK INTRA:                  -0.729
REMARK UNBOUND:                -0.585
REMARK  Name = 
REMARK  5 active torsions:
REMARK  status: ('A' for Active; 'I' for Inactive)
REMARK    1  A    between atoms: C_2  and  C_4
REMARK    2  A    between atoms: C_8  and  S_9
REMARK    3  A    between atoms: S_9  and  C_10
REMARK    4  A    between atoms: C_10  and  C_11
REMARK    5  A    between atoms: C_16  and  N_17
REMARK                            x       y       z     vdW  Elec       q    Type
REMARK                         _______ _______ _______ _____ _____    ______ ____
ROOT
ATOM      1  C   UNL     1      47.795   7.156  13.002  0.00  0.00    +0.000 A 
ATOM      2  C   UNL     1      47.229   8.403  12.717  0.00  0.00    +0.000 A 
ATOM      3  C   UNL     1      45.941   8.485  12.182  0.00  0.00    +0.000 A 
ATOM      4  C   UNL     1      45.218   7.320  11.919  0.00  0.00    +0.000 A 
ATOM      5  F   UNL     1      44.019   7.441  11.326  0.00  0.00    +0.000 F 
ATOM      6  C   UNL     1      45.740   6.047  12.203  0.00  0.00    +0.000 A 
ATOM      7  C   UNL     1      47.007   6.009  12.799  0.00  0.00    +0.000 A 
ENDROOT
BRANCH   6   8
ATOM      8  N   UNL     1      45.089   4.881  11.817  0.00  0.00    +0.000 N 
ATOM      9  C   UNL     1      43.879   4.480  12.555  0.00  0.00    +0.000 C 
ATOM     10  C   UNL     1      43.634   2.970  12.357  0.00  0.00    +0.000 C 
ATOM     11  N   UNL     1      43.531   2.577  10.935  0.00  0.00    +0.000 NA
ATOM     12  C   UNL     1      44.736   3.055  10.211  0.00  0.00    +0.000 C 
ATOM     13  C   UNL     1      45.018   4.571  10.382  0.00  0.00    +0.000 C 
ATOM     14  H   UNL     1      42.720   3.048  10.539  0.00  0.00    +0.000 HD
ENDBRANCH   6   8
BRANCH   1  15
ATOM     15  C   UNL     1      49.213   7.055  13.533  0.00  0.00    +0.000 C 
BRANCH  15  16
ATOM     16  S   UNL     1      49.479   8.061  15.045  0.00  0.00    +0.000 S 
BRANCH  16  21
ATOM     17  C   UNL     1      47.899   4.934  17.028  0.00  0.00    +0.000 A 
ATOM     18  C   UNL     1      47.781   5.380  18.347  0.00  0.00    +0.000 A 
ATOM     19  C   UNL     1      48.149   6.684  18.675  0.00  0.00    +0.000 A 
ATOM     20  C   UNL     1      48.649   7.543  17.690  0.00  0.00    +0.000 A 
ATOM     21  C   UNL     1      48.801   7.099  16.377  0.00  0.00    +0.000 A 
ATOM     22  C   UNL     1      48.412   5.794  16.054  0.00  0.00    +0.000 A 
BRANCH  17  24
ATOM     23  N   UNL     1      46.956   2.767  17.600  0.00  0.00    +0.000 N 
ATOM     24  C   UNL     1      47.520   3.552  16.632  0.00  0.00    +0.000 C 
ATOM     25  O   UNL     1      47.668   3.147  15.486  0.00  0.00    +0.000 OA
ATOM     26  H   UNL     1      46.609   1.865  17.293  0.00  0.00    +0.000 HD
ATOM     27  H   UNL     1      46.579   3.150  18.453  0.00  0.00    +0.000 HD
ENDBRANCH  17  24
ENDBRANCH  16  21
ENDBRANCH  15  16
ENDBRANCH   1  15
TORSDOF 5
ENDMDL
MODEL 4
REMARK VINA RESULT:    -6.777      4.565      7.679
REMARK INTER + INTRA:          -9.343
REMARK INTER:                  -8.669
REMARK INTRA:                  -0.673
REMARK UNBOUND:                -0.585
REMARK  Name = 
REMARK  5 active torsions:
REMARK  status: ('A' for Active; 'I' for Inactive)
REMARK    1  A    between atoms: C_2  and  C_4
REMARK    2  A    between atoms: C_8  and  S_9
REMARK    3  A    between atoms: S_9  and  C_10
REMARK    4  A    between atoms: C_10  and  C_11
REMARK    5  A    between atoms: C_16  and  N_17
REMARK                            x       y       z     vdW  Elec       q    Type
REMARK                         _______ _______ _______ _____ _____    ______ ____
ROOT
ATOM      1  C   UNL     1      47.650   7.129  13.704  0.00  0.00    +0.000 A 
ATOM      2  C   UNL     1      47.281   8.457  13.465  0.00  0.00    +0.000 A 
ATOM      3  C   UNL     1      46.114   8.744  12.752  0.00  0.00    +0.000 A 
ATOM      4  C   UNL     1      45.318   7.706  12.267  0.00  0.00    +0.000 A 
ATOM      5  F   UNL     1      44.251   8.025  11.515  0.00  0.00    +0.000 F 
ATOM      6  C   UNL     1      45.641   6.358  12.497  0.00  0.00    +0.000 A 
ATOM      7  C   UNL     1      46.782   6.112  13.270  0.00  0.00    +0.000 A 
ENDROOT
BRANCH   6   8
ATOM      8  N   UNL     1      44.935   5.320  11.901  0.00  0.00    +0.000 N 
ATOM      9  C   UNL     1      45.212   5.006  10.489  0.00  0.00    +0.000 C 
ATOM     10  C   UNL     1      44.013   4.245   9.888  0.00  0.00    +0.000 C 
ATOM     11  N   UNL     1      43.667   3.016  10.636  0.00  0.00    +0.000 NA
ATOM     12  C   UNL     1      43.460   3.361  12.065  0.00  0.00    +0.000 C 
ATOM     13  C   UNL     1      44.644   4.127  12.710  0.00  0.00    +0.000 C 
ATOM     14  H   UNL     1      44.461   2.382  10.578  0.00  0.00    +0.000 HD
ENDBRANCH   6   8
BRANCH   1  15
ATOM     15  C   UNL     1      48.944   6.808  14.430  0.00  0.00    +0.000 C 
BRANCH  15  16
ATOM     16  S   UNL     1      49.008   7.523  16.119  0.00  0.00    +0.000 S 
BRANCH  16  21
ATOM     17  C   UNL     1      49.158   3.770  17.568  0.00  0.00    +0.000 A 
ATOM     18  C   UNL     1      48.589   3.863  18.841  0.00  0.00    +0.000 A 
ATOM     19  C   UNL     1      48.096   5.086  19.293  0.00  0.00    +0.000 A 
ATOM     20  C   UNL     1      48.182   6.224  18.483  0.00  0.00    +0.000 A 
ATOM     21  C   UNL     1      48.777   6.149  17.223  0.00  0.00    +0.000 A 
ATOM     22  C   UNL     1      49.253   4.913  16.771  0.00  0.00    +0.000 A 
BRANCH  17  24
ATOM     23  N   UNL     1      50.686   1.891  17.776  0.00  0.00    +0.000 N 
ATOM     24  C   UNL     1      49.697   2.488  17.044  0.00  0.00    +0.000 C 
ATOM     25  O   UNL     1      49.253   1.970  16.028  0.00  0.00    +0.000 OA
ATOM     26  H   UNL     1      50.974   0.969  17.466  0.00  0.00    +0.000 HD
ATOM     27  H   UNL     1      50.877   2.144  18.733  0.00  0.00    +0.000 HD
ENDBRANCH  17  24
ENDBRANCH  16  21
ENDBRANCH  15  16
ENDBRANCH   1  15
TORSDOF 5
ENDMDL
MODEL 5
REMARK VINA RESULT:    -6.552      3.373      5.341
REMARK INTER + INTRA:          -9.052
REMARK INTER:                  -8.400
REMARK INTRA:                  -0.652
REMARK UNBOUND:                -0.585
REMARK  Name = 
REMARK  5 active torsions:
REMARK  status: ('A' for Active; 'I' for Inactive)
REMARK    1  A    between atoms: C_2  and  C_4
REMARK    2  A    between atoms: C_8  and  S_9
REMARK    3  A    between atoms: S_9  and  C_10
REMARK    4  A    between atoms: C_10  and  C_11
REMARK    5  A    between atoms: C_16  and  N_17
REMARK                            x       y       z     vdW  Elec       q    Type
REMARK                         _______ _______ _______ _____ _____    ______ ____
ROOT
ATOM      1  C   UNL     1      48.304   7.606  13.352  0.00  0.00    +0.000 A 
ATOM      2  C   UNL     1      49.433   8.401  13.578  0.00  0.00    +0.000 A 
ATOM      3  C   UNL     1      50.245   8.168  14.691  0.00  0.00    +0.000 A 
ATOM      4  C   UNL     1      49.927   7.146  15.587  0.00  0.00    +0.000 A 
ATOM      5  F   UNL     1      50.686   7.010  16.687  0.00  0.00    +0.000 F 
ATOM      6  C   UNL     1      48.812   6.313  15.391  0.00  0.00    +0.000 A 
ATOM      7  C   UNL     1      48.060   6.536  14.231  0.00  0.00    +0.000 A 
ENDROOT
BRANCH   6   8
ATOM      8  N   UNL     1      48.408   5.388  16.347  0.00  0.00    +0.000 N 
ATOM      9  C   UNL     1      48.169   5.862  17.721  0.00  0.00    +0.000 C 
ATOM     10  C   UNL     1      48.263   4.671  18.697  0.00  0.00    +0.000 C 
ATOM     11  N   UNL     1      47.341   3.566  18.360  0.00  0.00    +0.000 NA
ATOM     12  C   UNL     1      47.565   3.159  16.950  0.00  0.00    +0.000 C 
ATOM     13  C   UNL     1      47.477   4.327  15.933  0.00  0.00    +0.000 C 
ATOM     14  H   UNL     1      46.389   3.919  18.437  0.00  0.00    +0.000 HD
ENDBRANCH   6   8
BRANCH   1  15
ATOM     15  C   UNL     1      47.387   7.887  12.176  0.00  0.00    +0.000 C 
BRANCH  15  16
ATOM     16  S   UNL     1      45.612   7.671  12.592  0.00  0.00    +0.000 S 
BRANCH  16  21
ATOM     17  C   UNL     1      45.061   4.500  10.173  0.00  0.00    +0.000 A 
ATOM     18  C   UNL     1      44.684   3.465  11.033  0.00  0.00    +0.000 A 
ATOM     19  C   UNL     1      44.545   3.713  12.398  0.00  0.00    +0.000 A 
ATOM     20  C   UNL     1      44.795   4.991  12.912  0.00  0.00    +0.000 A 
ATOM     21  C   UNL     1      45.202   6.023  12.067  0.00  0.00    +0.000 A 
ATOM     22  C   UNL     1      45.322   5.769  10.695  0.00  0.00    +0.000 A 
BRANCH  17  24
ATOM     23  N   UNL     1      44.299   3.479   8.103  0.00  0.00    +0.000 N 
ATOM     24  C   UNL     1      45.223   4.283   8.711  0.00  0.00    +0.000 C 
ATOM     25  O   UNL     1      46.115   4.827   8.074  0.00  0.00    +0.000 OA
ATOM     26  H   UNL     1      44.358   3.420   7.092  0.00  0.00    +0.000 HD
ATOM     27  H   UNL     1      43.419   3.245   8.535  0.00  0.00    +0.000 HD
ENDBRANCH  17  24
ENDBRANCH  16  21
ENDBRANCH  15  16
ENDBRANCH   1  15
TORSDOF 5
ENDMDL
MODEL 6
REMARK VINA RESULT:    -6.269      4.465      6.642
REMARK INTER + INTRA:          -8.687
REMARK INTER:                  -7.664
REMARK INTRA:                  -1.023
REMARK UNBOUND:                -0.585
REMARK  Name = 
REMARK  5 active torsions:
REMARK  status: ('A' for Active; 'I' for Inactive)
REMARK    1  A    between atoms: C_2  and  C_4
REMARK    2  A    between atoms: C_8  and  S_9
REMARK    3  A    between atoms: S_9  and  C_10
REMARK    4  A    between atoms: C_10  and  C_11
REMARK    5  A    between atoms: C_16  and  N_17
REMARK                            x       y       z     vdW  Elec       q    Type
REMARK                         _______ _______ _______ _____ _____    ______ ____
ROOT
ATOM      1  C   UNL     1      49.334   7.831  14.576  0.00  0.00    +0.000 A 
ATOM      2  C   UNL     1      48.875   9.092  14.973  0.00  0.00    +0.000 A 
ATOM      3  C   UNL     1      48.391   9.287  16.269  0.00  0.00    +0.000 A 
ATOM      4  C   UNL     1      48.354   8.222  17.170  0.00  0.00    +0.000 A 
ATOM      5  F   UNL     1      47.804   8.433  18.377  0.00  0.00    +0.000 F 
ATOM      6  C   UNL     1      48.820   6.943  16.820  0.00  0.00    +0.000 A 
ATOM      7  C   UNL     1      49.357   6.803  15.535  0.00  0.00    +0.000 A 
ENDROOT
BRANCH   6   8
ATOM      8  N   UNL     1      48.659   5.846  17.659  0.00  0.00    +0.000 N 
ATOM      9  C   UNL     1      48.418   4.528  17.048  0.00  0.00    +0.000 C 
ATOM     10  C   UNL     1      47.754   3.598  18.082  0.00  0.00    +0.000 C 
ATOM     11  N   UNL     1      48.537   3.457  19.329  0.00  0.00    +0.000 NA
ATOM     12  C   UNL     1      48.816   4.807  19.881  0.00  0.00    +0.000 C 
ATOM     13  C   UNL     1      49.487   5.776  18.872  0.00  0.00    +0.000 C 
ATOM     14  H   UNL     1      49.427   3.025  19.092  0.00  0.00    +0.000 HD
ENDBRANCH   6   8
BRANCH   1  15
ATOM     15  C   UNL     1      49.811   7.597  13.155  0.00  0.00    +0.000 C 
BRANCH  15  16
ATOM     16  S   UNL     1      48.603   8.167  11.896  0.00  0.00    +0.000 S 
BRANCH  16  21
ATOM     17  C   UNL     1      46.135   5.151  12.908  0.00  0.00    +0.000 A 
ATOM     18  C   UNL     1      44.864   5.733  12.934  0.00  0.00    +0.000 A 
ATOM     19  C   UNL     1      44.709   7.077  12.600  0.00  0.00    +0.000 A 
ATOM     20  C   UNL     1      45.823   7.850  12.253  0.00  0.00    +0.000 A 
ATOM     21  C   UNL     1      47.099   7.288  12.254  0.00  0.00    +0.000 A 
ATOM     22  C   UNL     1      47.243   5.932  12.573  0.00  0.00    +0.000 A 
BRANCH  17  24
ATOM     23  N   UNL     1      45.506   2.814  12.674  0.00  0.00    +0.000 N 
ATOM     24  C   UNL     1      46.348   3.722  13.256  0.00  0.00    +0.000 C 
ATOM     25  O   UNL     1      47.257   3.368  13.996  0.00  0.00    +0.000 OA
ATOM     26  H   UNL     1      45.725   1.838  12.838  0.00  0.00    +0.000 HD
ATOM     27  H   UNL     1      44.941   3.040  11.871  0.00  0.00    +0.000 HD
ENDBRANCH  17  24
ENDBRANCH  16  21
ENDBRANCH  15  16
ENDBRANCH   1  15
TORSDOF 5
ENDMDL
MODEL 7
REMARK VINA RESULT:    -6.016      4.208      6.177
REMARK INTER + INTRA:          -8.359
REMARK INTER:                  -7.788
REMARK INTRA:                  -0.571
REMARK UNBOUND:                -0.585
REMARK  Name = 
REMARK  5 active torsions:
REMARK  status: ('A' for Active; 'I' for Inactive)
REMARK    1  A    between atoms: C_2  and  C_4
REMARK    2  A    between atoms: C_8  and  S_9
REMARK    3  A    between atoms: S_9  and  C_10
REMARK    4  A    between atoms: C_10  and  C_11
REMARK    5  A    between atoms: C_16  and  N_17
REMARK                            x       y       z     vdW  Elec       q    Type
REMARK                         _______ _______ _______ _____ _____    ______ ____
ROOT
ATOM      1  C   UNL     1      48.543   8.015  14.456  0.00  0.00    +0.000 A 
ATOM      2  C   UNL     1      48.194   9.164  15.173  0.00  0.00    +0.000 A 
ATOM      3  C   UNL     1      48.286   9.177  16.567  0.00  0.00    +0.000 A 
ATOM      4  C   UNL     1      48.717   8.039  17.251  0.00  0.00    +0.000 A 
ATOM      5  F   UNL     1      48.710   8.067  18.594  0.00  0.00    +0.000 F 
ATOM      6  C   UNL     1      49.092   6.867  16.571  0.00  0.00    +0.000 A 
ATOM      7  C   UNL     1      49.048   6.915  15.172  0.00  0.00    +0.000 A 
ENDROOT
BRANCH   6   8
ATOM      8  N   UNL     1      49.386   5.688  17.244  0.00  0.00    +0.000 N 
ATOM      9  C   UNL     1      48.452   4.557  17.113  0.00  0.00    +0.000 C 
ATOM     10  C   UNL     1      48.647   3.591  18.300  0.00  0.00    +0.000 C 
ATOM     11  N   UNL     1      50.037   3.105  18.435  0.00  0.00    +0.000 NA
ATOM     12  C   UNL     1      50.954   4.270  18.499  0.00  0.00    +0.000 C 
ATOM     13  C   UNL     1      50.793   5.267  17.321  0.00  0.00    +0.000 C 
ATOM     14  H   UNL     1      50.264   2.572  17.598  0.00  0.00    +0.000 HD
ENDBRANCH   6   8
BRANCH   1  15
ATOM     15  C   UNL     1      48.394   7.974  12.946  0.00  0.00    +0.000 C 
BRANCH  15  16
ATOM     16  S   UNL     1      46.645   7.848  12.407  0.00  0.00    +0.000 S 
BRANCH  16  21
ATOM     17  C   UNL     1      45.089   4.266  11.429  0.00  0.00    +0.000 A 
ATOM     18  C   UNL     1      45.559   3.398  12.419  0.00  0.00    +0.000 A 
ATOM     19  C   UNL     1      46.346   3.892  13.458  0.00  0.00    +0.000 A 
ATOM     20  C   UNL     1      46.680   5.250  13.505  0.00  0.00    +0.000 A 
ATOM     21  C   UNL     1      46.243   6.119  12.505  0.00  0.00    +0.000 A 
ATOM     22  C   UNL     1      45.438   5.617  11.475  0.00  0.00    +0.000 A 
BRANCH  17  24
ATOM     23  N   UNL     1      44.153   4.604   9.211  0.00  0.00    +0.000 N 
ATOM     24  C   UNL     1      44.247   3.785  10.302  0.00  0.00    +0.000 C 
ATOM     25  O   UNL     1      43.695   2.693  10.332  0.00  0.00    +0.000 OA
ATOM     26  H   UNL     1      43.662   4.222   8.410  0.00  0.00    +0.000 HD
ATOM     27  H   UNL     1      44.798   5.361   9.048  0.00  0.00    +0.000 HD
ENDBRANCH  17  24
ENDBRANCH  16  21
ENDBRANCH  15  16
ENDBRANCH   1  15
TORSDOF 5
ENDMDL
MODEL 8
REMARK VINA RESULT:    -5.971      4.874      7.867
REMARK INTER + INTRA:          -8.302
REMARK INTER:                  -7.408
REMARK INTRA:                  -0.894
REMARK UNBOUND:                -0.585
REMARK  Name = 
REMARK  5 active torsions:
REMARK  status: ('A' for Active; 'I' for Inactive)
REMARK    1  A    between atoms: C_2  and  C_4
REMARK    2  A    between atoms: C_8  and  S_9
REMARK    3  A    between atoms: S_9  and  C_10
REMARK    4  A    between atoms: C_10  and  C_11
REMARK    5  A    between atoms: C_16  and  N_17
REMARK                            x       y       z     vdW  Elec       q    Type
REMARK                         _______ _______ _______ _____ _____    ______ ____
ROOT
ATOM      1  C   UNL     1      50.245   7.552  15.547  0.00  0.00    +0.000 A 
ATOM      2  C   UNL     1      51.156   8.037  14.603  0.00  0.00    +0.000 A 
ATOM      3  C   UNL     1      50.817   8.063  13.248  0.00  0.00    +0.000 A 
ATOM      4  C   UNL     1      49.571   7.595  12.829  0.00  0.00    +0.000 A 
ATOM      5  F   UNL     1      49.318   7.560  11.511  0.00  0.00    +0.000 F 
ATOM      6  C   UNL     1      48.618   7.114  13.744  0.00  0.00    +0.000 A 
ATOM      7  C   UNL     1      48.969   7.164  15.098  0.00  0.00    +0.000 A 
ENDROOT
BRANCH   6   8
ATOM      8  N   UNL     1      47.433   6.518  13.327  0.00  0.00    +0.000 N 
ATOM      9  C   UNL     1      47.013   5.267  13.981  0.00  0.00    +0.000 C 
ATOM     10  C   UNL     1      46.031   4.513  13.061  0.00  0.00    +0.000 C 
ATOM     11  N   UNL     1      44.853   5.321  12.677  0.00  0.00    +0.000 NA
ATOM     12  C   UNL     1      45.316   6.600  12.082  0.00  0.00    +0.000 C 
ATOM     13  C   UNL     1      46.305   7.393  12.976  0.00  0.00    +0.000 C 
ATOM     14  H   UNL     1      44.334   5.539  13.525  0.00  0.00    +0.000 HD
ENDBRANCH   6   8
BRANCH   1  15
ATOM     15  C   UNL     1      50.624   7.469  17.014  0.00  0.00    +0.000 C 
BRANCH  15  16
ATOM     16  S   UNL     1      51.901   6.193  17.347  0.00  0.00    +0.000 S 
BRANCH  16  21
ATOM     17  C   UNL     1      48.826   3.599  17.492  0.00  0.00    +0.000 A 
ATOM     18  C   UNL     1      49.429   2.339  17.449  0.00  0.00    +0.000 A 
ATOM     19  C   UNL     1      50.819   2.235  17.414  0.00  0.00    +0.000 A 
ATOM     20  C   UNL     1      51.612   3.388  17.407  0.00  0.00    +0.000 A 
ATOM     21  C   UNL     1      51.019   4.651  17.417  0.00  0.00    +0.000 A 
ATOM     22  C   UNL     1      49.624   4.745  17.471  0.00  0.00    +0.000 A 
BRANCH  17  24
ATOM     23  N   UNL     1      46.870   5.033  17.663  0.00  0.00    +0.000 N 
ATOM     24  C   UNL     1      47.349   3.758  17.530  0.00  0.00    +0.000 C 
ATOM     25  O   UNL     1      46.594   2.802  17.409  0.00  0.00    +0.000 OA
ATOM     26  H   UNL     1      45.865   5.140  17.586  0.00  0.00    +0.000 HD
ATOM     27  H   UNL     1      47.443   5.844  17.494  0.00  0.00    +0.000 HD
ENDBRANCH  17  24
ENDBRANCH  16  21
ENDBRANCH  15  16
ENDBRANCH   1  15
TORSDOF 5
ENDMDL
MODEL 9
REMARK VINA RESULT:    -5.844      2.196      2.954
REMARK INTER + INTRA:          -8.137
REMARK INTER:                  -7.412
REMARK INTRA:                  -0.726
REMARK UNBOUND:                -0.585
REMARK  Name = 
REMARK  5 active torsions:
REMARK  status: ('A' for Active; 'I' for Inactive)
REMARK    1  A    between atoms: C_2  and  C_4
REMARK    2  A    between atoms: C_8  and  S_9
REMARK    3  A    between atoms: S_9  and  C_10
REMARK    4  A    between atoms: C_10  and  C_11
REMARK    5  A    between atoms: C_16  and  N_17
REMARK                            x       y       z     vdW  Elec       q    Type
REMARK                         _______ _______ _______ _____ _____    ______ ____
ROOT
ATOM      1  C   UNL     1      46.477   6.681  12.077  0.00  0.00    +0.000 A 
ATOM      2  C   UNL     1      46.365   5.742  13.109  0.00  0.00    +0.000 A 
ATOM      3  C   UNL     1      47.325   5.694  14.122  0.00  0.00    +0.000 A 
ATOM      4  C   UNL     1      48.407   6.575  14.104  0.00  0.00    +0.000 A 
ATOM      5  F   UNL     1      49.351   6.438  15.050  0.00  0.00    +0.000 F 
ATOM      6  C   UNL     1      48.552   7.544  13.097  0.00  0.00    +0.000 A 
ATOM      7  C   UNL     1      47.536   7.605  12.135  0.00  0.00    +0.000 A 
ENDROOT
BRANCH   6   8
ATOM      8  N   UNL     1      49.694   8.331  12.991  0.00  0.00    +0.000 N 
ATOM      9  C   UNL     1      50.494   8.238  11.758  0.00  0.00    +0.000 C 
ATOM     10  C   UNL     1      51.927   8.733  12.039  0.00  0.00    +0.000 C 
ATOM     11  N   UNL     1      51.974  10.106  12.587  0.00  0.00    +0.000 NA
ATOM     12  C   UNL     1      51.106  10.177  13.789  0.00  0.00    +0.000 C 
ATOM     13  C   UNL     1      49.652   9.690  13.550  0.00  0.00    +0.000 C 
ATOM     14  H   UNL     1      51.591  10.735  11.886  0.00  0.00    +0.000 HD
ENDBRANCH   6   8
BRANCH   1  15
ATOM     15  C   UNL     1      45.469   6.705  10.944  0.00  0.00    +0.000 C 
BRANCH  15  16
ATOM     16  S   UNL     1      44.033   5.602  11.245  0.00  0.00    +0.000 S 
BRANCH  16  21
ATOM     17  C   UNL     1      45.484   3.233   8.330  0.00  0.00    +0.000 A 
ATOM     18  C   UNL     1      45.050   1.949   8.675  0.00  0.00    +0.000 A 
ATOM     19  C   UNL     1      44.254   1.765   9.804  0.00  0.00    +0.000 A 
ATOM     20  C   UNL     1      43.900   2.858  10.603  0.00  0.00    +0.000 A 
ATOM     21  C   UNL     1      44.354   4.139  10.287  0.00  0.00    +0.000 A 
ATOM     22  C   UNL     1      45.138   4.317   9.140  0.00  0.00    +0.000 A 
BRANCH  17  24
ATOM     23  N   UNL     1      47.332   4.403   7.270  0.00  0.00    +0.000 N 
ATOM     24  C   UNL     1      46.334   3.477   7.136  0.00  0.00    +0.000 C 
ATOM     25  O   UNL     1      46.176   2.854   6.094  0.00  0.00    +0.000 OA
ATOM     26  H   UNL     1      47.967   4.488   6.484  0.00  0.00    +0.000 HD
ATOM     27  H   UNL     1      47.653   4.724   8.170  0.00  0.00    +0.000 HD
ENDBRANCH  17  24
ENDBRANCH  16  21
ENDBRANCH  15  16
ENDBRANCH   1  15
TORSDOF 5
ENDMDL
