MODEL 1
REMARK VINA RESULT:    -8.499      0.000      0.000
REMARK INTER + INTRA:         -13.054
REMARK INTER:                 -11.977
REMARK INTRA:                  -1.077
REMARK UNBOUND:                -1.077
REMARK  Name = 
REMARK  8 active torsions:
REMARK  status: ('A' for Active; 'I' for Inactive)
REMARK    1  A    between atoms: C_1  and  C_2
REMARK    2  A    between atoms: C_2  and  C_3
REMARK    3  A    between atoms: C_2  and  C_14
REMARK    4  A    between atoms: C_3  and  O_4
REMARK    5  A    between atoms: O_4  and  C_5
REMARK    6  A    between atoms: C_8  and  C_9
REMARK    7  A    between atoms: C_18  and  O_19
REMARK    8  A    between atoms: O_19  and  C_20
REMARK                            x       y       z     vdW  Elec       q    Type
REMARK                         _______ _______ _______ _____ _____    ______ ____
ROOT
ATOM      1  C   UNL     1      42.823   5.356  12.218  0.00  0.00    +0.000 C 
ATOM      2  C   UNL     1      43.835   4.328  12.734  0.00  0.00    +0.000 C 
ENDROOT
BRANCH   2   3
ATOM      3  C   UNL     1      45.208   4.951  12.938  0.00  0.00    +0.000 A 
ATOM      4  C   UNL     1      45.655   5.970  12.088  0.00  0.00    +0.000 A 
ATOM      5  C   UNL     1      46.895   6.580  12.302  0.00  0.00    +0.000 A 
ATOM      6  C   UNL     1      47.708   6.180  13.367  0.00  0.00    +0.000 A 
ATOM      7  C   UNL     1      47.279   5.164  14.214  0.00  0.00    +0.000 A 
ATOM      8  C   UNL     1      46.037   4.561  14.003  0.00  0.00    +0.000 A 
BRANCH   7   9
ATOM      9  O   UNL     1      47.964   4.715  15.314  0.00  0.00    +0.000 OA
BRANCH   9  10
ATOM     10  C   UNL     1      47.232   4.082  16.388  0.00  0.00    +0.000 C 
ATOM     11  C   UNL     1      47.234   4.767  17.770  0.00  0.00    +0.000 C 
ATOM     12  N   UNL     1      47.676   3.516  18.407  0.00  0.00    +0.000 NA
ATOM     13  C   UNL     1      47.994   2.939  17.093  0.00  0.00    +0.000 C 
ATOM     14  H   UNL     1      46.942   3.021  18.911  0.00  0.00    +0.000 HD
ENDBRANCH   9  10
ENDBRANCH   7   9
ENDBRANCH   2   3
BRANCH   2  15
ATOM     15  C   UNL     1      43.946   3.117  11.793  0.00  0.00    +0.000 C 
BRANCH  15  16
ATOM     16  O   UNL     1      43.492   3.450  10.474  0.00  0.00    +0.000 OA
BRANCH  16  17
ATOM     17  C   UNL     1      44.447   3.157   9.519  0.00  0.00    +0.000 A 
ATOM     18  C   UNL     1      45.018   4.219   8.840  0.00  0.00    +0.000 A 
ATOM     19  C   UNL     1      46.001   3.943   7.887  0.00  0.00    +0.000 A 
ATOM     20  C   UNL     1      46.383   2.618   7.643  0.00  0.00    +0.000 A 
ATOM     21  C   UNL     1      45.742   1.628   8.371  0.00  0.00    +0.000 A 
ATOM     22  N   UNL     1      44.786   1.868   9.298  0.00  0.00    +0.000 NA
BRANCH  20  23
ATOM     23  C   UNL     1      47.438   2.331   6.643  0.00  0.00    +0.000 C 
ATOM     24  N   UNL     1      47.366   2.923   5.410  0.00  0.00    +0.000 N 
ATOM     25  O   UNL     1      48.366   1.573   6.903  0.00  0.00    +0.000 OA
ATOM     26  H   UNL     1      46.646   3.549   5.089  0.00  0.00    +0.000 HD
ATOM     27  H   UNL     1      48.102   2.689   4.757  0.00  0.00    +0.000 HD
ENDBRANCH  20  23
ENDBRANCH  16  17
ENDBRANCH  15  16
ENDBRANCH   2  15
TORSDOF 7
ENDMDL
MODEL 2
REMARK VINA RESULT:    -7.700      2.767      3.796
REMARK INTER + INTRA:         -11.928
REMARK INTER:                 -10.915
REMARK INTRA:                  -1.013
REMARK UNBOUND:                -1.077
REMARK  Name = 
REMARK  8 active torsions:
REMARK  status: ('A' for Active; 'I' for Inactive)
REMARK    1  A    between atoms: C_1  and  C_2
REMARK    2  A    between atoms: C_2  and  C_3
REMARK    3  A    between atoms: C_2  and  C_14
REMARK    4  A    between atoms: C_3  and  O_4
REMARK    5  A    between atoms: O_4  and  C_5
REMARK    6  A    between atoms: C_8  and  C_9
REMARK    7  A    between atoms: C_18  and  O_19
REMARK    8  A    between atoms: O_19  and  C_20
REMARK                            x       y       z     vdW  Elec       q    Type
REMARK                         _______ _______ _______ _____ _____    ______ ____
ROOT
ATOM      1  C   UNL     1      42.384   5.660  12.037  0.00  0.00    +0.000 C 
ATOM      2  C   UNL     1      43.285   4.457  12.336  0.00  0.00    +0.000 C 
ENDROOT
BRANCH   2   3
ATOM      3  C   UNL     1      44.675   4.895  12.773  0.00  0.00    +0.000 A 
ATOM      4  C   UNL     1      45.679   3.944  12.992  0.00  0.00    +0.000 A 
ATOM      5  C   UNL     1      46.971   4.345  13.345  0.00  0.00    +0.000 A 
ATOM      6  C   UNL     1      47.280   5.701  13.486  0.00  0.00    +0.000 A 
ATOM      7  C   UNL     1      46.289   6.655  13.279  0.00  0.00    +0.000 A 
ATOM      8  C   UNL     1      45.001   6.253  12.919  0.00  0.00    +0.000 A 
BRANCH   7   9
ATOM      9  O   UNL     1      46.478   8.013  13.345  0.00  0.00    +0.000 OA
BRANCH   9  10
ATOM     10  C   UNL     1      46.782   8.740  12.133  0.00  0.00    +0.000 C 
ATOM     11  C   UNL     1      47.902   9.799  12.184  0.00  0.00    +0.000 C 
ATOM     12  N   UNL     1      46.995  10.807  11.611  0.00  0.00    +0.000 NA
ATOM     13  C   UNL     1      45.840   9.930  11.851  0.00  0.00    +0.000 C 
ATOM     14  H   UNL     1      47.164  11.012  10.627  0.00  0.00    +0.000 HD
ENDBRANCH   9  10
ENDBRANCH   7   9
ENDBRANCH   2   3
BRANCH   2  15
ATOM     15  C   UNL     1      43.392   3.512  11.127  0.00  0.00    +0.000 C 
BRANCH  15  16
ATOM     16  O   UNL     1      43.602   4.251   9.917  0.00  0.00    +0.000 OA
BRANCH  16  17
ATOM     17  C   UNL     1      44.625   3.708   9.161  0.00  0.00    +0.000 A 
ATOM     18  C   UNL     1      44.832   2.343   9.256  0.00  0.00    +0.000 A 
ATOM     19  C   UNL     1      45.846   1.774   8.482  0.00  0.00    +0.000 A 
ATOM     20  C   UNL     1      46.620   2.584   7.640  0.00  0.00    +0.000 A 
ATOM     21  C   UNL     1      46.336   3.940   7.628  0.00  0.00    +0.000 A 
ATOM     22  N   UNL     1      45.361   4.516   8.367  0.00  0.00    +0.000 NA
BRANCH  20  23
ATOM     23  C   UNL     1      47.684   1.973   6.809  0.00  0.00    +0.000 C 
ATOM     24  N   UNL     1      48.633   2.781   6.242  0.00  0.00    +0.000 N 
ATOM     25  O   UNL     1      47.722   0.762   6.622  0.00  0.00    +0.000 OA
ATOM     26  H   UNL     1      48.688   3.784   6.321  0.00  0.00    +0.000 HD
ATOM     27  H   UNL     1      49.332   2.322   5.674  0.00  0.00    +0.000 HD
ENDBRANCH  20  23
ENDBRANCH  16  17
ENDBRANCH  15  16
ENDBRANCH   2  15
TORSDOF 7
ENDMDL
MODEL 3
REMARK VINA RESULT:    -7.439      3.027      4.515
REMARK INTER + INTRA:         -11.561
REMARK INTER:                 -10.560
REMARK INTRA:                  -1.000
REMARK UNBOUND:                -1.077
REMARK  Name = 
REMARK  8 active torsions:
REMARK  status: ('A' for Active; 'I' for Inactive)
REMARK    1  A    between atoms: C_1  and  C_2
REMARK    2  A    between atoms: C_2  and  C_3
REMARK    3  A    between atoms: C_2  and  C_14
REMARK    4  A    between atoms: C_3  and  O_4
REMARK    5  A    between atoms: O_4  and  C_5
REMARK    6  A    between atoms: C_8  and  C_9
REMARK    7  A    between atoms: C_18  and  O_19
REMARK    8  A    between atoms: O_19  and  C_20
REMARK                            x       y       z     vdW  Elec       q    Type
REMARK                         _______ _______ _______ _____ _____    ______ ____
ROOT
ATOM      1  C   UNL     1      42.868   4.987  12.923  0.00  0.00    +0.000 C 
ATOM      2  C   UNL     1      44.341   4.566  12.960  0.00  0.00    +0.000 C 
ENDROOT
BRANCH   2   3
ATOM      3  C   UNL     1      45.266   5.752  12.730  0.00  0.00    +0.000 A 
ATOM      4  C   UNL     1      46.616   5.544  12.420  0.00  0.00    +0.000 A 
ATOM      5  C   UNL     1      47.459   6.629  12.159  0.00  0.00    +0.000 A 
ATOM      6  C   UNL     1      46.967   7.937  12.204  0.00  0.00    +0.000 A 
ATOM      7  C   UNL     1      45.630   8.156  12.518  0.00  0.00    +0.000 A 
ATOM      8  C   UNL     1      44.788   7.072  12.772  0.00  0.00    +0.000 A 
BRANCH   7   9
ATOM      9  O   UNL     1      45.021   9.386  12.552  0.00  0.00    +0.000 OA
BRANCH   9  10
ATOM     10  C   UNL     1      44.798  10.094  11.312  0.00  0.00    +0.000 C 
ATOM     11  C   UNL     1      44.491  11.603  11.383  0.00  0.00    +0.000 C 
ATOM     12  N   UNL     1      43.285  11.413  10.562  0.00  0.00    +0.000 NA
ATOM     13  C   UNL     1      43.368   9.957  10.747  0.00  0.00    +0.000 C 
ATOM     14  H   UNL     1      43.384  11.714   9.594  0.00  0.00    +0.000 HD
ENDBRANCH   9  10
ENDBRANCH   7   9
ENDBRANCH   2   3
BRANCH   2  15
ATOM     15  C   UNL     1      44.644   3.461  11.934  0.00  0.00    +0.000 C 
BRANCH  15  16
ATOM     16  O   UNL     1      44.011   3.742  10.678  0.00  0.00    +0.000 OA
BRANCH  16  17
ATOM     17  C   UNL     1      44.816   3.382   9.613  0.00  0.00    +0.000 A 
ATOM     18  C   UNL     1      45.299   4.398   8.807  0.00  0.00    +0.000 A 
ATOM     19  C   UNL     1      46.132   4.055   7.739  0.00  0.00    +0.000 A 
ATOM     20  C   UNL     1      46.456   2.711   7.511  0.00  0.00    +0.000 A 
ATOM     21  C   UNL     1      45.910   1.772   8.371  0.00  0.00    +0.000 A 
ATOM     22  N   UNL     1      45.101   2.077   9.411  0.00  0.00    +0.000 NA
BRANCH  20  23
ATOM     23  C   UNL     1      47.353   2.353   6.387  0.00  0.00    +0.000 C 
ATOM     24  N   UNL     1      47.352   3.132   5.260  0.00  0.00    +0.000 N 
ATOM     25  O   UNL     1      48.087   1.374   6.452  0.00  0.00    +0.000 OA
ATOM     26  H   UNL     1      46.783   3.947   5.097  0.00  0.00    +0.000 HD
ATOM     27  H   UNL     1      47.971   2.843   4.515  0.00  0.00    +0.000 HD
ENDBRANCH  20  23
ENDBRANCH  16  17
ENDBRANCH  15  16
ENDBRANCH   2  15
TORSDOF 7
ENDMDL
MODEL 4
REMARK VINA RESULT:    -7.254      2.424      3.095
REMARK INTER + INTRA:         -11.299
REMARK INTER:                 -10.790
REMARK INTRA:                  -0.509
REMARK UNBOUND:                -1.077
REMARK  Name = 
REMARK  8 active torsions:
REMARK  status: ('A' for Active; 'I' for Inactive)
REMARK    1  A    between atoms: C_1  and  C_2
REMARK    2  A    between atoms: C_2  and  C_3
REMARK    3  A    between atoms: C_2  and  C_14
REMARK    4  A    between atoms: C_3  and  O_4
REMARK    5  A    between atoms: O_4  and  C_5
REMARK    6  A    between atoms: C_8  and  C_9
REMARK    7  A    between atoms: C_18  and  O_19
REMARK    8  A    between atoms: O_19  and  C_20
REMARK                            x       y       z     vdW  Elec       q    Type
REMARK                         _______ _______ _______ _____ _____    ______ ____
ROOT
ATOM      1  C   UNL     1      45.725   4.051  12.868  0.00  0.00    +0.000 C 
ATOM      2  C   UNL     1      45.310   4.875  11.645  0.00  0.00    +0.000 C 
ENDROOT
BRANCH   2   3
ATOM      3  C   UNL     1      45.560   6.361  11.861  0.00  0.00    +0.000 A 
ATOM      4  C   UNL     1      44.617   7.304  11.435  0.00  0.00    +0.000 A 
ATOM      5  C   UNL     1      44.819   8.667  11.676  0.00  0.00    +0.000 A 
ATOM      6  C   UNL     1      45.964   9.108  12.345  0.00  0.00    +0.000 A 
ATOM      7  C   UNL     1      46.911   8.180  12.768  0.00  0.00    +0.000 A 
ATOM      8  C   UNL     1      46.705   6.819  12.532  0.00  0.00    +0.000 A 
BRANCH   7   9
ATOM      9  O   UNL     1      48.051   8.483  13.469  0.00  0.00    +0.000 OA
BRANCH   9  10
ATOM     10  C   UNL     1      49.045   7.454  13.673  0.00  0.00    +0.000 C 
ATOM     11  C   UNL     1      49.303   6.969  15.113  0.00  0.00    +0.000 C 
ATOM     12  N   UNL     1      50.746   7.212  14.953  0.00  0.00    +0.000 NA
ATOM     13  C   UNL     1      50.499   7.972  13.720  0.00  0.00    +0.000 C 
ATOM     14  H   UNL     1      51.301   6.369  14.817  0.00  0.00    +0.000 HD
ENDBRANCH   9  10
ENDBRANCH   7   9
ENDBRANCH   2   3
BRANCH   2  15
ATOM     15  C   UNL     1      43.835   4.643  11.276  0.00  0.00    +0.000 C 
BRANCH  15  16
ATOM     16  O   UNL     1      43.639   4.750   9.860  0.00  0.00    +0.000 OA
BRANCH  16  17
ATOM     17  C   UNL     1      44.575   4.012   9.160  0.00  0.00    +0.000 A 
ATOM     18  C   UNL     1      44.601   2.645   9.375  0.00  0.00    +0.000 A 
ATOM     19  C   UNL     1      45.526   1.881   8.660  0.00  0.00    +0.000 A 
ATOM     20  C   UNL     1      46.393   2.504   7.753  0.00  0.00    +0.000 A 
ATOM     21  C   UNL     1      46.290   3.879   7.619  0.00  0.00    +0.000 A 
ATOM     22  N   UNL     1      45.405   4.643   8.300  0.00  0.00    +0.000 NA
BRANCH  20  23
ATOM     23  C   UNL     1      47.360   1.687   6.984  0.00  0.00    +0.000 C 
ATOM     24  N   UNL     1      48.483   2.285   6.477  0.00  0.00    +0.000 N 
ATOM     25  O   UNL     1      47.167   0.492   6.793  0.00  0.00    +0.000 OA
ATOM     26  H   UNL     1      48.733   3.257   6.563  0.00  0.00    +0.000 HD
ATOM     27  H   UNL     1      49.109   1.692   5.949  0.00  0.00    +0.000 HD
ENDBRANCH  20  23
ENDBRANCH  16  17
ENDBRANCH  15  16
ENDBRANCH   2  15
TORSDOF 7
ENDMDL
MODEL 5
REMARK VINA RESULT:    -7.110      1.967      8.310
REMARK INTER + INTRA:         -11.097
REMARK INTER:                 -10.485
REMARK INTRA:                  -0.613
REMARK UNBOUND:                -1.077
REMARK  Name = 
REMARK  8 active torsions:
REMARK  status: ('A' for Active; 'I' for Inactive)
REMARK    1  A    between atoms: C_1  and  C_2
REMARK    2  A    between atoms: C_2  and  C_3
REMARK    3  A    between atoms: C_2  and  C_14
REMARK    4  A    between atoms: C_3  and  O_4
REMARK    5  A    between atoms: O_4  and  C_5
REMARK    6  A    between atoms: C_8  and  C_9
REMARK    7  A    between atoms: C_18  and  O_19
REMARK    8  A    between atoms: O_19  and  C_20
REMARK                            x       y       z     vdW  Elec       q    Type
REMARK                         _______ _______ _______ _____ _____    ______ ____
ROOT
ATOM      1  C   UNL     1      43.839   6.877  11.334  0.00  0.00    +0.000 C 
ATOM      2  C   UNL     1      45.153   6.090  11.335  0.00  0.00    +0.000 C 
ENDROOT
BRANCH   2   3
ATOM      3  C   UNL     1      45.062   4.849  10.459  0.00  0.00    +0.000 A 
ATOM      4  C   UNL     1      44.351   3.726  10.898  0.00  0.00    +0.000 A 
ATOM      5  C   UNL     1      44.222   2.602  10.076  0.00  0.00    +0.000 A 
ATOM      6  C   UNL     1      44.803   2.583   8.804  0.00  0.00    +0.000 A 
ATOM      7  C   UNL     1      45.518   3.690   8.360  0.00  0.00    +0.000 A 
ATOM      8  C   UNL     1      45.640   4.814   9.180  0.00  0.00    +0.000 A 
BRANCH   7   9
ATOM      9  O   UNL     1      46.095   3.808   7.121  0.00  0.00    +0.000 OA
BRANCH   9  10
ATOM     10  C   UNL     1      46.540   2.616   6.435  0.00  0.00    +0.000 C 
ATOM     11  C   UNL     1      47.767   1.871   6.996  0.00  0.00    +0.000 C 
ATOM     12  N   UNL     1      48.412   1.906   5.674  0.00  0.00    +0.000 NA
ATOM     13  C   UNL     1      47.424   2.884   5.198  0.00  0.00    +0.000 C 
ATOM     14  H   UNL     1      48.392   1.019   5.174  0.00  0.00    +0.000 HD
ENDBRANCH   9  10
ENDBRANCH   7   9
ENDBRANCH   2   3
BRANCH   2  15
ATOM     15  C   UNL     1      45.577   5.693  12.759  0.00  0.00    +0.000 C 
BRANCH  15  16
ATOM     16  O   UNL     1      47.001   5.553  12.849  0.00  0.00    +0.000 OA
BRANCH  16  17
ATOM     17  C   UNL     1      47.414   5.393  14.159  0.00  0.00    +0.000 A 
ATOM     18  C   UNL     1      46.895   4.322  14.865  0.00  0.00    +0.000 A 
ATOM     19  C   UNL     1      47.319   4.132  16.183  0.00  0.00    +0.000 A 
ATOM     20  C   UNL     1      48.246   5.015  16.752  0.00  0.00    +0.000 A 
ATOM     21  C   UNL     1      48.695   6.060  15.961  0.00  0.00    +0.000 A 
ATOM     22  N   UNL     1      48.301   6.267  14.683  0.00  0.00    +0.000 NA
BRANCH  20  23
ATOM     23  C   UNL     1      48.705   4.799  18.144  0.00  0.00    +0.000 C 
ATOM     24  N   UNL     1      47.810   4.350  19.079  0.00  0.00    +0.000 N 
ATOM     25  O   UNL     1      49.866   5.021  18.468  0.00  0.00    +0.000 OA
ATOM     26  H   UNL     1      46.835   4.149  18.925  0.00  0.00    +0.000 HD
ATOM     27  H   UNL     1      48.164   4.229  20.018  0.00  0.00    +0.000 HD
ENDBRANCH  20  23
ENDBRANCH  16  17
ENDBRANCH  15  16
ENDBRANCH   2  15
TORSDOF 7
ENDMDL
MODEL 6
REMARK VINA RESULT:    -6.468      1.803      7.629
REMARK INTER + INTRA:         -10.192
REMARK INTER:                  -9.411
REMARK INTRA:                  -0.782
REMARK UNBOUND:                -1.077
REMARK  Name = 
REMARK  8 active torsions:
REMARK  status: ('A' for Active; 'I' for Inactive)
REMARK    1  A    between atoms: C_1  and  C_2
REMARK    2  A    between atoms: C_2  and  C_3
REMARK    3  A    between atoms: C_2  and  C_14
REMARK    4  A    between atoms: C_3  and  O_4
REMARK    5  A    between atoms: O_4  and  C_5
REMARK    6  A    between atoms: C_8  and  C_9
REMARK    7  A    between atoms: C_18  and  O_19
REMARK    8  A    between atoms: O_19  and  C_20
REMARK                            x       y       z     vdW  Elec       q    Type
REMARK                         _______ _______ _______ _____ _____    ______ ____
ROOT
ATOM      1  C   UNL     1      45.925   8.528  12.641  0.00  0.00    +0.000 C 
ATOM      2  C   UNL     1      46.376   7.378  11.735  0.00  0.00    +0.000 C 
ENDROOT
BRANCH   2   3
ATOM      3  C   UNL     1      45.260   6.367  11.518  0.00  0.00    +0.000 A 
ATOM      4  C   UNL     1      43.921   6.751  11.660  0.00  0.00    +0.000 A 
ATOM      5  C   UNL     1      42.891   5.839  11.412  0.00  0.00    +0.000 A 
ATOM      6  C   UNL     1      43.182   4.529  11.021  0.00  0.00    +0.000 A 
ATOM      7  C   UNL     1      44.508   4.133  10.884  0.00  0.00    +0.000 A 
ATOM      8  C   UNL     1      45.536   5.047  11.125  0.00  0.00    +0.000 A 
BRANCH   7   9
ATOM      9  O   UNL     1      44.919   2.892  10.466  0.00  0.00    +0.000 OA
BRANCH   9  10
ATOM     10  C   UNL     1      44.798   2.545   9.068  0.00  0.00    +0.000 C 
ATOM     11  C   UNL     1      45.996   1.857   8.384  0.00  0.00    +0.000 C 
ATOM     12  N   UNL     1      45.981   2.864   7.311  0.00  0.00    +0.000 NA
ATOM     13  C   UNL     1      45.071   3.711   8.095  0.00  0.00    +0.000 C 
ATOM     14  H   UNL     1      45.587   2.534   6.432  0.00  0.00    +0.000 HD
ENDBRANCH   9  10
ENDBRANCH   7   9
ENDBRANCH   2   3
BRANCH   2  15
ATOM     15  C   UNL     1      47.622   6.669  12.293  0.00  0.00    +0.000 C 
BRANCH  15  16
ATOM     16  O   UNL     1      47.984   7.202  13.573  0.00  0.00    +0.000 OA
BRANCH  16  17
ATOM     17  C   UNL     1      47.927   6.236  14.561  0.00  0.00    +0.000 A 
ATOM     18  C   UNL     1      47.185   5.098  14.297  0.00  0.00    +0.000 A 
ATOM     19  C   UNL     1      47.135   4.101  15.275  0.00  0.00    +0.000 A 
ATOM     20  C   UNL     1      47.826   4.272  16.481  0.00  0.00    +0.000 A 
ATOM     21  C   UNL     1      48.531   5.453  16.647  0.00  0.00    +0.000 A 
ATOM     22  N   UNL     1      48.595   6.434  15.718  0.00  0.00    +0.000 NA
BRANCH  20  23
ATOM     23  C   UNL     1      47.783   3.204  17.508  0.00  0.00    +0.000 C 
ATOM     24  N   UNL     1      48.919   2.917  18.218  0.00  0.00    +0.000 N 
ATOM     25  O   UNL     1      46.753   2.577  17.726  0.00  0.00    +0.000 OA
ATOM     26  H   UNL     1      49.818   3.359  18.113  0.00  0.00    +0.000 HD
ATOM     27  H   UNL     1      48.846   2.174  18.900  0.00  0.00    +0.000 HD
ENDBRANCH  20  23
ENDBRANCH  16  17
ENDBRANCH  15  16
ENDBRANCH   2  15
TORSDOF 7
ENDMDL
MODEL 7
REMARK VINA RESULT:    -6.334      3.404      7.484
REMARK INTER + INTRA:         -10.003
REMARK INTER:                  -8.991
REMARK INTRA:                  -1.012
REMARK UNBOUND:                -1.077
REMARK  Name = 
REMARK  8 active torsions:
REMARK  status: ('A' for Active; 'I' for Inactive)
REMARK    1  A    between atoms: C_1  and  C_2
REMARK    2  A    between atoms: C_2  and  C_3
REMARK    3  A    between atoms: C_2  and  C_14
REMARK    4  A    between atoms: C_3  and  O_4
REMARK    5  A    between atoms: O_4  and  C_5
REMARK    6  A    between atoms: C_8  and  C_9
REMARK    7  A    between atoms: C_18  and  O_19
REMARK    8  A    between atoms: O_19  and  C_20
REMARK                            x       y       z     vdW  Elec       q    Type
REMARK                         _______ _______ _______ _____ _____    ______ ____
ROOT
ATOM      1  C   UNL     1      49.492   9.359  11.765  0.00  0.00    +0.000 C 
ATOM      2  C   UNL     1      48.972   7.918  11.779  0.00  0.00    +0.000 C 
ENDROOT
BRANCH   2   3
ATOM      3  C   UNL     1      47.451   7.873  11.803  0.00  0.00    +0.000 A 
ATOM      4  C   UNL     1      46.715   9.031  12.083  0.00  0.00    +0.000 A 
ATOM      5  C   UNL     1      45.317   9.006  12.057  0.00  0.00    +0.000 A 
ATOM      6  C   UNL     1      44.634   7.825  11.752  0.00  0.00    +0.000 A 
ATOM      7  C   UNL     1      45.354   6.667  11.479  0.00  0.00    +0.000 A 
ATOM      8  C   UNL     1      46.750   6.695  11.499  0.00  0.00    +0.000 A 
BRANCH   7   9
ATOM      9  O   UNL     1      44.801   5.461  11.126  0.00  0.00    +0.000 OA
BRANCH   9  10
ATOM     10  C   UNL     1      44.342   4.567  12.165  0.00  0.00    +0.000 C 
ATOM     11  C   UNL     1      45.217   3.346  12.510  0.00  0.00    +0.000 C 
ATOM     12  N   UNL     1      44.062   2.450  12.338  0.00  0.00    +0.000 NA
ATOM     13  C   UNL     1      43.298   3.531  11.699  0.00  0.00    +0.000 C 
ATOM     14  H   UNL     1      43.657   2.116  13.211  0.00  0.00    +0.000 HD
ENDBRANCH   9  10
ENDBRANCH   7   9
ENDBRANCH   2   3
BRANCH   2  15
ATOM     15  C   UNL     1      49.536   7.121  12.967  0.00  0.00    +0.000 C 
BRANCH  15  16
ATOM     16  O   UNL     1      49.018   7.616  14.209  0.00  0.00    +0.000 OA
BRANCH  16  17
ATOM     17  C   UNL     1      48.674   6.585  15.063  0.00  0.00    +0.000 A 
ATOM     18  C   UNL     1      49.274   6.562  16.310  0.00  0.00    +0.000 A 
ATOM     19  C   UNL     1      48.920   5.540  17.194  0.00  0.00    +0.000 A 
ATOM     20  C   UNL     1      47.981   4.576  16.807  0.00  0.00    +0.000 A 
ATOM     21  C   UNL     1      47.448   4.685  15.532  0.00  0.00    +0.000 A 
ATOM     22  N   UNL     1      47.773   5.663  14.656  0.00  0.00    +0.000 NA
BRANCH  20  23
ATOM     23  C   UNL     1      47.597   3.503  17.754  0.00  0.00    +0.000 C 
ATOM     24  N   UNL     1      48.327   3.335  18.901  0.00  0.00    +0.000 N 
ATOM     25  O   UNL     1      46.644   2.768  17.524  0.00  0.00    +0.000 OA
ATOM     26  H   UNL     1      49.132   3.871  19.182  0.00  0.00    +0.000 HD
ATOM     27  H   UNL     1      48.036   2.583  19.512  0.00  0.00    +0.000 HD
ENDBRANCH  20  23
ENDBRANCH  16  17
ENDBRANCH  15  16
ENDBRANCH   2  15
TORSDOF 7
ENDMDL
MODEL 8
REMARK VINA RESULT:    -6.066      2.972      4.970
REMARK INTER + INTRA:          -9.625
REMARK INTER:                  -8.525
REMARK INTRA:                  -1.100
REMARK UNBOUND:                -1.077
REMARK  Name = 
REMARK  8 active torsions:
REMARK  status: ('A' for Active; 'I' for Inactive)
REMARK    1  A    between atoms: C_1  and  C_2
REMARK    2  A    between atoms: C_2  and  C_3
REMARK    3  A    between atoms: C_2  and  C_14
REMARK    4  A    between atoms: C_3  and  O_4
REMARK    5  A    between atoms: O_4  and  C_5
REMARK    6  A    between atoms: C_8  and  C_9
REMARK    7  A    between atoms: C_18  and  O_19
REMARK    8  A    between atoms: O_19  and  C_20
REMARK                            x       y       z     vdW  Elec       q    Type
REMARK                         _______ _______ _______ _____ _____    ______ ____
ROOT
ATOM      1  C   UNL     1      49.243   8.881  12.824  0.00  0.00    +0.000 C 
ATOM      2  C   UNL     1      48.113   9.060  13.843  0.00  0.00    +0.000 C 
ENDROOT
BRANCH   2   3
ATOM      3  C   UNL     1      48.459   8.418  15.179  0.00  0.00    +0.000 A 
ATOM      4  C   UNL     1      48.502   9.192  16.344  0.00  0.00    +0.000 A 
ATOM      5  C   UNL     1      48.770   8.598  17.582  0.00  0.00    +0.000 A 
ATOM      6  C   UNL     1      48.999   7.222  17.673  0.00  0.00    +0.000 A 
ATOM      7  C   UNL     1      48.965   6.443  16.521  0.00  0.00    +0.000 A 
ATOM      8  C   UNL     1      48.691   7.037  15.288  0.00  0.00    +0.000 A 
BRANCH   7   9
ATOM      9  O   UNL     1      49.131   5.081  16.487  0.00  0.00    +0.000 OA
BRANCH   9  10
ATOM     10  C   UNL     1      47.966   4.234  16.363  0.00  0.00    +0.000 C 
ATOM     11  C   UNL     1      46.879   4.330  17.453  0.00  0.00    +0.000 C 
ATOM     12  N   UNL     1      46.929   2.873  17.652  0.00  0.00    +0.000 NA
ATOM     13  C   UNL     1      48.170   2.791  16.870  0.00  0.00    +0.000 C 
ATOM     14  H   UNL     1      46.146   2.367  17.242  0.00  0.00    +0.000 HD
ENDBRANCH   9  10
ENDBRANCH   7   9
ENDBRANCH   2   3
BRANCH   2  15
ATOM     15  C   UNL     1      46.781   8.495  13.322  0.00  0.00    +0.000 C 
BRANCH  15  16
ATOM     16  O   UNL     1      46.957   7.866  12.045  0.00  0.00    +0.000 OA
BRANCH  16  17
ATOM     17  C   UNL     1      46.272   6.667  11.971  0.00  0.00    +0.000 A 
ATOM     18  C   UNL     1      46.074   5.971  13.151  0.00  0.00    +0.000 A 
ATOM     19  C   UNL     1      45.365   4.769  13.098  0.00  0.00    +0.000 A 
ATOM     20  C   UNL     1      44.875   4.301  11.872  0.00  0.00    +0.000 A 
ATOM     21  C   UNL     1      45.136   5.071  10.749  0.00  0.00    +0.000 A 
ATOM     22  N   UNL     1      45.821   6.237  10.772  0.00  0.00    +0.000 NA
BRANCH  20  23
ATOM     23  C   UNL     1      44.108   3.035  11.823  0.00  0.00    +0.000 C 
ATOM     24  N   UNL     1      44.026   2.350  10.639  0.00  0.00    +0.000 N 
ATOM     25  O   UNL     1      43.548   2.597  12.821  0.00  0.00    +0.000 OA
ATOM     26  H   UNL     1      44.436   2.624   9.761  0.00  0.00    +0.000 HD
ATOM     27  H   UNL     1      43.483   1.497  10.651  0.00  0.00    +0.000 HD
ENDBRANCH  20  23
ENDBRANCH  16  17
ENDBRANCH  15  16
ENDBRANCH   2  15
TORSDOF 7
ENDMDL
MODEL 9
REMARK VINA RESULT:    -6.020      3.760      5.603
REMARK INTER + INTRA:          -9.561
REMARK INTER:                  -9.030
REMARK INTRA:                  -0.531
REMARK UNBOUND:                -1.077
REMARK  Name = 
REMARK  8 active torsions:
REMARK  status: ('A' for Active; 'I' for Inactive)
REMARK    1  A    between atoms: C_1  and  C_2
REMARK    2  A    between atoms: C_2  and  C_3
REMARK    3  A    between atoms: C_2  and  C_14
REMARK    4  A    between atoms: C_3  and  O_4
REMARK    5  A    between atoms: O_4  and  C_5
REMARK    6  A    between atoms: C_8  and  C_9
REMARK    7  A    between atoms: C_18  and  O_19
REMARK    8  A    between atoms: O_19  and  C_20
REMARK                            x       y       z     vdW  Elec       q    Type
REMARK                         _______ _______ _______ _____ _____    ______ ____
ROOT
ATOM      1  C   UNL     1      48.947   9.254  15.280  0.00  0.00    +0.000 C 
ATOM      2  C   UNL     1      48.618   7.768  15.102  0.00  0.00    +0.000 C 
ENDROOT
BRANCH   2   3
ATOM      3  C   UNL     1      49.574   6.886  15.891  0.00  0.00    +0.000 A 
ATOM      4  C   UNL     1      50.958   7.082  15.796  0.00  0.00    +0.000 A 
ATOM      5  C   UNL     1      51.838   6.307  16.558  0.00  0.00    +0.000 A 
ATOM      6  C   UNL     1      51.351   5.324  17.425  0.00  0.00    +0.000 A 
ATOM      7  C   UNL     1      49.980   5.115  17.522  0.00  0.00    +0.000 A 
ATOM      8  C   UNL     1      49.101   5.894  16.766  0.00  0.00    +0.000 A 
BRANCH   7   9
ATOM      9  O   UNL     1      49.379   4.214  18.365  0.00  0.00    +0.000 OA
BRANCH   9  10
ATOM     10  C   UNL     1      49.212   2.846  17.929  0.00  0.00    +0.000 C 
ATOM     11  C   UNL     1      50.372   2.183  17.160  0.00  0.00    +0.000 C 
ATOM     12  N   UNL     1      49.454   1.799  16.076  0.00  0.00    +0.000 NA
ATOM     13  C   UNL     1      48.416   2.688  16.615  0.00  0.00    +0.000 C 
ATOM     14  H   UNL     1      49.196   0.813  16.074  0.00  0.00    +0.000 HD
ENDBRANCH   9  10
ENDBRANCH   7   9
ENDBRANCH   2   3
BRANCH   2  15
ATOM     15  C   UNL     1      48.631   7.355  13.621  0.00  0.00    +0.000 C 
BRANCH  15  16
ATOM     16  O   UNL     1      48.383   5.950  13.478  0.00  0.00    +0.000 OA
BRANCH  16  17
ATOM     17  C   UNL     1      47.088   5.702  13.061  0.00  0.00    +0.000 A 
ATOM     18  C   UNL     1      46.479   6.659  12.268  0.00  0.00    +0.000 A 
ATOM     19  C   UNL     1      45.180   6.415  11.818  0.00  0.00    +0.000 A 
ATOM     20  C   UNL     1      44.530   5.226  12.174  0.00  0.00    +0.000 A 
ATOM     21  C   UNL     1      45.227   4.339  12.980  0.00  0.00    +0.000 A 
ATOM     22  N   UNL     1      46.485   4.552  13.429  0.00  0.00    +0.000 NA
BRANCH  20  23
ATOM     23  C   UNL     1      43.158   4.964  11.681  0.00  0.00    +0.000 C 
ATOM     24  N   UNL     1      42.237   5.977  11.705  0.00  0.00    +0.000 N 
ATOM     25  O   UNL     1      42.838   3.858  11.260  0.00  0.00    +0.000 OA
ATOM     26  H   UNL     1      42.388   6.915  12.038  0.00  0.00    +0.000 HD
ATOM     27  H   UNL     1      41.310   5.749  11.370  0.00  0.00    +0.000 HD
ENDBRANCH  20  23
ENDBRANCH  16  17
ENDBRANCH  15  16
ENDBRANCH   2  15
TORSDOF 7
ENDMDL
