MODEL 1
REMARK VINA RESULT:    -8.327      0.000      0.000
REMARK INTER + INTRA:         -12.688
REMARK INTER:                 -11.734
REMARK INTRA:                  -0.954
REMARK UNBOUND:                -0.954
REMARK  Name = 
REMARK  8 active torsions:
REMARK  status: ('A' for Active; 'I' for Inactive)
REMARK    1  A    between atoms: C_1  and  C_2
REMARK    2  A    between atoms: C_2  and  N_3
REMARK    3  A    between atoms: C_2  and  C_25
REMARK    4  A    between atoms: N_3  and  C_4
REMARK    5  A    between atoms: C_4  and  C_5
REMARK    6  A    between atoms: C_8  and  C_9
REMARK    7  A    between atoms: C_9  and  N_10
REMARK    8  A    between atoms: C_11  and  C_13
REMARK                            x       y       z     vdW  Elec       q    Type
REMARK                         _______ _______ _______ _____ _____    ______ ____
ROOT
ATOM      1  C   UNL     1      45.381   4.356  12.146  0.00  0.00    +0.000 A 
ATOM      2  C   UNL     1      46.038   3.901  13.298  0.00  0.00    +0.000 A 
ATOM      3  C   UNL     1      47.022   4.680  13.920  0.00  0.00    +0.000 A 
ATOM      4  C   UNL     1      47.363   5.938  13.407  0.00  0.00    +0.000 A 
ATOM      5  C   UNL     1      46.711   6.392  12.253  0.00  0.00    +0.000 A 
ATOM      6  C   UNL     1      45.726   5.614  11.633  0.00  0.00    +0.000 A 
ENDROOT
BRANCH   1   7
ATOM      7  C   UNL     1      44.399   3.465  11.416  0.00  0.00    +0.000 C 
BRANCH   7   8
ATOM      8  N   UNL     1      45.058   2.593  10.445  0.00  0.00    +0.000 NA
ATOM      9  H   UNL     1      44.844   1.624  10.691  0.00  0.00    +0.000 HD
BRANCH   8  11
ATOM     10  C   UNL     1      44.147   4.254   8.788  0.00  0.00    +0.000 C 
ATOM     11  C   UNL     1      44.631   2.820   9.054  0.00  0.00    +0.000 C 
BRANCH  11  12
ATOM     12  C   UNL     1      45.775   2.498   8.111  0.00  0.00    +0.000 A 
ATOM     13  C   UNL     1      46.327   3.460   7.254  0.00  0.00    +0.000 A 
ATOM     14  C   UNL     1      47.374   3.118   6.404  0.00  0.00    +0.000 A 
ATOM     15  C   UNL     1      47.843   1.816   6.435  0.00  0.00    +0.000 A 
ATOM     16  N   UNL     1      47.336   0.855   7.237  0.00  0.00    +0.000 NA
ATOM     17  C   UNL     1      46.318   1.218   8.052  0.00  0.00    +0.000 A 
ENDBRANCH  11  12
ENDBRANCH   8  11
ENDBRANCH   7   8
ENDBRANCH   1   7
BRANCH   4  18
ATOM     18  C   UNL     1      48.445   6.771  14.045  0.00  0.00    +0.000 C 
BRANCH  18  19
ATOM     19  N   UNL     1      48.199   6.967  15.451  0.00  0.00    +0.000 N 
ATOM     20  C   UNL     1      49.110   6.576  16.397  0.00  0.00    +0.000 C 
ATOM     21  O   UNL     1      50.195   6.088  16.093  0.00  0.00    +0.000 OA
ATOM     22  H   UNL     1      47.235   7.139  15.730  0.00  0.00    +0.000 HD
BRANCH  20  23
ATOM     23  C   UNL     1      48.751   6.826  17.799  0.00  0.00    +0.000 A 
ATOM     24  C   UNL     1      48.470   8.119  18.220  0.00  0.00    +0.000 A 
ATOM     25  S   UNL     1      48.050   8.226  19.868  0.00  0.00    +0.000 S 
ATOM     26  C   UNL     1      48.271   6.555  20.091  0.00  0.00    +0.000 A 
ATOM     27  N   UNL     1      48.102   5.983  21.313  0.00  0.00    +0.000 NA
ATOM     28  C   UNL     1      48.326   4.713  21.342  0.00  0.00    +0.000 A 
ATOM     29  N   UNL     1      48.694   3.958  20.257  0.00  0.00    +0.000 N 
ATOM     30  C   UNL     1      48.853   4.488  19.000  0.00  0.00    +0.000 A 
ATOM     31  O   UNL     1      49.146   3.775  18.042  0.00  0.00    +0.000 OA
ATOM     32  C   UNL     1      48.633   5.916  18.917  0.00  0.00    +0.000 A 
ATOM     33  H   UNL     1      48.841   2.964  20.347  0.00  0.00    +0.000 HD
ENDBRANCH  20  23
ENDBRANCH  18  19
ENDBRANCH   4  18
TORSDOF 7
ENDMDL
MODEL 2
REMARK VINA RESULT:    -8.245      1.902      2.371
REMARK INTER + INTRA:         -12.574
REMARK INTER:                 -11.649
REMARK INTRA:                  -0.924
REMARK UNBOUND:                -0.954
REMARK  Name = 
REMARK  8 active torsions:
REMARK  status: ('A' for Active; 'I' for Inactive)
REMARK    1  A    between atoms: C_1  and  C_2
REMARK    2  A    between atoms: C_2  and  N_3
REMARK    3  A    between atoms: C_2  and  C_25
REMARK    4  A    between atoms: N_3  and  C_4
REMARK    5  A    between atoms: C_4  and  C_5
REMARK    6  A    between atoms: C_8  and  C_9
REMARK    7  A    between atoms: C_9  and  N_10
REMARK    8  A    between atoms: C_11  and  C_13
REMARK                            x       y       z     vdW  Elec       q    Type
REMARK                         _______ _______ _______ _____ _____    ______ ____
ROOT
ATOM      1  C   UNL     1      44.787   5.787  11.018  0.00  0.00    +0.000 A 
ATOM      2  C   UNL     1      44.352   7.064  11.401  0.00  0.00    +0.000 A 
ATOM      3  C   UNL     1      45.152   7.886  12.204  0.00  0.00    +0.000 A 
ATOM      4  C   UNL     1      46.412   7.451  12.634  0.00  0.00    +0.000 A 
ATOM      5  C   UNL     1      46.846   6.174  12.256  0.00  0.00    +0.000 A 
ATOM      6  C   UNL     1      46.047   5.353  11.452  0.00  0.00    +0.000 A 
ENDROOT
BRANCH   1   7
ATOM      7  C   UNL     1      43.873   4.861  10.243  0.00  0.00    +0.000 C 
BRANCH   7   8
ATOM      8  N   UNL     1      44.510   4.340   9.035  0.00  0.00    +0.000 NA
ATOM      9  H   UNL     1      45.218   5.014   8.733  0.00  0.00    +0.000 HD
BRANCH   8  11
ATOM     10  C   UNL     1      44.180   1.884   9.478  0.00  0.00    +0.000 C 
ATOM     11  C   UNL     1      45.166   3.035   9.223  0.00  0.00    +0.000 C 
BRANCH  11  12
ATOM     12  C   UNL     1      46.008   2.709   8.004  0.00  0.00    +0.000 A 
ATOM     13  C   UNL     1      46.192   3.624   6.959  0.00  0.00    +0.000 A 
ATOM     14  C   UNL     1      46.971   3.280   5.859  0.00  0.00    +0.000 A 
ATOM     15  C   UNL     1      47.548   2.021   5.834  0.00  0.00    +0.000 A 
ATOM     16  N   UNL     1      47.391   1.104   6.814  0.00  0.00    +0.000 NA
ATOM     17  C   UNL     1      46.627   1.469   7.871  0.00  0.00    +0.000 A 
ENDBRANCH  11  12
ENDBRANCH   8  11
ENDBRANCH   7   8
ENDBRANCH   1   7
BRANCH   4  18
ATOM     18  C   UNL     1      47.269   8.311  13.528  0.00  0.00    +0.000 C 
BRANCH  18  19
ATOM     19  N   UNL     1      47.633   7.616  14.737  0.00  0.00    +0.000 N 
ATOM     20  C   UNL     1      48.832   6.964  14.851  0.00  0.00    +0.000 C 
ATOM     21  O   UNL     1      49.671   6.981  13.954  0.00  0.00    +0.000 OA
ATOM     22  H   UNL     1      46.878   7.388  15.381  0.00  0.00    +0.000 HD
BRANCH  20  23
ATOM     23  C   UNL     1      49.095   6.290  16.129  0.00  0.00    +0.000 A 
ATOM     24  C   UNL     1      50.076   6.780  16.979  0.00  0.00    +0.000 A 
ATOM     25  S   UNL     1      50.233   5.894  18.427  0.00  0.00    +0.000 S 
ATOM     26  C   UNL     1      49.025   4.796  17.951  0.00  0.00    +0.000 A 
ATOM     27  N   UNL     1      48.686   3.743  18.742  0.00  0.00    +0.000 NA
ATOM     28  C   UNL     1      47.773   2.978  18.247  0.00  0.00    +0.000 A 
ATOM     29  N   UNL     1      47.159   3.174  17.036  0.00  0.00    +0.000 N 
ATOM     30  C   UNL     1      47.453   4.236  16.215  0.00  0.00    +0.000 A 
ATOM     31  O   UNL     1      46.855   4.403  15.154  0.00  0.00    +0.000 OA
ATOM     32  C   UNL     1      48.487   5.115  16.717  0.00  0.00    +0.000 A 
ATOM     33  H   UNL     1      46.442   2.543  16.713  0.00  0.00    +0.000 HD
ENDBRANCH  20  23
ENDBRANCH  18  19
ENDBRANCH   4  18
TORSDOF 7
ENDMDL
MODEL 3
REMARK VINA RESULT:    -8.125      1.267      2.096
REMARK INTER + INTRA:         -12.404
REMARK INTER:                 -11.244
REMARK INTRA:                  -1.160
REMARK UNBOUND:                -0.954
REMARK  Name = 
REMARK  8 active torsions:
REMARK  status: ('A' for Active; 'I' for Inactive)
REMARK    1  A    between atoms: C_1  and  C_2
REMARK    2  A    between atoms: C_2  and  N_3
REMARK    3  A    between atoms: C_2  and  C_25
REMARK    4  A    between atoms: N_3  and  C_4
REMARK    5  A    between atoms: C_4  and  C_5
REMARK    6  A    between atoms: C_8  and  C_9
REMARK    7  A    between atoms: C_9  and  N_10
REMARK    8  A    between atoms: C_11  and  C_13
REMARK                            x       y       z     vdW  Elec       q    Type
REMARK                         _______ _______ _______ _____ _____    ______ ____
ROOT
ATOM      1  C   UNL     1      45.500   4.295  12.121  0.00  0.00    +0.000 A 
ATOM      2  C   UNL     1      45.814   5.594  11.695  0.00  0.00    +0.000 A 
ATOM      3  C   UNL     1      46.718   6.387  12.412  0.00  0.00    +0.000 A 
ATOM      4  C   UNL     1      47.338   5.893  13.566  0.00  0.00    +0.000 A 
ATOM      5  C   UNL     1      47.022   4.597  13.996  0.00  0.00    +0.000 A 
ATOM      6  C   UNL     1      46.119   3.804  13.278  0.00  0.00    +0.000 A 
ENDROOT
BRANCH   1   7
ATOM      7  C   UNL     1      44.440   3.484  11.406  0.00  0.00    +0.000 C 
BRANCH   7   8
ATOM      8  N   UNL     1      45.017   2.546  10.444  0.00  0.00    +0.000 NA
ATOM      9  H   UNL     1      44.708   1.604  10.694  0.00  0.00    +0.000 HD
BRANCH   8  11
ATOM     10  C   UNL     1      44.182   4.256   8.796  0.00  0.00    +0.000 C 
ATOM     11  C   UNL     1      44.621   2.805   9.049  0.00  0.00    +0.000 C 
BRANCH  11  12
ATOM     12  C   UNL     1      45.774   2.465   8.122  0.00  0.00    +0.000 A 
ATOM     13  C   UNL     1      46.359   3.420   7.280  0.00  0.00    +0.000 A 
ATOM     14  C   UNL     1      47.413   3.063   6.445  0.00  0.00    +0.000 A 
ATOM     15  C   UNL     1      47.853   1.751   6.474  0.00  0.00    +0.000 A 
ATOM     16  N   UNL     1      47.314   0.795   7.262  0.00  0.00    +0.000 NA
ATOM     17  C   UNL     1      46.291   1.174   8.064  0.00  0.00    +0.000 A 
ENDBRANCH  11  12
ENDBRANCH   8  11
ENDBRANCH   7   8
ENDBRANCH   1   7
BRANCH   4  18
ATOM     18  C   UNL     1      48.286   6.748  14.367  0.00  0.00    +0.000 C 
BRANCH  18  19
ATOM     19  N   UNL     1      48.132   6.524  15.782  0.00  0.00    +0.000 N 
ATOM     20  C   UNL     1      49.196   6.170  16.568  0.00  0.00    +0.000 C 
ATOM     21  O   UNL     1      50.335   6.077  16.120  0.00  0.00    +0.000 OA
ATOM     22  H   UNL     1      47.186   6.361  16.121  0.00  0.00    +0.000 HD
BRANCH  20  23
ATOM     23  C   UNL     1      48.920   5.967  17.997  0.00  0.00    +0.000 A 
ATOM     24  C   UNL     1      49.191   4.739  18.585  0.00  0.00    +0.000 A 
ATOM     25  S   UNL     1      48.833   4.684  20.250  0.00  0.00    +0.000 S 
ATOM     26  C   UNL     1      48.263   6.286  20.238  0.00  0.00    +0.000 A 
ATOM     27  N   UNL     1      47.765   6.860  21.365  0.00  0.00    +0.000 NA
ATOM     28  C   UNL     1      47.346   8.069  21.206  0.00  0.00    +0.000 A 
ATOM     29  N   UNL     1      47.387   8.763  20.024  0.00  0.00    +0.000 N 
ATOM     30  C   UNL     1      47.902   8.232  18.866  0.00  0.00    +0.000 A 
ATOM     31  O   UNL     1      47.959   8.896  17.833  0.00  0.00    +0.000 OA
ATOM     32  C   UNL     1      48.369   6.867  18.987  0.00  0.00    +0.000 A 
ATOM     33  H   UNL     1      47.053   9.713  19.971  0.00  0.00    +0.000 HD
ENDBRANCH  20  23
ENDBRANCH  18  19
ENDBRANCH   4  18
TORSDOF 7
ENDMDL
MODEL 4
REMARK VINA RESULT:    -7.710      3.329      9.192
REMARK INTER + INTRA:         -11.820
REMARK INTER:                 -10.168
REMARK INTRA:                  -1.652
REMARK UNBOUND:                -0.954
REMARK  Name = 
REMARK  8 active torsions:
REMARK  status: ('A' for Active; 'I' for Inactive)
REMARK    1  A    between atoms: C_1  and  C_2
REMARK    2  A    between atoms: C_2  and  N_3
REMARK    3  A    between atoms: C_2  and  C_25
REMARK    4  A    between atoms: N_3  and  C_4
REMARK    5  A    between atoms: C_4  and  C_5
REMARK    6  A    between atoms: C_8  and  C_9
REMARK    7  A    between atoms: C_9  and  N_10
REMARK    8  A    between atoms: C_11  and  C_13
REMARK                            x       y       z     vdW  Elec       q    Type
REMARK                         _______ _______ _______ _____ _____    ______ ____
ROOT
ATOM      1  C   UNL     1      48.687   8.031  16.130  0.00  0.00    +0.000 A 
ATOM      2  C   UNL     1      48.901   6.838  15.424  0.00  0.00    +0.000 A 
ATOM      3  C   UNL     1      48.562   6.733  14.070  0.00  0.00    +0.000 A 
ATOM      4  C   UNL     1      48.010   7.825  13.388  0.00  0.00    +0.000 A 
ATOM      5  C   UNL     1      47.792   9.016  14.093  0.00  0.00    +0.000 A 
ATOM      6  C   UNL     1      48.132   9.121  15.446  0.00  0.00    +0.000 A 
ENDROOT
BRANCH   1   7
ATOM      7  C   UNL     1      48.953   8.104  17.619  0.00  0.00    +0.000 C 
BRANCH   7   8
ATOM      8  N   UNL     1      47.868   7.517  18.404  0.00  0.00    +0.000 NA
ATOM      9  H   UNL     1      47.152   7.182  17.755  0.00  0.00    +0.000 HD
BRANCH   8  11
ATOM     10  C   UNL     1      47.441   6.219  20.518  0.00  0.00    +0.000 C 
ATOM     11  C   UNL     1      48.289   6.386  19.248  0.00  0.00    +0.000 C 
BRANCH  11  12
ATOM     12  C   UNL     1      48.235   5.101  18.442  0.00  0.00    +0.000 A 
ATOM     13  C   UNL     1      49.373   4.314  18.218  0.00  0.00    +0.000 A 
ATOM     14  C   UNL     1      49.276   3.144  17.471  0.00  0.00    +0.000 A 
ATOM     15  C   UNL     1      48.037   2.794  16.963  0.00  0.00    +0.000 A 
ATOM     16  N   UNL     1      46.917   3.526  17.145  0.00  0.00    +0.000 NA
ATOM     17  C   UNL     1      47.043   4.658  17.877  0.00  0.00    +0.000 A 
ENDBRANCH  11  12
ENDBRANCH   8  11
ENDBRANCH   7   8
ENDBRANCH   1   7
BRANCH   4  18
ATOM     18  C   UNL     1      47.608   7.715  11.939  0.00  0.00    +0.000 C 
BRANCH  18  19
ATOM     19  N   UNL     1      46.899   6.487  11.681  0.00  0.00    +0.000 N 
ATOM     20  C   UNL     1      45.547   6.390  11.874  0.00  0.00    +0.000 C 
ATOM     21  O   UNL     1      44.868   7.351  12.226  0.00  0.00    +0.000 OA
ATOM     22  H   UNL     1      47.457   5.638  11.625  0.00  0.00    +0.000 HD
BRANCH  20  23
ATOM     23  C   UNL     1      44.932   5.090  11.578  0.00  0.00    +0.000 A 
ATOM     24  C   UNL     1      44.213   4.425  12.562  0.00  0.00    +0.000 A 
ATOM     25  S   UNL     1      43.549   2.944  12.043  0.00  0.00    +0.000 S 
ATOM     26  C   UNL     1      44.233   3.115  10.496  0.00  0.00    +0.000 A 
ATOM     27  N   UNL     1      44.073   2.152   9.550  0.00  0.00    +0.000 NA
ATOM     28  C   UNL     1      44.665   2.401   8.431  0.00  0.00    +0.000 A 
ATOM     29  N   UNL     1      45.397   3.531   8.167  0.00  0.00    +0.000 N 
ATOM     30  C   UNL     1      45.566   4.540   9.085  0.00  0.00    +0.000 A 
ATOM     31  O   UNL     1      46.196   5.557   8.801  0.00  0.00    +0.000 OA
ATOM     32  C   UNL     1      44.937   4.300  10.365  0.00  0.00    +0.000 A 
ATOM     33  H   UNL     1      45.825   3.669   7.265  0.00  0.00    +0.000 HD
ENDBRANCH  20  23
ENDBRANCH  18  19
ENDBRANCH   4  18
TORSDOF 7
ENDMDL
MODEL 5
REMARK VINA RESULT:    -7.384      3.644      8.746
REMARK INTER + INTRA:         -11.361
REMARK INTER:                  -9.817
REMARK INTRA:                  -1.544
REMARK UNBOUND:                -0.954
REMARK  Name = 
REMARK  8 active torsions:
REMARK  status: ('A' for Active; 'I' for Inactive)
REMARK    1  A    between atoms: C_1  and  C_2
REMARK    2  A    between atoms: C_2  and  N_3
REMARK    3  A    between atoms: C_2  and  C_25
REMARK    4  A    between atoms: N_3  and  C_4
REMARK    5  A    between atoms: C_4  and  C_5
REMARK    6  A    between atoms: C_8  and  C_9
REMARK    7  A    between atoms: C_9  and  N_10
REMARK    8  A    between atoms: C_11  and  C_13
REMARK                            x       y       z     vdW  Elec       q    Type
REMARK                         _______ _______ _______ _____ _____    ______ ____
ROOT
ATOM      1  C   UNL     1      48.751   8.054  16.148  0.00  0.00    +0.000 A 
ATOM      2  C   UNL     1      48.610   9.270  15.465  0.00  0.00    +0.000 A 
ATOM      3  C   UNL     1      48.484   9.301  14.070  0.00  0.00    +0.000 A 
ATOM      4  C   UNL     1      48.487   8.113  13.329  0.00  0.00    +0.000 A 
ATOM      5  C   UNL     1      48.633   6.897  14.010  0.00  0.00    +0.000 A 
ATOM      6  C   UNL     1      48.756   6.866  15.404  0.00  0.00    +0.000 A 
ENDROOT
BRANCH   1   7
ATOM      7  C   UNL     1      48.997   8.033  17.642  0.00  0.00    +0.000 C 
BRANCH   7   8
ATOM      8  N   UNL     1      47.888   7.425  18.376  0.00  0.00    +0.000 NA
ATOM      9  H   UNL     1      47.192   7.109  17.697  0.00  0.00    +0.000 HD
BRANCH   8  11
ATOM     10  C   UNL     1      47.410   6.088  20.454  0.00  0.00    +0.000 C 
ATOM     11  C   UNL     1      48.282   6.272  19.203  0.00  0.00    +0.000 C 
BRANCH  11  12
ATOM     12  C   UNL     1      48.229   5.006  18.368  0.00  0.00    +0.000 A 
ATOM     13  C   UNL     1      49.370   4.236  18.109  0.00  0.00    +0.000 A 
ATOM     14  C   UNL     1      49.274   3.083  17.336  0.00  0.00    +0.000 A 
ATOM     15  C   UNL     1      48.031   2.731  16.840  0.00  0.00    +0.000 A 
ATOM     16  N   UNL     1      46.906   3.446  17.057  0.00  0.00    +0.000 NA
ATOM     17  C   UNL     1      47.032   4.563  17.812  0.00  0.00    +0.000 A 
ENDBRANCH  11  12
ENDBRANCH   8  11
ENDBRANCH   7   8
ENDBRANCH   1   7
BRANCH   4  18
ATOM     18  C   UNL     1      48.388   8.134  11.825  0.00  0.00    +0.000 C 
BRANCH  18  19
ATOM     19  N   UNL     1      47.659   6.994  11.328  0.00  0.00    +0.000 N 
ATOM     20  C   UNL     1      46.290   6.978  11.306  0.00  0.00    +0.000 C 
ATOM     21  O   UNL     1      45.621   7.946  11.658  0.00  0.00    +0.000 OA
ATOM     22  H   UNL     1      48.170   6.116  11.262  0.00  0.00    +0.000 HD
BRANCH  20  23
ATOM     23  C   UNL     1      45.656   5.763  10.778  0.00  0.00    +0.000 A 
ATOM     24  C   UNL     1      45.754   5.464   9.426  0.00  0.00    +0.000 A 
ATOM     25  S   UNL     1      44.982   4.008   8.989  0.00  0.00    +0.000 S 
ATOM     26  C   UNL     1      44.450   3.747  10.583  0.00  0.00    +0.000 A 
ATOM     27  N   UNL     1      43.687   2.666  10.898  0.00  0.00    +0.000 NA
ATOM     28  C   UNL     1      43.334   2.606  12.137  0.00  0.00    +0.000 A 
ATOM     29  N   UNL     1      43.684   3.523  13.096  0.00  0.00    +0.000 N 
ATOM     30  C   UNL     1      44.472   4.616  12.829  0.00  0.00    +0.000 A 
ATOM     31  O   UNL     1      44.799   5.397  13.721  0.00  0.00    +0.000 OA
ATOM     32  C   UNL     1      44.879   4.741  11.446  0.00  0.00    +0.000 A 
ATOM     33  H   UNL     1      43.384   3.409  14.052  0.00  0.00    +0.000 HD
ENDBRANCH  20  23
ENDBRANCH  18  19
ENDBRANCH   4  18
TORSDOF 7
ENDMDL
MODEL 6
REMARK VINA RESULT:    -7.229      3.196      4.271
REMARK INTER + INTRA:         -11.142
REMARK INTER:                  -9.999
REMARK INTRA:                  -1.143
REMARK UNBOUND:                -0.954
REMARK  Name = 
REMARK  8 active torsions:
REMARK  status: ('A' for Active; 'I' for Inactive)
REMARK    1  A    between atoms: C_1  and  C_2
REMARK    2  A    between atoms: C_2  and  N_3
REMARK    3  A    between atoms: C_2  and  C_25
REMARK    4  A    between atoms: N_3  and  C_4
REMARK    5  A    between atoms: C_4  and  C_5
REMARK    6  A    between atoms: C_8  and  C_9
REMARK    7  A    between atoms: C_9  and  N_10
REMARK    8  A    between atoms: C_11  and  C_13
REMARK                            x       y       z     vdW  Elec       q    Type
REMARK                         _______ _______ _______ _____ _____    ______ ____
ROOT
ATOM      1  C   UNL     1      46.799   4.802  14.130  0.00  0.00    +0.000 A 
ATOM      2  C   UNL     1      47.526   5.929  13.718  0.00  0.00    +0.000 A 
ATOM      3  C   UNL     1      48.476   6.519  14.561  0.00  0.00    +0.000 A 
ATOM      4  C   UNL     1      48.727   5.988  15.832  0.00  0.00    +0.000 A 
ATOM      5  C   UNL     1      47.999   4.865  16.246  0.00  0.00    +0.000 A 
ATOM      6  C   UNL     1      47.051   4.274  15.403  0.00  0.00    +0.000 A 
ENDROOT
BRANCH   1   7
ATOM      7  C   UNL     1      45.698   4.235  13.259  0.00  0.00    +0.000 C 
BRANCH   7   8
ATOM      8  N   UNL     1      44.938   5.281  12.577  0.00  0.00    +0.000 NA
ATOM      9  H   UNL     1      45.581   5.797  11.972  0.00  0.00    +0.000 HD
BRANCH   8  11
ATOM     10  C   UNL     1      42.820   5.851  11.342  0.00  0.00    +0.000 C 
ATOM     11  C   UNL     1      43.834   4.770  11.747  0.00  0.00    +0.000 C 
BRANCH  11  12
ATOM     12  C   UNL     1      44.396   4.122  10.495  0.00  0.00    +0.000 A 
ATOM     13  C   UNL     1      45.147   4.842   9.556  0.00  0.00    +0.000 A 
ATOM     14  C   UNL     1      45.641   4.207   8.422  0.00  0.00    +0.000 A 
ATOM     15  C   UNL     1      45.367   2.860   8.256  0.00  0.00    +0.000 A 
ATOM     16  N   UNL     1      44.641   2.128   9.129  0.00  0.00    +0.000 NA
ATOM     17  C   UNL     1      44.175   2.775  10.223  0.00  0.00    +0.000 A 
ENDBRANCH  11  12
ENDBRANCH   8  11
ENDBRANCH   7   8
ENDBRANCH   1   7
BRANCH   4  18
ATOM     18  C   UNL     1      49.721   6.635  16.763  0.00  0.00    +0.000 C 
BRANCH  18  19
ATOM     19  N   UNL     1      50.748   5.707  17.165  0.00  0.00    +0.000 N 
ATOM     20  C   UNL     1      50.821   5.236  18.448  0.00  0.00    +0.000 C 
ATOM     21  O   UNL     1      49.992   5.539  19.302  0.00  0.00    +0.000 OA
ATOM     22  H   UNL     1      51.563   5.634  16.559  0.00  0.00    +0.000 HD
BRANCH  20  23
ATOM     23  C   UNL     1      51.910   4.295  18.743  0.00  0.00    +0.000 A 
ATOM     24  C   UNL     1      52.951   4.682  19.575  0.00  0.00    +0.000 A 
ATOM     25  S   UNL     1      54.115   3.462  19.828  0.00  0.00    +0.000 S 
ATOM     26  C   UNL     1      53.293   2.387  18.799  0.00  0.00    +0.000 A 
ATOM     27  N   UNL     1      53.787   1.146  18.546  0.00  0.00    +0.000 NA
ATOM     28  C   UNL     1      53.075   0.446  17.730  0.00  0.00    +0.000 A 
ATOM     29  N   UNL     1      51.906   0.869  17.149  0.00  0.00    +0.000 N 
ATOM     30  C   UNL     1      51.357   2.105  17.395  0.00  0.00    +0.000 A 
ATOM     31  O   UNL     1      50.288   2.436  16.888  0.00  0.00    +0.000 OA
ATOM     32  C   UNL     1      52.130   2.938  18.290  0.00  0.00    +0.000 A 
ATOM     33  H   UNL     1      51.390   0.264  16.528  0.00  0.00    +0.000 HD
ENDBRANCH  20  23
ENDBRANCH  18  19
ENDBRANCH   4  18
TORSDOF 7
ENDMDL
MODEL 7
REMARK VINA RESULT:    -7.127      3.777      8.820
REMARK INTER + INTRA:         -10.998
REMARK INTER:                  -8.835
REMARK INTRA:                  -2.162
REMARK UNBOUND:                -0.954
REMARK  Name = 
REMARK  8 active torsions:
REMARK  status: ('A' for Active; 'I' for Inactive)
REMARK    1  A    between atoms: C_1  and  C_2
REMARK    2  A    between atoms: C_2  and  N_3
REMARK    3  A    between atoms: C_2  and  C_25
REMARK    4  A    between atoms: N_3  and  C_4
REMARK    5  A    between atoms: C_4  and  C_5
REMARK    6  A    between atoms: C_8  and  C_9
REMARK    7  A    between atoms: C_9  and  N_10
REMARK    8  A    between atoms: C_11  and  C_13
REMARK                            x       y       z     vdW  Elec       q    Type
REMARK                         _______ _______ _______ _____ _____    ______ ____
ROOT
ATOM      1  C   UNL     1      49.633   7.692  18.478  0.00  0.00    +0.000 A 
ATOM      2  C   UNL     1      50.351   7.189  17.384  0.00  0.00    +0.000 A 
ATOM      3  C   UNL     1      49.944   7.458  16.071  0.00  0.00    +0.000 A 
ATOM      4  C   UNL     1      48.813   8.247  15.825  0.00  0.00    +0.000 A 
ATOM      5  C   UNL     1      48.092   8.746  16.917  0.00  0.00    +0.000 A 
ATOM      6  C   UNL     1      48.500   8.479  18.229  0.00  0.00    +0.000 A 
ENDROOT
BRANCH   1   7
ATOM      7  C   UNL     1      50.013   7.307  19.893  0.00  0.00    +0.000 C 
BRANCH   7   8
ATOM      8  N   UNL     1      50.340   5.887  20.011  0.00  0.00    +0.000 NA
ATOM      9  H   UNL     1      50.965   5.771  20.812  0.00  0.00    +0.000 HD
BRANCH   8  11
ATOM     10  C   UNL     1      47.980   5.740  20.875  0.00  0.00    +0.000 C 
ATOM     11  C   UNL     1      49.166   5.021  20.212  0.00  0.00    +0.000 C 
BRANCH  11  12
ATOM     12  C   UNL     1      48.720   4.450  18.879  0.00  0.00    +0.000 A 
ATOM     13  C   UNL     1      47.500   4.804  18.288  0.00  0.00    +0.000 A 
ATOM     14  C   UNL     1      47.131   4.254  17.065  0.00  0.00    +0.000 A 
ATOM     15  C   UNL     1      47.997   3.357  16.463  0.00  0.00    +0.000 A 
ATOM     16  N   UNL     1      49.179   2.980  17.000  0.00  0.00    +0.000 NA
ATOM     17  C   UNL     1      49.509   3.534  18.191  0.00  0.00    +0.000 A 
ENDBRANCH  11  12
ENDBRANCH   8  11
ENDBRANCH   7   8
ENDBRANCH   1   7
BRANCH   4  18
ATOM     18  C   UNL     1      48.343   8.515  14.418  0.00  0.00    +0.000 C 
BRANCH  18  19
ATOM     19  N   UNL     1      47.316   7.586  14.019  0.00  0.00    +0.000 N 
ATOM     20  C   UNL     1      47.616   6.454  13.309  0.00  0.00    +0.000 C 
ATOM     21  O   UNL     1      48.770   6.151  13.022  0.00  0.00    +0.000 OA
ATOM     22  H   UNL     1      46.357   7.927  14.032  0.00  0.00    +0.000 HD
BRANCH  20  23
ATOM     23  C   UNL     1      46.488   5.581  12.957  0.00  0.00    +0.000 A 
ATOM     24  C   UNL     1      46.568   4.217  13.203  0.00  0.00    +0.000 A 
ATOM     25  S   UNL     1      45.165   3.357  12.757  0.00  0.00    +0.000 S 
ATOM     26  C   UNL     1      44.416   4.770  12.179  0.00  0.00    +0.000 A 
ATOM     27  N   UNL     1      43.178   4.726  11.618  0.00  0.00    +0.000 NA
ATOM     28  C   UNL     1      42.742   5.866  11.201  0.00  0.00    +0.000 A 
ATOM     29  N   UNL     1      43.426   7.051  11.301  0.00  0.00    +0.000 N 
ATOM     30  C   UNL     1      44.669   7.146  11.881  0.00  0.00    +0.000 A 
ATOM     31  O   UNL     1      45.237   8.231  11.990  0.00  0.00    +0.000 OA
ATOM     32  C   UNL     1      45.212   5.889  12.348  0.00  0.00    +0.000 A 
ATOM     33  H   UNL     1      43.021   7.911  10.965  0.00  0.00    +0.000 HD
ENDBRANCH  20  23
ENDBRANCH  18  19
ENDBRANCH   4  18
TORSDOF 7
ENDMDL
MODEL 8
REMARK VINA RESULT:    -6.821      4.859      6.469
REMARK INTER + INTRA:         -10.567
REMARK INTER:                  -9.225
REMARK INTRA:                  -1.342
REMARK UNBOUND:                -0.954
REMARK  Name = 
REMARK  8 active torsions:
REMARK  status: ('A' for Active; 'I' for Inactive)
REMARK    1  A    between atoms: C_1  and  C_2
REMARK    2  A    between atoms: C_2  and  N_3
REMARK    3  A    between atoms: C_2  and  C_25
REMARK    4  A    between atoms: N_3  and  C_4
REMARK    5  A    between atoms: C_4  and  C_5
REMARK    6  A    between atoms: C_8  and  C_9
REMARK    7  A    between atoms: C_9  and  N_10
REMARK    8  A    between atoms: C_11  and  C_13
REMARK                            x       y       z     vdW  Elec       q    Type
REMARK                         _______ _______ _______ _____ _____    ______ ____
ROOT
ATOM      1  C   UNL     1      45.637   5.773  12.904  0.00  0.00    +0.000 A 
ATOM      2  C   UNL     1      44.833   6.854  12.514  0.00  0.00    +0.000 A 
ATOM      3  C   UNL     1      45.381   8.129  12.332  0.00  0.00    +0.000 A 
ATOM      4  C   UNL     1      46.751   8.349  12.526  0.00  0.00    +0.000 A 
ATOM      5  C   UNL     1      47.555   7.271  12.919  0.00  0.00    +0.000 A 
ATOM      6  C   UNL     1      47.007   5.996  13.100  0.00  0.00    +0.000 A 
ENDROOT
BRANCH   1   7
ATOM      7  C   UNL     1      45.021   4.423  13.206  0.00  0.00    +0.000 C 
BRANCH   7   8
ATOM      8  N   UNL     1      45.454   3.394  12.263  0.00  0.00    +0.000 NA
ATOM      9  H   UNL     1      45.659   2.543  12.792  0.00  0.00    +0.000 HD
BRANCH   8  11
ATOM     10  C   UNL     1      43.184   3.934  11.319  0.00  0.00    +0.000 C 
ATOM     11  C   UNL     1      44.451   3.067  11.236  0.00  0.00    +0.000 C 
BRANCH  11  12
ATOM     12  C   UNL     1      45.066   3.217   9.857  0.00  0.00    +0.000 A 
ATOM     13  C   UNL     1      45.473   2.111   9.099  0.00  0.00    +0.000 A 
ATOM     14  C   UNL     1      46.035   2.297   7.839  0.00  0.00    +0.000 A 
ATOM     15  C   UNL     1      46.176   3.592   7.371  0.00  0.00    +0.000 A 
ATOM     16  N   UNL     1      45.807   4.687   8.070  0.00  0.00    +0.000 NA
ATOM     17  C   UNL     1      45.263   4.474   9.291  0.00  0.00    +0.000 A 
ENDBRANCH  11  12
ENDBRANCH   8  11
ENDBRANCH   7   8
ENDBRANCH   1   7
BRANCH   4  18
ATOM     18  C   UNL     1      47.348   9.724  12.367  0.00  0.00    +0.000 C 
BRANCH  18  19
ATOM     19  N   UNL     1      48.776   9.661  12.186  0.00  0.00    +0.000 N 
ATOM     20  C   UNL     1      49.407  10.410  11.229  0.00  0.00    +0.000 C 
ATOM     21  O   UNL     1      48.799  11.203  10.516  0.00  0.00    +0.000 OA
ATOM     22  H   UNL     1      49.255   8.856  12.586  0.00  0.00    +0.000 HD
BRANCH  20  23
ATOM     23  C   UNL     1      50.866  10.263  11.136  0.00  0.00    +0.000 A 
ATOM     24  C   UNL     1      51.678  11.387  11.200  0.00  0.00    +0.000 A 
ATOM     25  S   UNL     1      53.343  11.035  11.100  0.00  0.00    +0.000 S 
ATOM     26  C   UNL     1      53.038   9.372  10.923  0.00  0.00    +0.000 A 
ATOM     27  N   UNL     1      54.056   8.488  10.752  0.00  0.00    +0.000 NA
ATOM     28  C   UNL     1      53.680   7.263  10.606  0.00  0.00    +0.000 A 
ATOM     29  N   UNL     1      52.376   6.837  10.625  0.00  0.00    +0.000 N 
ATOM     30  C   UNL     1      51.316   7.691  10.818  0.00  0.00    +0.000 A 
ATOM     31  O   UNL     1      50.163   7.270  10.869  0.00  0.00    +0.000 OA
ATOM     32  C   UNL     1      51.685   9.082  10.968  0.00  0.00    +0.000 A 
ATOM     33  H   UNL     1      52.150   5.860  10.518  0.00  0.00    +0.000 HD
ENDBRANCH  20  23
ENDBRANCH  18  19
ENDBRANCH   4  18
TORSDOF 7
ENDMDL
MODEL 9
REMARK VINA RESULT:    -6.771      3.590      8.920
REMARK INTER + INTRA:         -10.496
REMARK INTER:                  -9.399
REMARK INTRA:                  -1.098
REMARK UNBOUND:                -0.954
REMARK  Name = 
REMARK  8 active torsions:
REMARK  status: ('A' for Active; 'I' for Inactive)
REMARK    1  A    between atoms: C_1  and  C_2
REMARK    2  A    between atoms: C_2  and  N_3
REMARK    3  A    between atoms: C_2  and  C_25
REMARK    4  A    between atoms: N_3  and  C_4
REMARK    5  A    between atoms: C_4  and  C_5
REMARK    6  A    between atoms: C_8  and  C_9
REMARK    7  A    between atoms: C_9  and  N_10
REMARK    8  A    between atoms: C_11  and  C_13
REMARK                            x       y       z     vdW  Elec       q    Type
REMARK                         _______ _______ _______ _____ _____    ______ ____
ROOT
ATOM      1  C   UNL     1      48.667   6.323  17.237  0.00  0.00    +0.000 A 
ATOM      2  C   UNL     1      48.170   5.439  16.268  0.00  0.00    +0.000 A 
ATOM      3  C   UNL     1      48.123   5.806  14.917  0.00  0.00    +0.000 A 
ATOM      4  C   UNL     1      48.582   7.064  14.506  0.00  0.00    +0.000 A 
ATOM      5  C   UNL     1      49.075   7.949  15.473  0.00  0.00    +0.000 A 
ATOM      6  C   UNL     1      49.123   7.581  16.823  0.00  0.00    +0.000 A 
ENDROOT
BRANCH   1   7
ATOM      7  C   UNL     1      48.614   5.963  18.708  0.00  0.00    +0.000 C 
BRANCH   7   8
ATOM      8  N   UNL     1      49.636   4.985  19.075  0.00  0.00    +0.000 NA
ATOM      9  H   UNL     1      49.228   4.052  18.989  0.00  0.00    +0.000 HD
BRANCH   8  11
ATOM     10  C   UNL     1      51.985   5.861  18.851  0.00  0.00    +0.000 C 
ATOM     11  C   UNL     1      50.843   5.041  18.233  0.00  0.00    +0.000 C 
BRANCH  11  12
ATOM     12  C   UNL     1      51.335   3.632  17.956  0.00  0.00    +0.000 A 
ATOM     13  C   UNL     1      52.632   3.218  18.289  0.00  0.00    +0.000 A 
ATOM     14  C   UNL     1      53.041   1.917  18.014  0.00  0.00    +0.000 A 
ATOM     15  C   UNL     1      52.136   1.061  17.410  0.00  0.00    +0.000 A 
ATOM     16  N   UNL     1      50.880   1.419  17.064  0.00  0.00    +0.000 NA
ATOM     17  C   UNL     1      50.512   2.691  17.344  0.00  0.00    +0.000 A 
ENDBRANCH  11  12
ENDBRANCH   8  11
ENDBRANCH   7   8
ENDBRANCH   1   7
BRANCH   4  18
ATOM     18  C   UNL     1      48.504   7.485  13.060  0.00  0.00    +0.000 C 
BRANCH  18  19
ATOM     19  N   UNL     1      47.759   6.535  12.273  0.00  0.00    +0.000 N 
ATOM     20  C   UNL     1      46.431   6.722  11.999  0.00  0.00    +0.000 C 
ATOM     21  O   UNL     1      45.825   7.725  12.366  0.00  0.00    +0.000 OA
ATOM     22  H   UNL     1      48.165   5.607  12.169  0.00  0.00    +0.000 HD
BRANCH  20  23
ATOM     23  C   UNL     1      45.775   5.688  11.188  0.00  0.00    +0.000 A 
ATOM     24  C   UNL     1      45.903   5.710   9.806  0.00  0.00    +0.000 A 
ATOM     25  S   UNL     1      45.100   4.426   9.024  0.00  0.00    +0.000 S 
ATOM     26  C   UNL     1      44.515   3.818  10.500  0.00  0.00    +0.000 A 
ATOM     27  N   UNL     1      43.711   2.722  10.537  0.00  0.00    +0.000 NA
ATOM     28  C   UNL     1      43.322   2.386  11.720  0.00  0.00    +0.000 A 
ATOM     29  N   UNL     1      43.672   3.039  12.874  0.00  0.00    +0.000 N 
ATOM     30  C   UNL     1      44.500   4.136  12.887  0.00  0.00    +0.000 A 
ATOM     31  O   UNL     1      44.824   4.673  13.944  0.00  0.00    +0.000 OA
ATOM     32  C   UNL     1      44.949   4.566  11.581  0.00  0.00    +0.000 A 
ATOM     33  H   UNL     1      43.342   2.715  13.770  0.00  0.00    +0.000 HD
ENDBRANCH  20  23
ENDBRANCH  18  19
ENDBRANCH   4  18
TORSDOF 7
ENDMDL
