MODEL 1
REMARK VINA RESULT:    -8.643      0.000      0.000
REMARK INTER + INTRA:         -12.975
REMARK INTER:                 -12.180
REMARK INTRA:                  -0.795
REMARK UNBOUND:                -0.795
REMARK  Name = 
REMARK  7 active torsions:
REMARK  status: ('A' for Active; 'I' for Inactive)
REMARK    1  A    between atoms: C_2  and  C_20
REMARK    2  A    between atoms: N_3  and  C_4
REMARK    3  A    between atoms: C_4  and  C_5
REMARK    4  A    between atoms: C_8  and  C_9
REMARK    5  A    between atoms: C_9  and  N_10
REMARK    6  A    between atoms: N_10  and  C_11
REMARK    7  A    between atoms: C_11  and  C_12
REMARK                            x       y       z     vdW  Elec       q    Type
REMARK                         _______ _______ _______ _____ _____    ______ ____
ROOT
ATOM      1  C   UNL     1      45.349   6.511  12.205  0.00  0.00    +0.000 A 
ATOM      2  C   UNL     1      46.013   5.432  12.809  0.00  0.00    +0.000 A 
ATOM      3  C   UNL     1      47.146   5.636  13.606  0.00  0.00    +0.000 A 
ATOM      4  C   UNL     1      47.656   6.929  13.811  0.00  0.00    +0.000 A 
ATOM      5  C   UNL     1      47.002   8.003  13.202  0.00  0.00    +0.000 A 
ATOM      6  C   UNL     1      45.848   7.804  12.432  0.00  0.00    +0.000 A 
ENDROOT
BRANCH   1   7
ATOM      7  C   UNL     1      44.133   6.308  11.339  0.00  0.00    +0.000 C 
BRANCH   7  10
ATOM      8  O   UNL     1      45.993   5.775   9.203  0.00  0.00    +0.000 OA
ATOM      9  C   UNL     1      45.153   4.927   9.535  0.00  0.00    +0.000 C 
ATOM     10  N   UNL     1      44.238   5.125  10.541  0.00  0.00    +0.000 N 
ATOM     11  H   UNL     1      43.405   4.539  10.424  0.00  0.00    +0.000 HD
BRANCH   9  12
ATOM     12  C   UNL     1      45.072   3.575   8.991  0.00  0.00    +0.000 A 
ATOM     13  N   UNL     1      44.459   2.592   9.696  0.00  0.00    +0.000 NA
ATOM     14  N   UNL     1      44.949   1.471   9.145  0.00  0.00    +0.000 N 
ATOM     15  C   UNL     1      45.916   1.699   8.217  0.00  0.00    +0.000 A 
ATOM     16  C   UNL     1      46.913   0.889   7.672  0.00  0.00    +0.000 A 
ATOM     17  C   UNL     1      47.627   1.420   6.595  0.00  0.00    +0.000 A 
ATOM     18  C   UNL     1      47.298   2.667   6.056  0.00  0.00    +0.000 A 
ATOM     19  C   UNL     1      46.378   3.505   6.694  0.00  0.00    +0.000 A 
ATOM     20  C   UNL     1      45.745   3.030   7.860  0.00  0.00    +0.000 A 
ATOM     21  H   UNL     1      44.588   0.577   9.470  0.00  0.00    +0.000 HD
ENDBRANCH   9  12
ENDBRANCH   7  10
ENDBRANCH   1   7
BRANCH   4  22
ATOM     22  C   UNL     1      48.862   7.183  14.694  0.00  0.00    +0.000 C 
BRANCH  22  23
ATOM     23  N   UNL     1      48.491   7.272  16.101  0.00  0.00    +0.000 NA
ATOM     24  H   UNL     1      47.559   6.871  16.220  0.00  0.00    +0.000 HD
BRANCH  23  25
ATOM     25  C   UNL     1      49.415   6.525  16.967  0.00  0.00    +0.000 C 
BRANCH  25  26
ATOM     26  C   UNL     1      48.991   5.070  17.094  0.00  0.00    +0.000 A 
ATOM     27  C   UNL     1      47.637   4.740  17.171  0.00  0.00    +0.000 A 
ATOM     28  C   UNL     1      47.269   3.398  17.234  0.00  0.00    +0.000 A 
ATOM     29  C   UNL     1      48.258   2.424  17.244  0.00  0.00    +0.000 A 
ATOM     30  C   UNL     1      49.579   2.835  17.183  0.00  0.00    +0.000 A 
ATOM     31  N   UNL     1      49.968   4.128  17.100  0.00  0.00    +0.000 NA
ENDBRANCH  25  26
ENDBRANCH  23  25
ENDBRANCH  22  23
ENDBRANCH   4  22
TORSDOF 7
ENDMDL
MODEL 2
REMARK VINA RESULT:    -8.524      1.812      8.510
REMARK INTER + INTRA:         -12.807
REMARK INTER:                 -11.615
REMARK INTRA:                  -1.192
REMARK UNBOUND:                -0.795
REMARK  Name = 
REMARK  7 active torsions:
REMARK  status: ('A' for Active; 'I' for Inactive)
REMARK    1  A    between atoms: C_2  and  C_20
REMARK    2  A    between atoms: N_3  and  C_4
REMARK    3  A    between atoms: C_4  and  C_5
REMARK    4  A    between atoms: C_8  and  C_9
REMARK    5  A    between atoms: C_9  and  N_10
REMARK    6  A    between atoms: N_10  and  C_11
REMARK    7  A    between atoms: C_11  and  C_12
REMARK                            x       y       z     vdW  Elec       q    Type
REMARK                         _______ _______ _______ _____ _____    ______ ____
ROOT
ATOM      1  C   UNL     1      47.023   6.330  12.511  0.00  0.00    +0.000 A 
ATOM      2  C   UNL     1      46.357   5.410  13.337  0.00  0.00    +0.000 A 
ATOM      3  C   UNL     1      45.239   4.704  12.875  0.00  0.00    +0.000 A 
ATOM      4  C   UNL     1      44.746   4.909  11.576  0.00  0.00    +0.000 A 
ATOM      5  C   UNL     1      45.402   5.832  10.757  0.00  0.00    +0.000 A 
ATOM      6  C   UNL     1      46.542   6.514  11.205  0.00  0.00    +0.000 A 
ENDROOT
BRANCH   1   7
ATOM      7  C   UNL     1      48.223   7.102  12.994  0.00  0.00    +0.000 C 
BRANCH   7  10
ATOM      8  O   UNL     1      48.434   8.354  15.581  0.00  0.00    +0.000 OA
ATOM      9  C   UNL     1      48.836   7.195  15.406  0.00  0.00    +0.000 C 
ATOM     10  N   UNL     1      48.767   6.548  14.195  0.00  0.00    +0.000 N 
ATOM     11  H   UNL     1      49.467   5.803  14.117  0.00  0.00    +0.000 HD
BRANCH   9  12
ATOM     12  C   UNL     1      49.340   6.318  16.458  0.00  0.00    +0.000 A 
ATOM     13  N   UNL     1      50.629   6.417  16.868  0.00  0.00    +0.000 NA
ATOM     14  N   UNL     1      50.850   5.236  17.466  0.00  0.00    +0.000 N 
ATOM     15  C   UNL     1      49.811   4.366  17.351  0.00  0.00    +0.000 A 
ATOM     16  C   UNL     1      49.719   2.980  17.486  0.00  0.00    +0.000 A 
ATOM     17  C   UNL     1      48.433   2.437  17.469  0.00  0.00    +0.000 A 
ATOM     18  C   UNL     1      47.304   3.257  17.395  0.00  0.00    +0.000 A 
ATOM     19  C   UNL     1      47.427   4.627  17.142  0.00  0.00    +0.000 A 
ATOM     20  C   UNL     1      48.724   5.167  17.027  0.00  0.00    +0.000 A 
ATOM     21  H   UNL     1      51.748   5.086  17.919  0.00  0.00    +0.000 HD
ENDBRANCH   9  12
ENDBRANCH   7  10
ENDBRANCH   1   7
BRANCH   4  22
ATOM     22  C   UNL     1      43.558   4.136  11.039  0.00  0.00    +0.000 C 
BRANCH  22  23
ATOM     23  N   UNL     1      43.784   3.679   9.673  0.00  0.00    +0.000 NA
ATOM     24  H   UNL     1      44.351   4.374   9.185  0.00  0.00    +0.000 HD
BRANCH  23  25
ATOM     25  C   UNL     1      44.506   2.398   9.629  0.00  0.00    +0.000 C 
BRANCH  25  26
ATOM     26  C   UNL     1      45.503   2.371   8.482  0.00  0.00    +0.000 A 
ATOM     27  C   UNL     1      45.689   3.505   7.689  0.00  0.00    +0.000 A 
ATOM     28  C   UNL     1      46.645   3.475   6.676  0.00  0.00    +0.000 A 
ATOM     29  C   UNL     1      47.372   2.311   6.466  0.00  0.00    +0.000 A 
ATOM     30  C   UNL     1      47.116   1.224   7.284  0.00  0.00    +0.000 A 
ATOM     31  N   UNL     1      46.209   1.229   8.289  0.00  0.00    +0.000 NA
ENDBRANCH  25  26
ENDBRANCH  23  25
ENDBRANCH  22  23
ENDBRANCH   4  22
TORSDOF 7
ENDMDL
MODEL 3
REMARK VINA RESULT:    -8.490      2.498      9.496
REMARK INTER + INTRA:         -12.759
REMARK INTER:                 -11.954
REMARK INTRA:                  -0.805
REMARK UNBOUND:                -0.795
REMARK  Name = 
REMARK  7 active torsions:
REMARK  status: ('A' for Active; 'I' for Inactive)
REMARK    1  A    between atoms: C_2  and  C_20
REMARK    2  A    between atoms: N_3  and  C_4
REMARK    3  A    between atoms: C_4  and  C_5
REMARK    4  A    between atoms: C_8  and  C_9
REMARK    5  A    between atoms: C_9  and  N_10
REMARK    6  A    between atoms: N_10  and  C_11
REMARK    7  A    between atoms: C_11  and  C_12
REMARK                            x       y       z     vdW  Elec       q    Type
REMARK                         _______ _______ _______ _____ _____    ______ ____
ROOT
ATOM      1  C   UNL     1      46.935   6.093  13.052  0.00  0.00    +0.000 A 
ATOM      2  C   UNL     1      46.772   6.585  11.747  0.00  0.00    +0.000 A 
ATOM      3  C   UNL     1      45.711   6.155  10.940  0.00  0.00    +0.000 A 
ATOM      4  C   UNL     1      44.789   5.207  11.412  0.00  0.00    +0.000 A 
ATOM      5  C   UNL     1      44.956   4.708  12.707  0.00  0.00    +0.000 A 
ATOM      6  C   UNL     1      45.997   5.163  13.528  0.00  0.00    +0.000 A 
ENDROOT
BRANCH   1   7
ATOM      7  C   UNL     1      48.074   6.540  13.930  0.00  0.00    +0.000 C 
BRANCH   7  10
ATOM      8  O   UNL     1      50.110   6.187  15.939  0.00  0.00    +0.000 OA
ATOM      9  C   UNL     1      48.919   5.963  16.200  0.00  0.00    +0.000 C 
ATOM     10  N   UNL     1      47.906   6.108  15.284  0.00  0.00    +0.000 N 
ATOM     11  H   UNL     1      47.093   5.528  15.515  0.00  0.00    +0.000 HD
BRANCH   9  12
ATOM     12  C   UNL     1      48.406   5.618  17.522  0.00  0.00    +0.000 A 
ATOM     13  N   UNL     1      47.299   4.843  17.642  0.00  0.00    +0.000 NA
ATOM     14  N   UNL     1      46.881   5.101  18.891  0.00  0.00    +0.000 N 
ATOM     15  C   UNL     1      47.596   6.076  19.513  0.00  0.00    +0.000 A 
ATOM     16  C   UNL     1      47.325   6.891  20.613  0.00  0.00    +0.000 A 
ATOM     17  C   UNL     1      48.383   7.672  21.084  0.00  0.00    +0.000 A 
ATOM     18  C   UNL     1      49.657   7.576  20.521  0.00  0.00    +0.000 A 
ATOM     19  C   UNL     1      49.872   6.843  19.349  0.00  0.00    +0.000 A 
ATOM     20  C   UNL     1      48.778   6.153  18.789  0.00  0.00    +0.000 A 
ATOM     21  H   UNL     1      46.081   4.583  19.247  0.00  0.00    +0.000 HD
ENDBRANCH   9  12
ENDBRANCH   7  10
ENDBRANCH   1   7
BRANCH   4  22
ATOM     22  C   UNL     1      43.613   4.746  10.573  0.00  0.00    +0.000 C 
BRANCH  22  23
ATOM     23  N   UNL     1      44.044   4.223   9.282  0.00  0.00    +0.000 NA
ATOM     24  H   UNL     1      44.863   4.750   8.973  0.00  0.00    +0.000 HD
BRANCH  23  25
ATOM     25  C   UNL     1      44.423   2.804   9.356  0.00  0.00    +0.000 C 
BRANCH  25  26
ATOM     26  C   UNL     1      45.519   2.478   8.354  0.00  0.00    +0.000 A 
ATOM     27  C   UNL     1      45.969   3.455   7.465  0.00  0.00    +0.000 A 
ATOM     28  C   UNL     1      47.009   3.149   6.591  0.00  0.00    +0.000 A 
ATOM     29  C   UNL     1      47.557   1.874   6.609  0.00  0.00    +0.000 A 
ATOM     30  C   UNL     1      47.043   0.956   7.510  0.00  0.00    +0.000 A 
ATOM     31  N   UNL     1      46.047   1.228   8.385  0.00  0.00    +0.000 NA
ENDBRANCH  25  26
ENDBRANCH  23  25
ENDBRANCH  22  23
ENDBRANCH   4  22
TORSDOF 7
ENDMDL
MODEL 4
REMARK VINA RESULT:    -8.063      1.608      2.391
REMARK INTER + INTRA:         -12.157
REMARK INTER:                 -11.487
REMARK INTRA:                  -0.670
REMARK UNBOUND:                -0.795
REMARK  Name = 
REMARK  7 active torsions:
REMARK  status: ('A' for Active; 'I' for Inactive)
REMARK    1  A    between atoms: C_2  and  C_20
REMARK    2  A    between atoms: N_3  and  C_4
REMARK    3  A    between atoms: C_4  and  C_5
REMARK    4  A    between atoms: C_8  and  C_9
REMARK    5  A    between atoms: C_9  and  N_10
REMARK    6  A    between atoms: N_10  and  C_11
REMARK    7  A    between atoms: C_11  and  C_12
REMARK                            x       y       z     vdW  Elec       q    Type
REMARK                         _______ _______ _______ _____ _____    ______ ____
ROOT
ATOM      1  C   UNL     1      46.534   6.220  12.424  0.00  0.00    +0.000 A 
ATOM      2  C   UNL     1      47.530   7.142  12.782  0.00  0.00    +0.000 A 
ATOM      3  C   UNL     1      48.254   6.998  13.972  0.00  0.00    +0.000 A 
ATOM      4  C   UNL     1      47.992   5.931  14.847  0.00  0.00    +0.000 A 
ATOM      5  C   UNL     1      46.993   5.019  14.497  0.00  0.00    +0.000 A 
ATOM      6  C   UNL     1      46.291   5.142  13.291  0.00  0.00    +0.000 A 
ENDROOT
BRANCH   1   7
ATOM      7  C   UNL     1      45.742   6.364  11.152  0.00  0.00    +0.000 C 
BRANCH   7  10
ATOM      8  O   UNL     1      43.257   5.143  10.350  0.00  0.00    +0.000 OA
ATOM      9  C   UNL     1      44.338   4.578  10.131  0.00  0.00    +0.000 C 
ATOM     10  N   UNL     1      45.553   5.107  10.495  0.00  0.00    +0.000 N 
ATOM     11  H   UNL     1      46.269   4.383  10.610  0.00  0.00    +0.000 HD
BRANCH   9  12
ATOM     12  C   UNL     1      44.494   3.338   9.378  0.00  0.00    +0.000 A 
ATOM     13  N   UNL     1      43.979   2.179   9.859  0.00  0.00    +0.000 NA
ATOM     14  N   UNL     1      44.665   1.240   9.190  0.00  0.00    +0.000 N 
ATOM     15  C   UNL     1      45.654   1.744   8.407  0.00  0.00    +0.000 A 
ATOM     16  C   UNL     1      46.796   1.174   7.841  0.00  0.00    +0.000 A 
ATOM     17  C   UNL     1      47.503   1.967   6.934  0.00  0.00    +0.000 A 
ATOM     18  C   UNL     1      47.039   3.232   6.566  0.00  0.00    +0.000 A 
ATOM     19  C   UNL     1      45.962   3.825   7.235  0.00  0.00    +0.000 A 
ATOM     20  C   UNL     1      45.320   3.082   8.246  0.00  0.00    +0.000 A 
ATOM     21  H   UNL     1      44.413   0.265   9.335  0.00  0.00    +0.000 HD
ENDBRANCH   9  12
ENDBRANCH   7  10
ENDBRANCH   1   7
BRANCH   4  22
ATOM     22  C   UNL     1      48.781   5.732  16.126  0.00  0.00    +0.000 C 
BRANCH  22  23
ATOM     23  N   UNL     1      48.733   4.347  16.579  0.00  0.00    +0.000 NA
ATOM     24  H   UNL     1      49.258   3.770  15.920  0.00  0.00    +0.000 HD
BRANCH  23  25
ATOM     25  C   UNL     1      49.340   4.177  17.908  0.00  0.00    +0.000 C 
BRANCH  25  26
ATOM     26  C   UNL     1      50.597   3.326  17.831  0.00  0.00    +0.000 A 
ATOM     27  C   UNL     1      51.829   3.862  18.210  0.00  0.00    +0.000 A 
ATOM     28  C   UNL     1      52.960   3.049  18.181  0.00  0.00    +0.000 A 
ATOM     29  C   UNL     1      52.838   1.734  17.753  0.00  0.00    +0.000 A 
ATOM     30  C   UNL     1      51.584   1.284  17.377  0.00  0.00    +0.000 A 
ATOM     31  N   UNL     1      50.464   2.042  17.414  0.00  0.00    +0.000 NA
ENDBRANCH  25  26
ENDBRANCH  23  25
ENDBRANCH  22  23
ENDBRANCH   4  22
TORSDOF 7
ENDMDL
MODEL 5
REMARK VINA RESULT:    -7.369      1.954      2.559
REMARK INTER + INTRA:         -11.179
REMARK INTER:                 -10.880
REMARK INTRA:                  -0.300
REMARK UNBOUND:                -0.795
REMARK  Name = 
REMARK  7 active torsions:
REMARK  status: ('A' for Active; 'I' for Inactive)
REMARK    1  A    between atoms: C_2  and  C_20
REMARK    2  A    between atoms: N_3  and  C_4
REMARK    3  A    between atoms: C_4  and  C_5
REMARK    4  A    between atoms: C_8  and  C_9
REMARK    5  A    between atoms: C_9  and  N_10
REMARK    6  A    between atoms: N_10  and  C_11
REMARK    7  A    between atoms: C_11  and  C_12
REMARK                            x       y       z     vdW  Elec       q    Type
REMARK                         _______ _______ _______ _____ _____    ______ ____
ROOT
ATOM      1  C   UNL     1      46.737   6.302  12.546  0.00  0.00    +0.000 A 
ATOM      2  C   UNL     1      47.809   7.138  12.897  0.00  0.00    +0.000 A 
ATOM      3  C   UNL     1      48.509   6.951  14.094  0.00  0.00    +0.000 A 
ATOM      4  C   UNL     1      48.148   5.926  14.984  0.00  0.00    +0.000 A 
ATOM      5  C   UNL     1      47.075   5.099  14.641  0.00  0.00    +0.000 A 
ATOM      6  C   UNL     1      46.395   5.264  13.427  0.00  0.00    +0.000 A 
ENDROOT
BRANCH   1   7
ATOM      7  C   UNL     1      45.969   6.494  11.265  0.00  0.00    +0.000 C 
BRANCH   7  10
ATOM      8  O   UNL     1      43.392   5.354  10.658  0.00  0.00    +0.000 OA
ATOM      9  C   UNL     1      44.435   4.760  10.349  0.00  0.00    +0.000 C 
ATOM     10  N   UNL     1      45.690   5.250  10.617  0.00  0.00    +0.000 N 
ATOM     11  H   UNL     1      46.392   4.504  10.668  0.00  0.00    +0.000 HD
BRANCH   9  12
ATOM     12  C   UNL     1      44.493   3.522   9.577  0.00  0.00    +0.000 A 
ATOM     13  N   UNL     1      43.930   2.388  10.064  0.00  0.00    +0.000 NA
ATOM     14  N   UNL     1      44.537   1.421   9.361  0.00  0.00    +0.000 N 
ATOM     15  C   UNL     1      45.525   1.878   8.546  0.00  0.00    +0.000 A 
ATOM     16  C   UNL     1      46.611   1.252   7.933  0.00  0.00    +0.000 A 
ATOM     17  C   UNL     1      47.329   2.015   7.009  0.00  0.00    +0.000 A 
ATOM     18  C   UNL     1      46.924   3.309   6.673  0.00  0.00    +0.000 A 
ATOM     19  C   UNL     1      45.908   3.953   7.387  0.00  0.00    +0.000 A 
ATOM     20  C   UNL     1      45.262   3.235   8.413  0.00  0.00    +0.000 A 
ATOM     21  H   UNL     1      44.236   0.459   9.504  0.00  0.00    +0.000 HD
ENDBRANCH   9  12
ENDBRANCH   7  10
ENDBRANCH   1   7
BRANCH   4  22
ATOM     22  C   UNL     1      48.908   5.679  16.273  0.00  0.00    +0.000 C 
BRANCH  22  23
ATOM     23  N   UNL     1      48.670   4.337  16.791  0.00  0.00    +0.000 NA
ATOM     24  H   UNL     1      48.997   3.658  16.103  0.00  0.00    +0.000 HD
BRANCH  23  25
ATOM     25  C   UNL     1      49.394   4.090  18.047  0.00  0.00    +0.000 C 
BRANCH  25  26
ATOM     26  C   UNL     1      48.686   4.740  19.224  0.00  0.00    +0.000 A 
ATOM     27  C   UNL     1      49.195   4.593  20.516  0.00  0.00    +0.000 A 
ATOM     28  C   UNL     1      48.560   5.240  21.573  0.00  0.00    +0.000 A 
ATOM     29  C   UNL     1      47.422   5.994  21.320  0.00  0.00    +0.000 A 
ATOM     30  C   UNL     1      46.970   6.076  20.013  0.00  0.00    +0.000 A 
ATOM     31  N   UNL     1      47.577   5.477  18.963  0.00  0.00    +0.000 NA
ENDBRANCH  25  26
ENDBRANCH  23  25
ENDBRANCH  22  23
ENDBRANCH   4  22
TORSDOF 7
ENDMDL
MODEL 6
REMARK VINA RESULT:    -7.279      3.448      9.043
REMARK INTER + INTRA:         -11.052
REMARK INTER:                  -9.867
REMARK INTRA:                  -1.185
REMARK UNBOUND:                -0.795
REMARK  Name = 
REMARK  7 active torsions:
REMARK  status: ('A' for Active; 'I' for Inactive)
REMARK    1  A    between atoms: C_2  and  C_20
REMARK    2  A    between atoms: N_3  and  C_4
REMARK    3  A    between atoms: C_4  and  C_5
REMARK    4  A    between atoms: C_8  and  C_9
REMARK    5  A    between atoms: C_9  and  N_10
REMARK    6  A    between atoms: N_10  and  C_11
REMARK    7  A    between atoms: C_11  and  C_12
REMARK                            x       y       z     vdW  Elec       q    Type
REMARK                         _______ _______ _______ _____ _____    ______ ____
ROOT
ATOM      1  C   UNL     1      47.979   4.213  16.591  0.00  0.00    +0.000 A 
ATOM      2  C   UNL     1      48.625   5.460  16.592  0.00  0.00    +0.000 A 
ATOM      3  C   UNL     1      48.476   6.351  15.522  0.00  0.00    +0.000 A 
ATOM      4  C   UNL     1      47.685   6.013  14.412  0.00  0.00    +0.000 A 
ATOM      5  C   UNL     1      47.049   4.769  14.405  0.00  0.00    +0.000 A 
ATOM      6  C   UNL     1      47.170   3.890  15.490  0.00  0.00    +0.000 A 
ENDROOT
BRANCH   1   7
ATOM      7  C   UNL     1      48.134   3.241  17.731  0.00  0.00    +0.000 C 
BRANCH   7  10
ATOM      8  O   UNL     1      49.851   1.611  16.086  0.00  0.00    +0.000 OA
ATOM      9  C   UNL     1      50.276   2.120  17.133  0.00  0.00    +0.000 C 
ATOM     10  N   UNL     1      49.505   2.901  17.960  0.00  0.00    +0.000 N 
ATOM     11  H   UNL     1      49.855   2.902  18.923  0.00  0.00    +0.000 HD
BRANCH   9  12
ATOM     12  C   UNL     1      51.661   2.056  17.588  0.00  0.00    +0.000 A 
ATOM     13  N   UNL     1      52.200   0.871  17.968  0.00  0.00    +0.000 NA
ATOM     14  N   UNL     1      53.254   1.240  18.711  0.00  0.00    +0.000 N 
ATOM     15  C   UNL     1      53.336   2.583  18.910  0.00  0.00    +0.000 A 
ATOM     16  C   UNL     1      54.007   3.360  19.856  0.00  0.00    +0.000 A 
ATOM     17  C   UNL     1      54.003   4.740  19.644  0.00  0.00    +0.000 A 
ATOM     18  C   UNL     1      53.419   5.293  18.501  0.00  0.00    +0.000 A 
ATOM     19  C   UNL     1      52.653   4.506  17.634  0.00  0.00    +0.000 A 
ATOM     20  C   UNL     1      52.541   3.129  17.912  0.00  0.00    +0.000 A 
ATOM     21  H   UNL     1      53.869   0.513  19.070  0.00  0.00    +0.000 HD
ENDBRANCH   9  12
ENDBRANCH   7  10
ENDBRANCH   1   7
BRANCH   4  22
ATOM     22  C   UNL     1      47.480   6.970  13.254  0.00  0.00    +0.000 C 
BRANCH  22  23
ATOM     23  N   UNL     1      46.170   7.609  13.307  0.00  0.00    +0.000 NA
ATOM     24  H   UNL     1      46.301   8.617  13.403  0.00  0.00    +0.000 HD
BRANCH  23  25
ATOM     25  C   UNL     1      45.388   7.372  12.084  0.00  0.00    +0.000 C 
BRANCH  25  26
ATOM     26  C   UNL     1      44.743   5.995  12.105  0.00  0.00    +0.000 A 
ATOM     27  C   UNL     1      45.090   5.045  11.143  0.00  0.00    +0.000 A 
ATOM     28  C   UNL     1      44.527   3.773  11.212  0.00  0.00    +0.000 A 
ATOM     29  C   UNL     1      43.616   3.490  12.221  0.00  0.00    +0.000 A 
ATOM     30  C   UNL     1      43.311   4.493  13.126  0.00  0.00    +0.000 A 
ATOM     31  N   UNL     1      43.857   5.730  13.097  0.00  0.00    +0.000 NA
ENDBRANCH  25  26
ENDBRANCH  23  25
ENDBRANCH  22  23
ENDBRANCH   4  22
TORSDOF 7
ENDMDL
MODEL 7
REMARK VINA RESULT:    -7.196      2.189      8.902
REMARK INTER + INTRA:         -10.935
REMARK INTER:                  -9.971
REMARK INTRA:                  -0.964
REMARK UNBOUND:                -0.795
REMARK  Name = 
REMARK  7 active torsions:
REMARK  status: ('A' for Active; 'I' for Inactive)
REMARK    1  A    between atoms: C_2  and  C_20
REMARK    2  A    between atoms: N_3  and  C_4
REMARK    3  A    between atoms: C_4  and  C_5
REMARK    4  A    between atoms: C_8  and  C_9
REMARK    5  A    between atoms: C_9  and  N_10
REMARK    6  A    between atoms: N_10  and  C_11
REMARK    7  A    between atoms: C_11  and  C_12
REMARK                            x       y       z     vdW  Elec       q    Type
REMARK                         _______ _______ _______ _____ _____    ______ ____
ROOT
ATOM      1  C   UNL     1      45.802   7.085  12.463  0.00  0.00    +0.000 A 
ATOM      2  C   UNL     1      45.091   6.927  11.262  0.00  0.00    +0.000 A 
ATOM      3  C   UNL     1      44.570   5.681  10.891  0.00  0.00    +0.000 A 
ATOM      4  C   UNL     1      44.758   4.553  11.705  0.00  0.00    +0.000 A 
ATOM      5  C   UNL     1      45.474   4.707  12.895  0.00  0.00    +0.000 A 
ATOM      6  C   UNL     1      45.966   5.959  13.286  0.00  0.00    +0.000 A 
ENDROOT
BRANCH   1   7
ATOM      7  C   UNL     1      46.375   8.416  12.874  0.00  0.00    +0.000 C 
BRANCH   7  10
ATOM      8  O   UNL     1      49.079   9.144  13.554  0.00  0.00    +0.000 OA
ATOM      9  C   UNL     1      48.302   8.721  14.422  0.00  0.00    +0.000 C 
ATOM     10  N   UNL     1      47.004   8.353  14.157  0.00  0.00    +0.000 N 
ATOM     11  H   UNL     1      46.647   7.682  14.845  0.00  0.00    +0.000 HD
BRANCH   9  12
ATOM     12  C   UNL     1      48.604   8.645  15.848  0.00  0.00    +0.000 A 
ATOM     13  N   UNL     1      48.756   9.780  16.573  0.00  0.00    +0.000 NA
ATOM     14  N   UNL     1      49.435   9.363  17.652  0.00  0.00    +0.000 N 
ATOM     15  C   UNL     1      49.813   8.059  17.586  0.00  0.00    +0.000 A 
ATOM     16  C   UNL     1      50.788   7.321  18.260  0.00  0.00    +0.000 A 
ATOM     17  C   UNL     1      50.775   5.939  18.056  0.00  0.00    +0.000 A 
ATOM     18  C   UNL     1      49.786   5.335  17.276  0.00  0.00    +0.000 A 
ATOM     19  C   UNL     1      48.897   6.105  16.519  0.00  0.00    +0.000 A 
ATOM     20  C   UNL     1      48.986   7.508  16.616  0.00  0.00    +0.000 A 
ATOM     21  H   UNL     1      49.624  10.035  18.392  0.00  0.00    +0.000 HD
ENDBRANCH   9  12
ENDBRANCH   7  10
ENDBRANCH   1   7
BRANCH   4  22
ATOM     22  C   UNL     1      44.178   3.199  11.344  0.00  0.00    +0.000 C 
BRANCH  22  23
ATOM     23  N   UNL     1      43.957   3.073   9.908  0.00  0.00    +0.000 NA
ATOM     24  H   UNL     1      44.421   3.850   9.436  0.00  0.00    +0.000 HD
BRANCH  23  25
ATOM     25  C   UNL     1      44.512   1.822   9.369  0.00  0.00    +0.000 C 
BRANCH  25  26
ATOM     26  C   UNL     1      45.631   2.103   8.379  0.00  0.00    +0.000 A 
ATOM     27  C   UNL     1      45.807   3.389   7.867  0.00  0.00    +0.000 A 
ATOM     28  C   UNL     1      46.870   3.635   7.002  0.00  0.00    +0.000 A 
ATOM     29  C   UNL     1      47.715   2.590   6.652  0.00  0.00    +0.000 A 
ATOM     30  C   UNL     1      47.463   1.340   7.190  0.00  0.00    +0.000 A 
ATOM     31  N   UNL     1      46.451   1.074   8.048  0.00  0.00    +0.000 NA
ENDBRANCH  25  26
ENDBRANCH  23  25
ENDBRANCH  22  23
ENDBRANCH   4  22
TORSDOF 7
ENDMDL
MODEL 8
REMARK VINA RESULT:    -7.050      3.701      8.471
REMARK INTER + INTRA:         -10.729
REMARK INTER:                  -9.924
REMARK INTRA:                  -0.806
REMARK UNBOUND:                -0.795
REMARK  Name = 
REMARK  7 active torsions:
REMARK  status: ('A' for Active; 'I' for Inactive)
REMARK    1  A    between atoms: C_2  and  C_20
REMARK    2  A    between atoms: N_3  and  C_4
REMARK    3  A    between atoms: C_4  and  C_5
REMARK    4  A    between atoms: C_8  and  C_9
REMARK    5  A    between atoms: C_9  and  N_10
REMARK    6  A    between atoms: N_10  and  C_11
REMARK    7  A    between atoms: C_11  and  C_12
REMARK                            x       y       z     vdW  Elec       q    Type
REMARK                         _______ _______ _______ _____ _____    ______ ____
ROOT
ATOM      1  C   UNL     1      47.045   6.030  13.038  0.00  0.00    +0.000 A 
ATOM      2  C   UNL     1      46.129   5.106  13.566  0.00  0.00    +0.000 A 
ATOM      3  C   UNL     1      45.021   4.684  12.822  0.00  0.00    +0.000 A 
ATOM      4  C   UNL     1      44.789   5.186  11.530  0.00  0.00    +0.000 A 
ATOM      5  C   UNL     1      45.695   6.113  11.009  0.00  0.00    +0.000 A 
ATOM      6  C   UNL     1      46.823   6.511  11.738  0.00  0.00    +0.000 A 
ENDROOT
BRANCH   1   7
ATOM      7  C   UNL     1      48.239   6.500  13.828  0.00  0.00    +0.000 C 
BRANCH   7  10
ATOM      8  O   UNL     1      49.998   8.732  14.312  0.00  0.00    +0.000 OA
ATOM      9  C   UNL     1      50.090   8.069  13.269  0.00  0.00    +0.000 C 
ATOM     10  N   UNL     1      49.277   7.000  12.979  0.00  0.00    +0.000 N 
ATOM     11  H   UNL     1      49.209   6.830  11.971  0.00  0.00    +0.000 HD
BRANCH   9  12
ATOM     12  C   UNL     1      51.121   8.253  12.252  0.00  0.00    +0.000 A 
ATOM     13  N   UNL     1      50.877   7.911  10.963  0.00  0.00    +0.000 NA
ATOM     14  N   UNL     1      52.107   7.787  10.442  0.00  0.00    +0.000 N 
ATOM     15  C   UNL     1      53.102   7.921  11.358  0.00  0.00    +0.000 A 
ATOM     16  C   UNL     1      54.444   7.537  11.360  0.00  0.00    +0.000 A 
ATOM     17  C   UNL     1      55.223   8.003  12.422  0.00  0.00    +0.000 A 
ATOM     18  C   UNL     1      54.691   8.867  13.382  0.00  0.00    +0.000 A 
ATOM     19  C   UNL     1      53.319   9.139  13.423  0.00  0.00    +0.000 A 
ATOM     20  C   UNL     1      52.500   8.567  12.430  0.00  0.00    +0.000 A 
ATOM     21  H   UNL     1      52.191   7.590   9.447  0.00  0.00    +0.000 HD
ENDBRANCH   9  12
ENDBRANCH   7  10
ENDBRANCH   1   7
BRANCH   4  22
ATOM     22  C   UNL     1      43.615   4.723  10.690  0.00  0.00    +0.000 C 
BRANCH  22  23
ATOM     23  N   UNL     1      44.026   4.378   9.334  0.00  0.00    +0.000 NA
ATOM     24  H   UNL     1      44.858   4.920   9.096  0.00  0.00    +0.000 HD
BRANCH  23  25
ATOM     25  C   UNL     1      44.365   2.953   9.202  0.00  0.00    +0.000 C 
BRANCH  25  26
ATOM     26  C   UNL     1      45.535   2.755   8.252  0.00  0.00    +0.000 A 
ATOM     27  C   UNL     1      46.203   1.530   8.210  0.00  0.00    +0.000 A 
ATOM     28  C   UNL     1      47.238   1.353   7.295  0.00  0.00    +0.000 A 
ATOM     29  C   UNL     1      47.595   2.406   6.465  0.00  0.00    +0.000 A 
ATOM     30  C   UNL     1      46.895   3.595   6.580  0.00  0.00    +0.000 A 
ATOM     31  N   UNL     1      45.872   3.791   7.443  0.00  0.00    +0.000 NA
ENDBRANCH  25  26
ENDBRANCH  23  25
ENDBRANCH  22  23
ENDBRANCH   4  22
TORSDOF 7
ENDMDL
MODEL 9
REMARK VINA RESULT:    -6.947      3.357      8.139
REMARK INTER + INTRA:         -10.584
REMARK INTER:                  -9.642
REMARK INTRA:                  -0.942
REMARK UNBOUND:                -0.795
REMARK  Name = 
REMARK  7 active torsions:
REMARK  status: ('A' for Active; 'I' for Inactive)
REMARK    1  A    between atoms: C_2  and  C_20
REMARK    2  A    between atoms: N_3  and  C_4
REMARK    3  A    between atoms: C_4  and  C_5
REMARK    4  A    between atoms: C_8  and  C_9
REMARK    5  A    between atoms: C_9  and  N_10
REMARK    6  A    between atoms: N_10  and  C_11
REMARK    7  A    between atoms: C_11  and  C_12
REMARK                            x       y       z     vdW  Elec       q    Type
REMARK                         _______ _______ _______ _____ _____    ______ ____
ROOT
ATOM      1  C   UNL     1      45.514   7.230  12.381  0.00  0.00    +0.000 A 
ATOM      2  C   UNL     1      45.255   6.889  11.044  0.00  0.00    +0.000 A 
ATOM      3  C   UNL     1      44.993   5.564  10.675  0.00  0.00    +0.000 A 
ATOM      4  C   UNL     1      44.996   4.537  11.634  0.00  0.00    +0.000 A 
ATOM      5  C   UNL     1      45.264   4.874  12.963  0.00  0.00    +0.000 A 
ATOM      6  C   UNL     1      45.492   6.204  13.340  0.00  0.00    +0.000 A 
ENDROOT
BRANCH   1   7
ATOM      7  C   UNL     1      45.804   8.649  12.794  0.00  0.00    +0.000 C 
BRANCH   7  10
ATOM      8  O   UNL     1      47.135  10.792  11.399  0.00  0.00    +0.000 OA
ATOM      9  C   UNL     1      47.782   9.983  12.079  0.00  0.00    +0.000 C 
ATOM     10  N   UNL     1      47.205   8.939  12.761  0.00  0.00    +0.000 N 
ATOM     11  H   UNL     1      47.867   8.173  12.923  0.00  0.00    +0.000 HD
BRANCH   9  12
ATOM     12  C   UNL     1      49.216  10.071  12.340  0.00  0.00    +0.000 A 
ATOM     13  N   UNL     1      49.735  11.175  12.931  0.00  0.00    +0.000 NA
ATOM     14  N   UNL     1      51.036  11.109  12.610  0.00  0.00    +0.000 N 
ATOM     15  C   UNL     1      51.335  10.092  11.760  0.00  0.00    +0.000 A 
ATOM     16  C   UNL     1      52.419   9.855  10.912  0.00  0.00    +0.000 A 
ATOM     17  C   UNL     1      52.473   8.597  10.308  0.00  0.00    +0.000 A 
ATOM     18  C   UNL     1      51.527   7.613  10.604  0.00  0.00    +0.000 A 
ATOM     19  C   UNL     1      50.389   7.914  11.361  0.00  0.00    +0.000 A 
ATOM     20  C   UNL     1      50.259   9.222  11.869  0.00  0.00    +0.000 A 
ATOM     21  H   UNL     1      51.663  11.811  12.996  0.00  0.00    +0.000 HD
ENDBRANCH   9  12
ENDBRANCH   7  10
ENDBRANCH   1   7
BRANCH   4  22
ATOM     22  C   UNL     1      44.685   3.099  11.269  0.00  0.00    +0.000 C 
BRANCH  22  23
ATOM     23  N   UNL     1      44.022   3.003   9.973  0.00  0.00    +0.000 NA
ATOM     24  H   UNL     1      44.295   3.807   9.406  0.00  0.00    +0.000 HD
BRANCH  23  25
ATOM     25  C   UNL     1      44.407   1.786   9.242  0.00  0.00    +0.000 C 
BRANCH  25  26
ATOM     26  C   UNL     1      45.566   2.060   8.297  0.00  0.00    +0.000 A 
ATOM     27  C   UNL     1      45.729   3.328   7.737  0.00  0.00    +0.000 A 
ATOM     28  C   UNL     1      46.826   3.571   6.915  0.00  0.00    +0.000 A 
ATOM     29  C   UNL     1      47.718   2.539   6.653  0.00  0.00    +0.000 A 
ATOM     30  C   UNL     1      47.476   1.305   7.233  0.00  0.00    +0.000 A 
ATOM     31  N   UNL     1      46.431   1.044   8.052  0.00  0.00    +0.000 NA
ENDBRANCH  25  26
ENDBRANCH  23  25
ENDBRANCH  22  23
ENDBRANCH   4  22
TORSDOF 7
ENDMDL
