MODEL 1
REMARK VINA RESULT:    -8.352      0.000      0.000
REMARK INTER + INTRA:         -12.684
REMARK INTER:                 -11.769
REMARK INTRA:                  -0.915
REMARK UNBOUND:                -0.915
REMARK  Name = 
REMARK  7 active torsions:
REMARK  status: ('A' for Active; 'I' for Inactive)
REMARK    1  A    between atoms: C_2  and  C_4
REMARK    2  A    between atoms: C_7  and  N_8
REMARK    3  A    between atoms: N_8  and  C_9
REMARK    4  A    between atoms: C_9  and  C_10
REMARK    5  A    between atoms: C_10  and  C_11
REMARK    6  A    between atoms: C_15  and  N_16
REMARK    7  A    between atoms: N_16  and  C_17
REMARK                            x       y       z     vdW  Elec       q    Type
REMARK                         _______ _______ _______ _____ _____    ______ ____
ROOT
ATOM      1  C   UNL     1      43.322   4.418  11.324  0.00  0.00    +0.000 C 
ENDROOT
BRANCH   1   2
ATOM      2  N   UNL     1      43.633   4.751   9.933  0.00  0.00    +0.000 N 
ATOM      3  H   UNL     1      42.842   5.078   9.383  0.00  0.00    +0.000 HD
BRANCH   2   7
ATOM      4  C   UNL     1      46.424   2.435   7.766  0.00  0.00    +0.000 A 
ATOM      5  C   UNL     1      45.522   1.802   8.623  0.00  0.00    +0.000 A 
ATOM      6  C   UNL     1      44.582   2.555   9.333  0.00  0.00    +0.000 A 
ATOM      7  C   UNL     1      44.498   3.945   9.189  0.00  0.00    +0.000 A 
ATOM      8  C   UNL     1      45.429   4.567   8.342  0.00  0.00    +0.000 A 
ATOM      9  C   UNL     1      46.386   3.825   7.637  0.00  0.00    +0.000 A 
BRANCH   4  11
ATOM     10  N   UNL     1      48.494   2.378   6.480  0.00  0.00    +0.000 N 
ATOM     11  C   UNL     1      47.455   1.670   7.017  0.00  0.00    +0.000 C 
ATOM     12  O   UNL     1      47.401   0.453   6.916  0.00  0.00    +0.000 OA
ATOM     13  H   UNL     1      49.237   1.835   6.059  0.00  0.00    +0.000 HD
ATOM     14  H   UNL     1      48.704   3.325   6.760  0.00  0.00    +0.000 HD
ENDBRANCH   4  11
ENDBRANCH   2   7
ENDBRANCH   1   2
BRANCH   1  15
ATOM     15  C   UNL     1      43.613   5.611  12.242  0.00  0.00    +0.000 C 
BRANCH  15  16
ATOM     16  C   UNL     1      45.048   5.632  12.715  0.00  0.00    +0.000 A 
ATOM     17  C   UNL     1      45.981   6.476  12.105  0.00  0.00    +0.000 A 
ATOM     18  C   UNL     1      47.311   6.480  12.529  0.00  0.00    +0.000 A 
ATOM     19  C   UNL     1      47.727   5.625  13.552  0.00  0.00    +0.000 A 
ATOM     20  C   UNL     1      46.814   4.769  14.170  0.00  0.00    +0.000 A 
ATOM     21  C   UNL     1      45.476   4.786  13.750  0.00  0.00    +0.000 A 
BRANCH  20  22
ATOM     22  N   UNL     1      47.177   3.889  15.217  0.00  0.00    +0.000 N 
ATOM     23  H   UNL     1      46.700   2.999  15.074  0.00  0.00    +0.000 HD
BRANCH  22  24
ATOM     24  C   UNL     1      47.267   4.239  16.606  0.00  0.00    +0.000 C 
ATOM     25  C   UNL     1      48.717   4.540  17.043  0.00  0.00    +0.000 C 
ATOM     26  C   UNL     1      48.540   3.556  18.209  0.00  0.00    +0.000 C 
ATOM     27  C   UNL     1      47.309   2.977  17.496  0.00  0.00    +0.000 C 
ENDBRANCH  22  24
ENDBRANCH  20  22
ENDBRANCH  15  16
ENDBRANCH   1  15
TORSDOF 7
ENDMDL
MODEL 2
REMARK VINA RESULT:    -7.725      1.915      3.795
REMARK INTER + INTRA:         -11.800
REMARK INTER:                 -10.850
REMARK INTRA:                  -0.950
REMARK UNBOUND:                -0.915
REMARK  Name = 
REMARK  7 active torsions:
REMARK  status: ('A' for Active; 'I' for Inactive)
REMARK    1  A    between atoms: C_2  and  C_4
REMARK    2  A    between atoms: C_7  and  N_8
REMARK    3  A    between atoms: N_8  and  C_9
REMARK    4  A    between atoms: C_9  and  C_10
REMARK    5  A    between atoms: C_10  and  C_11
REMARK    6  A    between atoms: C_15  and  N_16
REMARK    7  A    between atoms: N_16  and  C_17
REMARK                            x       y       z     vdW  Elec       q    Type
REMARK                         _______ _______ _______ _____ _____    ______ ____
ROOT
ATOM      1  C   UNL     1      43.314   4.435  11.403  0.00  0.00    +0.000 C 
ENDROOT
BRANCH   1   2
ATOM      2  N   UNL     1      43.627   4.728  10.003  0.00  0.00    +0.000 N 
ATOM      3  H   UNL     1      42.821   4.942   9.419  0.00  0.00    +0.000 HD
BRANCH   2   7
ATOM      4  C   UNL     1      46.368   2.332   7.859  0.00  0.00    +0.000 A 
ATOM      5  C   UNL     1      46.367   3.715   7.669  0.00  0.00    +0.000 A 
ATOM      6  C   UNL     1      45.476   4.522   8.385  0.00  0.00    +0.000 A 
ATOM      7  C   UNL     1      44.589   3.979   9.322  0.00  0.00    +0.000 A 
ATOM      8  C   UNL     1      44.587   2.583   9.482  0.00  0.00    +0.000 A 
ATOM      9  C   UNL     1      45.464   1.764   8.759  0.00  0.00    +0.000 A 
BRANCH   4  11
ATOM     10  N   UNL     1      48.416   2.003   6.579  0.00  0.00    +0.000 N 
ATOM     11  C   UNL     1      47.281   1.441   7.095  0.00  0.00    +0.000 C 
ATOM     12  O   UNL     1      47.050   0.249   6.964  0.00  0.00    +0.000 OA
ATOM     13  H   UNL     1      49.073   1.367   6.147  0.00  0.00    +0.000 HD
ATOM     14  H   UNL     1      48.760   2.902   6.882  0.00  0.00    +0.000 HD
ENDBRANCH   4  11
ENDBRANCH   2   7
ENDBRANCH   1   2
BRANCH   1  15
ATOM     15  C   UNL     1      43.583   5.662  12.283  0.00  0.00    +0.000 C 
BRANCH  15  16
ATOM     16  C   UNL     1      45.007   5.704  12.783  0.00  0.00    +0.000 A 
ATOM     17  C   UNL     1      45.560   4.598  13.438  0.00  0.00    +0.000 A 
ATOM     18  C   UNL     1      46.870   4.645  13.918  0.00  0.00    +0.000 A 
ATOM     19  C   UNL     1      47.634   5.804  13.768  0.00  0.00    +0.000 A 
ATOM     20  C   UNL     1      47.101   6.922  13.124  0.00  0.00    +0.000 A 
ATOM     21  C   UNL     1      45.790   6.859  12.629  0.00  0.00    +0.000 A 
BRANCH  20  22
ATOM     22  N   UNL     1      47.831   8.119  12.935  0.00  0.00    +0.000 N 
ATOM     23  H   UNL     1      47.318   8.886  13.370  0.00  0.00    +0.000 HD
BRANCH  22  24
ATOM     24  C   UNL     1      48.475   8.519  11.717  0.00  0.00    +0.000 C 
ATOM     25  C   UNL     1      50.001   8.292  11.756  0.00  0.00    +0.000 C 
ATOM     26  C   UNL     1      50.201   9.747  11.306  0.00  0.00    +0.000 C 
ATOM     27  C   UNL     1      48.747  10.039  11.704  0.00  0.00    +0.000 C 
ENDBRANCH  22  24
ENDBRANCH  20  22
ENDBRANCH  15  16
ENDBRANCH   1  15
TORSDOF 7
ENDMDL
MODEL 3
REMARK VINA RESULT:    -7.534      2.118      4.104
REMARK INTER + INTRA:         -11.532
REMARK INTER:                 -10.537
REMARK INTRA:                  -0.996
REMARK UNBOUND:                -0.915
REMARK  Name = 
REMARK  7 active torsions:
REMARK  status: ('A' for Active; 'I' for Inactive)
REMARK    1  A    between atoms: C_2  and  C_4
REMARK    2  A    between atoms: C_7  and  N_8
REMARK    3  A    between atoms: N_8  and  C_9
REMARK    4  A    between atoms: C_9  and  C_10
REMARK    5  A    between atoms: C_10  and  C_11
REMARK    6  A    between atoms: C_15  and  N_16
REMARK    7  A    between atoms: N_16  and  C_17
REMARK                            x       y       z     vdW  Elec       q    Type
REMARK                         _______ _______ _______ _____ _____    ______ ____
ROOT
ATOM      1  C   UNL     1      43.239   5.016  10.973  0.00  0.00    +0.000 C 
ENDROOT
BRANCH   1   2
ATOM      2  N   UNL     1      43.611   3.638  10.646  0.00  0.00    +0.000 N 
ATOM      3  H   UNL     1      43.679   3.011  11.445  0.00  0.00    +0.000 HD
BRANCH   2   7
ATOM      4  C   UNL     1      46.429   2.713   7.637  0.00  0.00    +0.000 A 
ATOM      5  C   UNL     1      46.098   4.047   7.884  0.00  0.00    +0.000 A 
ATOM      6  C   UNL     1      45.179   4.368   8.889  0.00  0.00    +0.000 A 
ATOM      7  C   UNL     1      44.592   3.379   9.686  0.00  0.00    +0.000 A 
ATOM      8  C   UNL     1      44.919   2.041   9.408  0.00  0.00    +0.000 A 
ATOM      9  C   UNL     1      45.826   1.707   8.394  0.00  0.00    +0.000 A 
BRANCH   4  11
ATOM     10  N   UNL     1      47.370   3.092   5.421  0.00  0.00    +0.000 N 
ATOM     11  C   UNL     1      47.380   2.334   6.559  0.00  0.00    +0.000 C 
ATOM     12  O   UNL     1      48.165   1.408   6.695  0.00  0.00    +0.000 OA
ATOM     13  H   UNL     1      48.088   2.883   4.738  0.00  0.00    +0.000 HD
ATOM     14  H   UNL     1      46.930   3.999   5.379  0.00  0.00    +0.000 HD
ENDBRANCH   4  11
ENDBRANCH   2   7
ENDBRANCH   1   2
BRANCH   1  15
ATOM     15  C   UNL     1      43.516   5.312  12.452  0.00  0.00    +0.000 C 
BRANCH  15  16
ATOM     16  C   UNL     1      44.983   5.551  12.722  0.00  0.00    +0.000 A 
ATOM     17  C   UNL     1      45.706   4.670  13.533  0.00  0.00    +0.000 A 
ATOM     18  C   UNL     1      47.056   4.902  13.798  0.00  0.00    +0.000 A 
ATOM     19  C   UNL     1      47.694   6.029  13.273  0.00  0.00    +0.000 A 
ATOM     20  C   UNL     1      46.990   6.925  12.467  0.00  0.00    +0.000 A 
ATOM     21  C   UNL     1      45.639   6.674  12.191  0.00  0.00    +0.000 A 
BRANCH  20  22
ATOM     22  N   UNL     1      47.586   8.077  11.901  0.00  0.00    +0.000 N 
ATOM     23  H   UNL     1      48.523   7.834  11.580  0.00  0.00    +0.000 HD
BRANCH  22  24
ATOM     24  C   UNL     1      47.527   9.401  12.451  0.00  0.00    +0.000 C 
ATOM     25  C   UNL     1      46.280  10.179  11.979  0.00  0.00    +0.000 C 
ATOM     26  C   UNL     1      47.195  11.342  11.568  0.00  0.00    +0.000 C 
ATOM     27  C   UNL     1      48.393  10.383  11.632  0.00  0.00    +0.000 C 
ENDBRANCH  22  24
ENDBRANCH  20  22
ENDBRANCH  15  16
ENDBRANCH   1  15
TORSDOF 7
ENDMDL
MODEL 4
REMARK VINA RESULT:    -7.327      1.372      2.102
REMARK INTER + INTRA:         -11.241
REMARK INTER:                 -10.256
REMARK INTRA:                  -0.984
REMARK UNBOUND:                -0.915
REMARK  Name = 
REMARK  7 active torsions:
REMARK  status: ('A' for Active; 'I' for Inactive)
REMARK    1  A    between atoms: C_2  and  C_4
REMARK    2  A    between atoms: C_7  and  N_8
REMARK    3  A    between atoms: N_8  and  C_9
REMARK    4  A    between atoms: C_9  and  C_10
REMARK    5  A    between atoms: C_10  and  C_11
REMARK    6  A    between atoms: C_15  and  N_16
REMARK    7  A    between atoms: N_16  and  C_17
REMARK                            x       y       z     vdW  Elec       q    Type
REMARK                         _______ _______ _______ _____ _____    ______ ____
ROOT
ATOM      1  C   UNL     1      44.135   5.598  11.126  0.00  0.00    +0.000 C 
ENDROOT
BRANCH   1   2
ATOM      2  N   UNL     1      43.745   4.639  10.092  0.00  0.00    +0.000 N 
ATOM      3  H   UNL     1      42.973   4.026  10.345  0.00  0.00    +0.000 HD
BRANCH   2   7
ATOM      4  C   UNL     1      46.518   2.521   7.708  0.00  0.00    +0.000 A 
ATOM      5  C   UNL     1      46.485   3.916   7.652  0.00  0.00    +0.000 A 
ATOM      6  C   UNL     1      45.584   4.630   8.449  0.00  0.00    +0.000 A 
ATOM      7  C   UNL     1      44.717   3.981   9.335  0.00  0.00    +0.000 A 
ATOM      8  C   UNL     1      44.747   2.576   9.360  0.00  0.00    +0.000 A 
ATOM      9  C   UNL     1      45.635   1.850   8.556  0.00  0.00    +0.000 A 
BRANCH   4  11
ATOM     10  N   UNL     1      48.566   2.359   6.398  0.00  0.00    +0.000 N 
ATOM     11  C   UNL     1      47.443   1.729   6.856  0.00  0.00    +0.000 C 
ATOM     12  O   UNL     1      47.231   0.552   6.604  0.00  0.00    +0.000 OA
ATOM     13  H   UNL     1      49.233   1.782   5.902  0.00  0.00    +0.000 HD
ATOM     14  H   UNL     1      48.897   3.228   6.791  0.00  0.00    +0.000 HD
ENDBRANCH   4  11
ENDBRANCH   2   7
ENDBRANCH   1   2
BRANCH   1  15
ATOM     15  C   UNL     1      45.138   4.965  12.099  0.00  0.00    +0.000 C 
BRANCH  15  16
ATOM     16  C   UNL     1      46.281   5.897  12.426  0.00  0.00    +0.000 A 
ATOM     17  C   UNL     1      46.955   6.575  11.404  0.00  0.00    +0.000 A 
ATOM     18  C   UNL     1      48.025   7.419  11.705  0.00  0.00    +0.000 A 
ATOM     19  C   UNL     1      48.446   7.579  13.027  0.00  0.00    +0.000 A 
ATOM     20  C   UNL     1      47.793   6.906  14.062  0.00  0.00    +0.000 A 
ATOM     21  C   UNL     1      46.708   6.075  13.751  0.00  0.00    +0.000 A 
BRANCH  20  22
ATOM     22  N   UNL     1      48.170   7.037  15.419  0.00  0.00    +0.000 N 
ATOM     23  H   UNL     1      47.984   7.994  15.718  0.00  0.00    +0.000 HD
BRANCH  22  24
ATOM     24  C   UNL     1      49.369   6.509  16.004  0.00  0.00    +0.000 C 
ATOM     25  C   UNL     1      49.089   5.314  16.941  0.00  0.00    +0.000 C 
ATOM     26  C   UNL     1      49.914   6.012  18.033  0.00  0.00    +0.000 C 
ATOM     27  C   UNL     1      49.788   7.326  17.247  0.00  0.00    +0.000 C 
ENDBRANCH  22  24
ENDBRANCH  20  22
ENDBRANCH  15  16
ENDBRANCH   1  15
TORSDOF 7
ENDMDL
MODEL 5
REMARK VINA RESULT:    -6.928      2.859      5.086
REMARK INTER + INTRA:         -10.678
REMARK INTER:                  -9.708
REMARK INTRA:                  -0.970
REMARK UNBOUND:                -0.915
REMARK  Name = 
REMARK  7 active torsions:
REMARK  status: ('A' for Active; 'I' for Inactive)
REMARK    1  A    between atoms: C_2  and  C_4
REMARK    2  A    between atoms: C_7  and  N_8
REMARK    3  A    between atoms: N_8  and  C_9
REMARK    4  A    between atoms: C_9  and  C_10
REMARK    5  A    between atoms: C_10  and  C_11
REMARK    6  A    between atoms: C_15  and  N_16
REMARK    7  A    between atoms: N_16  and  C_17
REMARK                            x       y       z     vdW  Elec       q    Type
REMARK                         _______ _______ _______ _____ _____    ______ ____
ROOT
ATOM      1  C   UNL     1      43.266   4.520  10.677  0.00  0.00    +0.000 C 
ENDROOT
BRANCH   1   2
ATOM      2  N   UNL     1      44.020   3.273  10.539  0.00  0.00    +0.000 N 
ATOM      3  H   UNL     1      44.353   2.873  11.414  0.00  0.00    +0.000 HD
BRANCH   2   7
ATOM      4  C   UNL     1      46.654   2.653   7.294  0.00  0.00    +0.000 A 
ATOM      5  C   UNL     1      46.300   3.955   7.655  0.00  0.00    +0.000 A 
ATOM      6  C   UNL     1      45.442   4.174   8.738  0.00  0.00    +0.000 A 
ATOM      7  C   UNL     1      44.940   3.114   9.501  0.00  0.00    +0.000 A 
ATOM      8  C   UNL     1      45.287   1.810   9.108  0.00  0.00    +0.000 A 
ATOM      9  C   UNL     1      46.133   1.577   8.016  0.00  0.00    +0.000 A 
BRANCH   4  11
ATOM     10  N   UNL     1      47.437   3.218   5.056  0.00  0.00    +0.000 N 
ATOM     11  C   UNL     1      47.540   2.381   6.132  0.00  0.00    +0.000 C 
ATOM     12  O   UNL     1      48.356   1.471   6.149  0.00  0.00    +0.000 OA
ATOM     13  H   UNL     1      48.112   3.081   4.316  0.00  0.00    +0.000 HD
ATOM     14  H   UNL     1      46.972   4.113   5.110  0.00  0.00    +0.000 HD
ENDBRANCH   4  11
ENDBRANCH   2   7
ENDBRANCH   1   2
BRANCH   1  15
ATOM     15  C   UNL     1      43.503   5.143  12.058  0.00  0.00    +0.000 C 
BRANCH  15  16
ATOM     16  C   UNL     1      44.684   6.085  12.064  0.00  0.00    +0.000 A 
ATOM     17  C   UNL     1      45.970   5.606  12.339  0.00  0.00    +0.000 A 
ATOM     18  C   UNL     1      47.057   6.480  12.364  0.00  0.00    +0.000 A 
ATOM     19  C   UNL     1      46.870   7.845  12.135  0.00  0.00    +0.000 A 
ATOM     20  C   UNL     1      45.595   8.346  11.865  0.00  0.00    +0.000 A 
ATOM     21  C   UNL     1      44.511   7.457  11.824  0.00  0.00    +0.000 A 
BRANCH  20  22
ATOM     22  N   UNL     1      45.348   9.716  11.617  0.00  0.00    +0.000 N 
ATOM     23  H   UNL     1      45.383  10.220  12.503  0.00  0.00    +0.000 HD
BRANCH  22  24
ATOM     24  C   UNL     1      44.338  10.235  10.739  0.00  0.00    +0.000 C 
ATOM     25  C   UNL     1      44.756  11.571  10.087  0.00  0.00    +0.000 C 
ATOM     26  C   UNL     1      43.422  12.180  10.545  0.00  0.00    +0.000 C 
ATOM     27  C   UNL     1      43.259  11.009  11.527  0.00  0.00    +0.000 C 
ENDBRANCH  22  24
ENDBRANCH  20  22
ENDBRANCH  15  16
ENDBRANCH   1  15
TORSDOF 7
ENDMDL
MODEL 6
REMARK VINA RESULT:    -6.849      3.406      8.456
REMARK INTER + INTRA:         -10.567
REMARK INTER:                  -9.870
REMARK INTRA:                  -0.696
REMARK UNBOUND:                -0.915
REMARK  Name = 
REMARK  7 active torsions:
REMARK  status: ('A' for Active; 'I' for Inactive)
REMARK    1  A    between atoms: C_2  and  C_4
REMARK    2  A    between atoms: C_7  and  N_8
REMARK    3  A    between atoms: N_8  and  C_9
REMARK    4  A    between atoms: C_9  and  C_10
REMARK    5  A    between atoms: C_10  and  C_11
REMARK    6  A    between atoms: C_15  and  N_16
REMARK    7  A    between atoms: N_16  and  C_17
REMARK                            x       y       z     vdW  Elec       q    Type
REMARK                         _______ _______ _______ _____ _____    ______ ____
ROOT
ATOM      1  C   UNL     1      46.898   4.343  14.167  0.00  0.00    +0.000 C 
ENDROOT
BRANCH   1   2
ATOM      2  N   UNL     1      46.804   4.282  15.627  0.00  0.00    +0.000 N 
ATOM      3  H   UNL     1      46.093   4.885  16.036  0.00  0.00    +0.000 HD
BRANCH   2   7
ATOM      4  C   UNL     1      50.391   3.955  17.834  0.00  0.00    +0.000 A 
ATOM      5  C   UNL     1      49.914   5.219  17.478  0.00  0.00    +0.000 A 
ATOM      6  C   UNL     1      48.719   5.342  16.762  0.00  0.00    +0.000 A 
ATOM      7  C   UNL     1      47.959   4.221  16.408  0.00  0.00    +0.000 A 
ATOM      8  C   UNL     1      48.467   2.957  16.753  0.00  0.00    +0.000 A 
ATOM      9  C   UNL     1      49.671   2.821  17.457  0.00  0.00    +0.000 A 
BRANCH   4  11
ATOM     10  N   UNL     1      52.327   2.594  18.420  0.00  0.00    +0.000 N 
ATOM     11  C   UNL     1      51.672   3.785  18.570  0.00  0.00    +0.000 C 
ATOM     12  O   UNL     1      52.143   4.684  19.250  0.00  0.00    +0.000 OA
ATOM     13  H   UNL     1      53.242   2.530  18.847  0.00  0.00    +0.000 HD
ATOM     14  H   UNL     1      52.106   1.946  17.679  0.00  0.00    +0.000 HD
ENDBRANCH   4  11
ENDBRANCH   2   7
ENDBRANCH   1   2
BRANCH   1  15
ATOM     15  C   UNL     1      46.289   5.648  13.641  0.00  0.00    +0.000 C 
BRANCH  15  16
ATOM     16  C   UNL     1      45.244   5.403  12.578  0.00  0.00    +0.000 A 
ATOM     17  C   UNL     1      43.890   5.327  12.922  0.00  0.00    +0.000 A 
ATOM     18  C   UNL     1      42.927   5.080  11.942  0.00  0.00    +0.000 A 
ATOM     19  C   UNL     1      43.308   4.886  10.613  0.00  0.00    +0.000 A 
ATOM     20  C   UNL     1      44.654   4.951  10.248  0.00  0.00    +0.000 A 
ATOM     21  C   UNL     1      45.612   5.217  11.236  0.00  0.00    +0.000 A 
BRANCH  20  22
ATOM     22  N   UNL     1      45.096   4.771   8.917  0.00  0.00    +0.000 N 
ATOM     23  H   UNL     1      44.810   5.581   8.367  0.00  0.00    +0.000 HD
BRANCH  22  24
ATOM     24  C   UNL     1      45.011   3.550   8.168  0.00  0.00    +0.000 C 
ATOM     25  C   UNL     1      45.372   2.313   9.019  0.00  0.00    +0.000 C 
ATOM     26  C   UNL     1      46.361   1.883   7.925  0.00  0.00    +0.000 C 
ATOM     27  C   UNL     1      46.300   3.307   7.352  0.00  0.00    +0.000 C 
ENDBRANCH  22  24
ENDBRANCH  20  22
ENDBRANCH  15  16
ENDBRANCH   1  15
TORSDOF 7
ENDMDL
MODEL 7
REMARK VINA RESULT:    -6.838      3.905      7.712
REMARK INTER + INTRA:         -10.551
REMARK INTER:                  -9.385
REMARK INTRA:                  -1.167
REMARK UNBOUND:                -0.915
REMARK  Name = 
REMARK  7 active torsions:
REMARK  status: ('A' for Active; 'I' for Inactive)
REMARK    1  A    between atoms: C_2  and  C_4
REMARK    2  A    between atoms: C_7  and  N_8
REMARK    3  A    between atoms: N_8  and  C_9
REMARK    4  A    between atoms: C_9  and  C_10
REMARK    5  A    between atoms: C_10  and  C_11
REMARK    6  A    between atoms: C_15  and  N_16
REMARK    7  A    between atoms: N_16  and  C_17
REMARK                            x       y       z     vdW  Elec       q    Type
REMARK                         _______ _______ _______ _____ _____    ______ ____
ROOT
ATOM      1  C   UNL     1      47.518   5.925  13.332  0.00  0.00    +0.000 C 
ENDROOT
BRANCH   1   2
ATOM      2  N   UNL     1      47.360   7.235  13.966  0.00  0.00    +0.000 N 
ATOM      3  H   UNL     1      46.960   7.214  14.901  0.00  0.00    +0.000 HD
BRANCH   2   7
ATOM      4  C   UNL     1      45.860  10.596  11.892  0.00  0.00    +0.000 A 
ATOM      5  C   UNL     1      47.232  10.491  12.132  0.00  0.00    +0.000 A 
ATOM      6  C   UNL     1      47.744   9.375  12.803  0.00  0.00    +0.000 A 
ATOM      7  C   UNL     1      46.913   8.330  13.224  0.00  0.00    +0.000 A 
ATOM      8  C   UNL     1      45.533   8.465  12.994  0.00  0.00    +0.000 A 
ATOM      9  C   UNL     1      45.008   9.585  12.338  0.00  0.00    +0.000 A 
BRANCH   4  11
ATOM     10  N   UNL     1      45.363  11.819   9.843  0.00  0.00    +0.000 N 
ATOM     11  C   UNL     1      45.279  11.781  11.207  0.00  0.00    +0.000 C 
ATOM     12  O   UNL     1      44.713  12.666  11.830  0.00  0.00    +0.000 OA
ATOM     13  H   UNL     1      44.878  12.581   9.386  0.00  0.00    +0.000 HD
ATOM     14  H   UNL     1      45.585  11.003   9.291  0.00  0.00    +0.000 HD
ENDBRANCH   4  11
ENDBRANCH   2   7
ENDBRANCH   1   2
BRANCH   1  15
ATOM     15  C   UNL     1      46.376   4.987  13.741  0.00  0.00    +0.000 C 
BRANCH  15  16
ATOM     16  C   UNL     1      45.270   4.951  12.713  0.00  0.00    +0.000 A 
ATOM     17  C   UNL     1      43.930   4.949  13.114  0.00  0.00    +0.000 A 
ATOM     18  C   UNL     1      42.909   4.895  12.164  0.00  0.00    +0.000 A 
ATOM     19  C   UNL     1      43.216   4.823  10.803  0.00  0.00    +0.000 A 
ATOM     20  C   UNL     1      44.547   4.817  10.380  0.00  0.00    +0.000 A 
ATOM     21  C   UNL     1      45.565   4.890  11.341  0.00  0.00    +0.000 A 
BRANCH  20  22
ATOM     22  N   UNL     1      44.916   4.754   9.016  0.00  0.00    +0.000 N 
ATOM     23  H   UNL     1      44.513   5.556   8.532  0.00  0.00    +0.000 HD
BRANCH  22  24
ATOM     24  C   UNL     1      44.907   3.571   8.204  0.00  0.00    +0.000 C 
ATOM     25  C   UNL     1      45.343   2.316   8.991  0.00  0.00    +0.000 C 
ATOM     26  C   UNL     1      46.357   2.006   7.880  0.00  0.00    +0.000 C 
ATOM     27  C   UNL     1      46.208   3.451   7.381  0.00  0.00    +0.000 C 
ENDBRANCH  22  24
ENDBRANCH  20  22
ENDBRANCH  15  16
ENDBRANCH   1  15
TORSDOF 7
ENDMDL
MODEL 8
REMARK VINA RESULT:    -6.760      2.977      7.582
REMARK INTER + INTRA:         -10.441
REMARK INTER:                  -9.758
REMARK INTRA:                  -0.683
REMARK UNBOUND:                -0.915
REMARK  Name = 
REMARK  7 active torsions:
REMARK  status: ('A' for Active; 'I' for Inactive)
REMARK    1  A    between atoms: C_2  and  C_4
REMARK    2  A    between atoms: C_7  and  N_8
REMARK    3  A    between atoms: N_8  and  C_9
REMARK    4  A    between atoms: C_9  and  C_10
REMARK    5  A    between atoms: C_10  and  C_11
REMARK    6  A    between atoms: C_15  and  N_16
REMARK    7  A    between atoms: N_16  and  C_17
REMARK                            x       y       z     vdW  Elec       q    Type
REMARK                         _______ _______ _______ _____ _____    ______ ____
ROOT
ATOM      1  C   UNL     1      46.364   7.583  12.867  0.00  0.00    +0.000 C 
ENDROOT
BRANCH   1   2
ATOM      2  N   UNL     1      47.369   6.521  12.937  0.00  0.00    +0.000 N 
ATOM      3  H   UNL     1      47.392   5.899  12.132  0.00  0.00    +0.000 HD
BRANCH   2   7
ATOM      4  C   UNL     1      47.999   4.660  16.677  0.00  0.00    +0.000 A 
ATOM      5  C   UNL     1      47.189   4.037  15.725  0.00  0.00    +0.000 A 
ATOM      6  C   UNL     1      46.985   4.634  14.477  0.00  0.00    +0.000 A 
ATOM      7  C   UNL     1      47.601   5.844  14.136  0.00  0.00    +0.000 A 
ATOM      8  C   UNL     1      48.393   6.468  15.114  0.00  0.00    +0.000 A 
ATOM      9  C   UNL     1      48.591   5.887  16.373  0.00  0.00    +0.000 A 
BRANCH   4  11
ATOM     10  N   UNL     1      47.740   4.769  19.098  0.00  0.00    +0.000 N 
ATOM     11  C   UNL     1      48.214   4.068  18.024  0.00  0.00    +0.000 C 
ATOM     12  O   UNL     1      48.756   2.983  18.166  0.00  0.00    +0.000 OA
ATOM     13  H   UNL     1      47.807   4.309  19.997  0.00  0.00    +0.000 HD
ATOM     14  H   UNL     1      47.074   5.521  19.002  0.00  0.00    +0.000 HD
ENDBRANCH   4  11
ENDBRANCH   2   7
ENDBRANCH   1   2
BRANCH   1  15
ATOM     15  C   UNL     1      45.332   7.278  11.775  0.00  0.00    +0.000 C 
BRANCH  15  16
ATOM     16  C   UNL     1      44.712   5.911  11.942  0.00  0.00    +0.000 A 
ATOM     17  C   UNL     1      43.759   5.683  12.942  0.00  0.00    +0.000 A 
ATOM     18  C   UNL     1      43.202   4.415  13.109  0.00  0.00    +0.000 A 
ATOM     19  C   UNL     1      43.604   3.355  12.293  0.00  0.00    +0.000 A 
ATOM     20  C   UNL     1      44.558   3.558  11.293  0.00  0.00    +0.000 A 
ATOM     21  C   UNL     1      45.099   4.840  11.121  0.00  0.00    +0.000 A 
BRANCH  20  22
ATOM     22  N   UNL     1      44.997   2.524  10.433  0.00  0.00    +0.000 N 
ATOM     23  H   UNL     1      45.956   2.281  10.677  0.00  0.00    +0.000 HD
BRANCH  22  24
ATOM     24  C   UNL     1      44.767   2.465   9.017  0.00  0.00    +0.000 C 
ATOM     25  C   UNL     1      45.970   1.875   8.250  0.00  0.00    +0.000 C 
ATOM     26  C   UNL     1      45.936   3.093   7.315  0.00  0.00    +0.000 C 
ATOM     27  C   UNL     1      45.065   3.825   8.348  0.00  0.00    +0.000 C 
ENDBRANCH  22  24
ENDBRANCH  20  22
ENDBRANCH  15  16
ENDBRANCH   1  15
TORSDOF 7
ENDMDL
MODEL 9
REMARK VINA RESULT:    -6.541      3.475      7.142
REMARK INTER + INTRA:         -10.133
REMARK INTER:                  -9.310
REMARK INTRA:                  -0.823
REMARK UNBOUND:                -0.915
REMARK  Name = 
REMARK  7 active torsions:
REMARK  status: ('A' for Active; 'I' for Inactive)
REMARK    1  A    between atoms: C_2  and  C_4
REMARK    2  A    between atoms: C_7  and  N_8
REMARK    3  A    between atoms: N_8  and  C_9
REMARK    4  A    between atoms: C_9  and  C_10
REMARK    5  A    between atoms: C_10  and  C_11
REMARK    6  A    between atoms: C_15  and  N_16
REMARK    7  A    between atoms: N_16  and  C_17
REMARK                            x       y       z     vdW  Elec       q    Type
REMARK                         _______ _______ _______ _____ _____    ______ ____
ROOT
ATOM      1  C   UNL     1      44.006   7.233  11.396  0.00  0.00    +0.000 C 
ENDROOT
BRANCH   1   2
ATOM      2  N   UNL     1      44.823   7.169  12.609  0.00  0.00    +0.000 N 
ATOM      3  H   UNL     1      44.394   7.577  13.437  0.00  0.00    +0.000 HD
BRANCH   2   7
ATOM      4  C   UNL     1      48.996   7.741  12.273  0.00  0.00    +0.000 A 
ATOM      5  C   UNL     1      48.135   8.824  12.087  0.00  0.00    +0.000 A 
ATOM      6  C   UNL     1      46.753   8.653  12.212  0.00  0.00    +0.000 A 
ATOM      7  C   UNL     1      46.197   7.413  12.550  0.00  0.00    +0.000 A 
ATOM      8  C   UNL     1      47.077   6.329  12.710  0.00  0.00    +0.000 A 
ATOM      9  C   UNL     1      48.462   6.486  12.571  0.00  0.00    +0.000 A 
BRANCH   4  11
ATOM     10  N   UNL     1      51.215   7.920  13.264  0.00  0.00    +0.000 N 
ATOM     11  C   UNL     1      50.468   7.880  12.120  0.00  0.00    +0.000 C 
ATOM     12  O   UNL     1      50.996   7.919  11.019  0.00  0.00    +0.000 OA
ATOM     13  H   UNL     1      52.220   7.917  13.143  0.00  0.00    +0.000 HD
ATOM     14  H   UNL     1      50.848   7.635  14.160  0.00  0.00    +0.000 HD
ENDBRANCH   4  11
ENDBRANCH   2   7
ENDBRANCH   1   2
BRANCH   1  15
ATOM     15  C   UNL     1      42.881   6.193  11.449  0.00  0.00    +0.000 C 
BRANCH  15  16
ATOM     16  C   UNL     1      43.338   4.832  10.979  0.00  0.00    +0.000 A 
ATOM     17  C   UNL     1      43.226   3.719  11.819  0.00  0.00    +0.000 A 
ATOM     18  C   UNL     1      43.668   2.466  11.392  0.00  0.00    +0.000 A 
ATOM     19  C   UNL     1      44.245   2.315  10.129  0.00  0.00    +0.000 A 
ATOM     20  C   UNL     1      44.373   3.413   9.277  0.00  0.00    +0.000 A 
ATOM     21  C   UNL     1      43.910   4.664   9.708  0.00  0.00    +0.000 A 
BRANCH  20  22
ATOM     22  N   UNL     1      44.941   3.318   7.985  0.00  0.00    +0.000 N 
ATOM     23  H   UNL     1      44.348   2.718   7.412  0.00  0.00    +0.000 HD
BRANCH  22  24
ATOM     24  C   UNL     1      46.335   3.135   7.699  0.00  0.00    +0.000 C 
ATOM     25  C   UNL     1      46.637   3.191   6.185  0.00  0.00    +0.000 C 
ATOM     26  C   UNL     1      47.393   1.860   6.314  0.00  0.00    +0.000 C 
ATOM     27  C   UNL     1      46.705   1.636   7.670  0.00  0.00    +0.000 C 
ENDBRANCH  22  24
ENDBRANCH  20  22
ENDBRANCH  15  16
ENDBRANCH   1  15
TORSDOF 7
ENDMDL
