MODEL 1
REMARK VINA RESULT:    -9.031      0.000      0.000
REMARK INTER + INTRA:         -13.097
REMARK INTER:                 -12.199
REMARK INTRA:                  -0.899
REMARK UNBOUND:                -0.899
REMARK  Name = 
REMARK  6 active torsions:
REMARK  status: ('A' for Active; 'I' for Inactive)
REMARK    1  A    between atoms: C_2  and  C_4
REMARK    2  A    between atoms: N_8  and  C_9
REMARK    3  A    between atoms: C_9  and  C_10
REMARK    4  A    between atoms: C_10  and  C_11
REMARK    5  A    between atoms: C_16  and  O_17
REMARK    6  A    between atoms: O_17  and  C_18
REMARK                            x       y       z     vdW  Elec       q    Type
REMARK                         _______ _______ _______ _____ _____    ______ ____
ROOT
ATOM      1  C   UNL     1      43.299   4.313  11.223  0.00  0.00    +0.000 C 
ENDROOT
BRANCH   1   6
ATOM      2  C   UNL     1      46.443   2.470   7.721  0.00  0.00    +0.000 A 
ATOM      3  C   UNL     1      45.627   1.813   8.634  0.00  0.00    +0.000 A 
ATOM      4  C   UNL     1      44.714   2.555   9.377  0.00  0.00    +0.000 A 
ATOM      5  C   UNL     1      44.641   3.937   9.221  0.00  0.00    +0.000 A 
ATOM      6  N   UNL     1      43.690   4.710   9.878  0.00  0.00    +0.000 N 
ATOM      7  N   UNL     1      45.454   4.588   8.365  0.00  0.00    +0.000 NA
ATOM      8  C   UNL     1      46.340   3.850   7.639  0.00  0.00    +0.000 A 
ATOM      9  H   UNL     1      43.931   5.688   9.733  0.00  0.00    +0.000 HD
BRANCH   2  11
ATOM     10  N   UNL     1      48.495   2.437   6.434  0.00  0.00    +0.000 N 
ATOM     11  C   UNL     1      47.396   1.742   6.859  0.00  0.00    +0.000 C 
ATOM     12  O   UNL     1      47.227   0.567   6.567  0.00  0.00    +0.000 OA
ATOM     13  H   UNL     1      49.193   1.915   5.918  0.00  0.00    +0.000 HD
ATOM     14  H   UNL     1      48.788   3.303   6.859  0.00  0.00    +0.000 HD
ENDBRANCH   2  11
ENDBRANCH   1   6
BRANCH   1  15
ATOM     15  C   UNL     1      43.528   5.438  12.237  0.00  0.00    +0.000 C 
BRANCH  15  16
ATOM     16  C   UNL     1      45.005   5.583  12.534  0.00  0.00    +0.000 A 
ATOM     17  C   UNL     1      45.748   6.649  12.009  0.00  0.00    +0.000 A 
ATOM     18  C   UNL     1      47.087   6.791  12.359  0.00  0.00    +0.000 A 
ATOM     19  F   UNL     1      47.794   7.811  11.845  0.00  0.00    +0.000 F 
ATOM     20  C   UNL     1      47.695   5.917  13.250  0.00  0.00    +0.000 A 
ATOM     21  C   UNL     1      46.959   4.872  13.809  0.00  0.00    +0.000 A 
ATOM     22  C   UNL     1      45.628   4.686  13.424  0.00  0.00    +0.000 A 
BRANCH  21  23
ATOM     23  O   UNL     1      47.619   4.081  14.721  0.00  0.00    +0.000 OA
BRANCH  23  24
ATOM     24  C   UNL     1      47.308   4.247  16.128  0.00  0.00    +0.000 C 
ATOM     25  C   UNL     1      48.285   5.108  16.967  0.00  0.00    +0.000 C 
ATOM     26  C   UNL     1      48.284   4.024  18.053  0.00  0.00    +0.000 C 
ATOM     27  C   UNL     1      47.675   3.046  17.037  0.00  0.00    +0.000 C 
ENDBRANCH  23  24
ENDBRANCH  21  23
ENDBRANCH  15  16
ENDBRANCH   1  15
TORSDOF 6
ENDMDL
MODEL 2
REMARK VINA RESULT:    -8.584      2.049      3.237
REMARK INTER + INTRA:         -12.494
REMARK INTER:                 -11.441
REMARK INTRA:                  -1.052
REMARK UNBOUND:                -0.899
REMARK  Name = 
REMARK  6 active torsions:
REMARK  status: ('A' for Active; 'I' for Inactive)
REMARK    1  A    between atoms: C_2  and  C_4
REMARK    2  A    between atoms: N_8  and  C_9
REMARK    3  A    between atoms: C_9  and  C_10
REMARK    4  A    between atoms: C_10  and  C_11
REMARK    5  A    between atoms: C_16  and  O_17
REMARK    6  A    between atoms: O_17  and  C_18
REMARK                            x       y       z     vdW  Elec       q    Type
REMARK                         _______ _______ _______ _____ _____    ______ ____
ROOT
ATOM      1  C   UNL     1      43.231   4.652  10.968  0.00  0.00    +0.000 C 
ENDROOT
BRANCH   1   6
ATOM      2  C   UNL     1      46.377   2.327   7.766  0.00  0.00    +0.000 A 
ATOM      3  C   UNL     1      45.470   1.802   8.679  0.00  0.00    +0.000 A 
ATOM      4  C   UNL     1      44.585   2.662   9.322  0.00  0.00    +0.000 A 
ATOM      5  C   UNL     1      44.631   4.032   9.068  0.00  0.00    +0.000 A 
ATOM      6  N   UNL     1      43.715   4.920   9.621  0.00  0.00    +0.000 N 
ATOM      7  N   UNL     1      45.531   4.555   8.213  0.00  0.00    +0.000 NA
ATOM      8  C   UNL     1      46.388   3.701   7.585  0.00  0.00    +0.000 A 
ATOM      9  H   UNL     1      44.039   5.864   9.422  0.00  0.00    +0.000 HD
BRANCH   2  11
ATOM     10  N   UNL     1      48.443   2.064   6.529  0.00  0.00    +0.000 N 
ATOM     11  C   UNL     1      47.307   1.468   7.007  0.00  0.00    +0.000 C 
ATOM     12  O   UNL     1      47.089   0.276   6.841  0.00  0.00    +0.000 OA
ATOM     13  H   UNL     1      49.123   1.458   6.086  0.00  0.00    +0.000 HD
ATOM     14  H   UNL     1      48.769   2.957   6.863  0.00  0.00    +0.000 HD
ENDBRANCH   2  11
ENDBRANCH   1   6
BRANCH   1  15
ATOM     15  C   UNL     1      43.458   5.846  11.901  0.00  0.00    +0.000 C 
BRANCH  15  16
ATOM     16  C   UNL     1      44.782   5.705  12.621  0.00  0.00    +0.000 A 
ATOM     17  C   UNL     1      45.283   4.444  12.972  0.00  0.00    +0.000 A 
ATOM     18  C   UNL     1      46.536   4.345  13.570  0.00  0.00    +0.000 A 
ATOM     19  F   UNL     1      47.005   3.134  13.911  0.00  0.00    +0.000 F 
ATOM     20  C   UNL     1      47.319   5.470  13.792  0.00  0.00    +0.000 A 
ATOM     21  C   UNL     1      46.848   6.729  13.415  0.00  0.00    +0.000 A 
ATOM     22  C   UNL     1      45.569   6.847  12.863  0.00  0.00    +0.000 A 
BRANCH  21  23
ATOM     23  O   UNL     1      47.703   7.786  13.622  0.00  0.00    +0.000 OA
BRANCH  23  24
ATOM     24  C   UNL     1      49.001   7.761  12.973  0.00  0.00    +0.000 C 
ATOM     25  C   UNL     1      49.770   9.102  12.890  0.00  0.00    +0.000 C 
ATOM     26  C   UNL     1      50.066   8.823  11.410  0.00  0.00    +0.000 C 
ATOM     27  C   UNL     1      48.971   7.745  11.424  0.00  0.00    +0.000 C 
ENDBRANCH  23  24
ENDBRANCH  21  23
ENDBRANCH  15  16
ENDBRANCH   1  15
TORSDOF 6
ENDMDL
MODEL 3
REMARK VINA RESULT:    -7.930      1.519      1.881
REMARK INTER + INTRA:         -11.610
REMARK INTER:                 -11.194
REMARK INTRA:                  -0.416
REMARK UNBOUND:                -0.899
REMARK  Name = 
REMARK  6 active torsions:
REMARK  status: ('A' for Active; 'I' for Inactive)
REMARK    1  A    between atoms: C_2  and  C_4
REMARK    2  A    between atoms: N_8  and  C_9
REMARK    3  A    between atoms: C_9  and  C_10
REMARK    4  A    between atoms: C_10  and  C_11
REMARK    5  A    between atoms: C_16  and  O_17
REMARK    6  A    between atoms: O_17  and  C_18
REMARK                            x       y       z     vdW  Elec       q    Type
REMARK                         _______ _______ _______ _____ _____    ______ ____
ROOT
ATOM      1  C   UNL     1      43.579   4.709  11.212  0.00  0.00    +0.000 C 
ENDROOT
BRANCH   1   6
ATOM      2  C   UNL     1      46.466   2.404   7.761  0.00  0.00    +0.000 A 
ATOM      3  C   UNL     1      45.624   1.873   8.731  0.00  0.00    +0.000 A 
ATOM      4  C   UNL     1      44.795   2.731   9.448  0.00  0.00    +0.000 A 
ATOM      5  C   UNL     1      44.832   4.103   9.208  0.00  0.00    +0.000 A 
ATOM      6  N   UNL     1      43.965   4.990   9.836  0.00  0.00    +0.000 N 
ATOM      7  N   UNL     1      45.672   4.631   8.295  0.00  0.00    +0.000 NA
ATOM      8  C   UNL     1      46.474   3.780   7.597  0.00  0.00    +0.000 A 
ATOM      9  H   UNL     1      44.281   5.935   9.626  0.00  0.00    +0.000 HD
BRANCH   2  11
ATOM     10  N   UNL     1      48.509   2.100   6.495  0.00  0.00    +0.000 N 
ATOM     11  C   UNL     1      47.332   1.549   6.926  0.00  0.00    +0.000 C 
ATOM     12  O   UNL     1      47.029   0.395   6.659  0.00  0.00    +0.000 OA
ATOM     13  H   UNL     1      49.144   1.487   5.998  0.00  0.00    +0.000 HD
ATOM     14  H   UNL     1      48.898   2.936   6.902  0.00  0.00    +0.000 HD
ENDBRANCH   2  11
ENDBRANCH   1   6
BRANCH   1  15
ATOM     15  C   UNL     1      44.787   4.327  12.074  0.00  0.00    +0.000 C 
BRANCH  15  16
ATOM     16  C   UNL     1      45.572   5.564  12.452  0.00  0.00    +0.000 A 
ATOM     17  C   UNL     1      44.960   6.824  12.493  0.00  0.00    +0.000 A 
ATOM     18  C   UNL     1      45.693   7.931  12.914  0.00  0.00    +0.000 A 
ATOM     19  F   UNL     1      45.102   9.136  12.942  0.00  0.00    +0.000 F 
ATOM     20  C   UNL     1      47.011   7.804  13.331  0.00  0.00    +0.000 A 
ATOM     21  C   UNL     1      47.623   6.550  13.330  0.00  0.00    +0.000 A 
ATOM     22  C   UNL     1      46.914   5.440  12.859  0.00  0.00    +0.000 A 
BRANCH  21  23
ATOM     23  O   UNL     1      48.912   6.500  13.806  0.00  0.00    +0.000 OA
BRANCH  23  24
ATOM     24  C   UNL     1      49.187   7.064  15.114  0.00  0.00    +0.000 C 
ATOM     25  C   UNL     1      50.673   7.160  15.539  0.00  0.00    +0.000 C 
ATOM     26  C   UNL     1      50.305   6.565  16.905  0.00  0.00    +0.000 C 
ATOM     27  C   UNL     1      48.965   6.107  16.312  0.00  0.00    +0.000 C 
ENDBRANCH  23  24
ENDBRANCH  21  23
ENDBRANCH  15  16
ENDBRANCH   1  15
TORSDOF 6
ENDMDL
MODEL 4
REMARK VINA RESULT:    -7.762      2.812      4.597
REMARK INTER + INTRA:         -11.383
REMARK INTER:                 -10.670
REMARK INTRA:                  -0.714
REMARK UNBOUND:                -0.899
REMARK  Name = 
REMARK  6 active torsions:
REMARK  status: ('A' for Active; 'I' for Inactive)
REMARK    1  A    between atoms: C_2  and  C_4
REMARK    2  A    between atoms: N_8  and  C_9
REMARK    3  A    between atoms: C_9  and  C_10
REMARK    4  A    between atoms: C_10  and  C_11
REMARK    5  A    between atoms: C_16  and  O_17
REMARK    6  A    between atoms: O_17  and  C_18
REMARK                            x       y       z     vdW  Elec       q    Type
REMARK                         _______ _______ _______ _____ _____    ______ ____
ROOT
ATOM      1  C   UNL     1      43.581   4.865  11.142  0.00  0.00    +0.000 C 
ENDROOT
BRANCH   1   6
ATOM      2  C   UNL     1      46.448   2.414   7.776  0.00  0.00    +0.000 A 
ATOM      3  C   UNL     1      45.568   1.927   8.734  0.00  0.00    +0.000 A 
ATOM      4  C   UNL     1      44.757   2.823   9.424  0.00  0.00    +0.000 A 
ATOM      5  C   UNL     1      44.850   4.190   9.170  0.00  0.00    +0.000 A 
ATOM      6  N   UNL     1      44.005   5.116   9.772  0.00  0.00    +0.000 N 
ATOM      7  N   UNL     1      45.727   4.676   8.270  0.00  0.00    +0.000 NA
ATOM      8  C   UNL     1      46.511   3.787   7.597  0.00  0.00    +0.000 A 
ATOM      9  H   UNL     1      44.360   6.046   9.557  0.00  0.00    +0.000 HD
BRANCH   2  11
ATOM     10  N   UNL     1      48.415   2.073   6.405  0.00  0.00    +0.000 N 
ATOM     11  C   UNL     1      47.298   1.518   6.968  0.00  0.00    +0.000 C 
ATOM     12  O   UNL     1      47.034   0.331   6.836  0.00  0.00    +0.000 OA
ATOM     13  H   UNL     1      49.046   1.441   5.925  0.00  0.00    +0.000 HD
ATOM     14  H   UNL     1      48.790   2.960   6.702  0.00  0.00    +0.000 HD
ENDBRANCH   2  11
ENDBRANCH   1   6
BRANCH   1  15
ATOM     15  C   UNL     1      44.776   4.735  12.091  0.00  0.00    +0.000 C 
BRANCH  15  16
ATOM     16  C   UNL     1      45.540   6.040  12.154  0.00  0.00    +0.000 A 
ATOM     17  C   UNL     1      46.918   6.085  11.903  0.00  0.00    +0.000 A 
ATOM     18  C   UNL     1      47.577   7.311  11.900  0.00  0.00    +0.000 A 
ATOM     19  F   UNL     1      48.899   7.344  11.668  0.00  0.00    +0.000 F 
ATOM     20  C   UNL     1      46.887   8.499  12.103  0.00  0.00    +0.000 A 
ATOM     21  C   UNL     1      45.508   8.473  12.318  0.00  0.00    +0.000 A 
ATOM     22  C   UNL     1      44.845   7.244  12.378  0.00  0.00    +0.000 A 
BRANCH  21  23
ATOM     23  O   UNL     1      44.891   9.694  12.460  0.00  0.00    +0.000 OA
BRANCH  23  24
ATOM     24  C   UNL     1      44.341  10.330  11.278  0.00  0.00    +0.000 C 
ATOM     25  C   UNL     1      44.646  11.836  11.085  0.00  0.00    +0.000 C 
ATOM     26  C   UNL     1      43.165  12.078  10.761  0.00  0.00    +0.000 C 
ATOM     27  C   UNL     1      42.839  10.702  11.358  0.00  0.00    +0.000 C 
ENDBRANCH  23  24
ENDBRANCH  21  23
ENDBRANCH  15  16
ENDBRANCH   1  15
TORSDOF 6
ENDMDL
MODEL 5
REMARK VINA RESULT:    -7.636      3.496      7.979
REMARK INTER + INTRA:         -11.213
REMARK INTER:                 -10.387
REMARK INTRA:                  -0.826
REMARK UNBOUND:                -0.899
REMARK  Name = 
REMARK  6 active torsions:
REMARK  status: ('A' for Active; 'I' for Inactive)
REMARK    1  A    between atoms: C_2  and  C_4
REMARK    2  A    between atoms: N_8  and  C_9
REMARK    3  A    between atoms: C_9  and  C_10
REMARK    4  A    between atoms: C_10  and  C_11
REMARK    5  A    between atoms: C_16  and  O_17
REMARK    6  A    between atoms: O_17  and  C_18
REMARK                            x       y       z     vdW  Elec       q    Type
REMARK                         _______ _______ _______ _____ _____    ______ ____
ROOT
ATOM      1  C   UNL     1      45.937   6.499  12.957  0.00  0.00    +0.000 C 
ENDROOT
BRANCH   1   6
ATOM      2  C   UNL     1      48.357   4.081  16.679  0.00  0.00    +0.000 A 
ATOM      3  C   UNL     1      47.387   3.629  15.793  0.00  0.00    +0.000 A 
ATOM      4  C   UNL     1      47.005   4.449  14.736  0.00  0.00    +0.000 A 
ATOM      5  C   UNL     1      47.573   5.713  14.588  0.00  0.00    +0.000 A 
ATOM      6  N   UNL     1      47.287   6.534  13.502  0.00  0.00    +0.000 N 
ATOM      7  N   UNL     1      48.487   6.175  15.464  0.00  0.00    +0.000 NA
ATOM      8  C   UNL     1      48.857   5.360  16.492  0.00  0.00    +0.000 A 
ATOM      9  H   UNL     1      47.689   7.450  13.691  0.00  0.00    +0.000 HD
BRANCH   2  11
ATOM     10  N   UNL     1      48.194   3.361  18.987  0.00  0.00    +0.000 N 
ATOM     11  C   UNL     1      48.850   3.244  17.791  0.00  0.00    +0.000 C 
ATOM     12  O   UNL     1      49.778   2.462  17.642  0.00  0.00    +0.000 OA
ATOM     13  H   UNL     1      48.472   2.725  19.723  0.00  0.00    +0.000 HD
ATOM     14  H   UNL     1      47.286   3.792  19.068  0.00  0.00    +0.000 HD
ENDBRANCH   2  11
ENDBRANCH   1   6
BRANCH   1  15
ATOM     15  C   UNL     1      45.935   6.659  11.434  0.00  0.00    +0.000 C 
BRANCH  15  16
ATOM     16  C   UNL     1      45.432   5.393  10.775  0.00  0.00    +0.000 A 
ATOM     17  C   UNL     1      44.601   4.500  11.464  0.00  0.00    +0.000 A 
ATOM     18  C   UNL     1      44.099   3.381  10.805  0.00  0.00    +0.000 A 
ATOM     19  F   UNL     1      43.310   2.525  11.475  0.00  0.00    +0.000 F 
ATOM     20  C   UNL     1      44.375   3.151   9.464  0.00  0.00    +0.000 A 
ATOM     21  C   UNL     1      45.172   4.050   8.755  0.00  0.00    +0.000 A 
ATOM     22  C   UNL     1      45.727   5.149   9.419  0.00  0.00    +0.000 A 
BRANCH  21  23
ATOM     23  O   UNL     1      45.357   3.780   7.419  0.00  0.00    +0.000 OA
BRANCH  23  24
ATOM     24  C   UNL     1      46.702   3.505   6.950  0.00  0.00    +0.000 C 
ATOM     25  C   UNL     1      46.859   3.102   5.464  0.00  0.00    +0.000 C 
ATOM     26  C   UNL     1      47.775   1.947   5.889  0.00  0.00    +0.000 C 
ATOM     27  C   UNL     1      47.269   2.114   7.330  0.00  0.00    +0.000 C 
ENDBRANCH  23  24
ENDBRANCH  21  23
ENDBRANCH  15  16
ENDBRANCH   1  15
TORSDOF 6
ENDMDL
MODEL 6
REMARK VINA RESULT:    -7.358      2.555      3.371
REMARK INTER + INTRA:         -10.838
REMARK INTER:                 -10.587
REMARK INTRA:                  -0.251
REMARK UNBOUND:                -0.899
REMARK  Name = 
REMARK  6 active torsions:
REMARK  status: ('A' for Active; 'I' for Inactive)
REMARK    1  A    between atoms: C_2  and  C_4
REMARK    2  A    between atoms: N_8  and  C_9
REMARK    3  A    between atoms: C_9  and  C_10
REMARK    4  A    between atoms: C_10  and  C_11
REMARK    5  A    between atoms: C_16  and  O_17
REMARK    6  A    between atoms: O_17  and  C_18
REMARK                            x       y       z     vdW  Elec       q    Type
REMARK                         _______ _______ _______ _____ _____    ______ ____
ROOT
ATOM      1  C   UNL     1      43.385   3.905  11.094  0.00  0.00    +0.000 C 
ENDROOT
BRANCH   1   6
ATOM      2  C   UNL     1      46.679   2.823   7.416  0.00  0.00    +0.000 A 
ATOM      3  C   UNL     1      45.887   1.985   8.190  0.00  0.00    +0.000 A 
ATOM      4  C   UNL     1      44.923   2.547   9.022  0.00  0.00    +0.000 A 
ATOM      5  C   UNL     1      44.777   3.931   9.091  0.00  0.00    +0.000 A 
ATOM      6  N   UNL     1      43.774   4.536   9.841  0.00  0.00    +0.000 N 
ATOM      7  N   UNL     1      45.566   4.753   8.372  0.00  0.00    +0.000 NA
ATOM      8  C   UNL     1      46.502   4.190   7.557  0.00  0.00    +0.000 A 
ATOM      9  H   UNL     1      43.963   5.536   9.863  0.00  0.00    +0.000 HD
BRANCH   2  11
ATOM     10  N   UNL     1      47.777   2.924   5.259  0.00  0.00    +0.000 N 
ATOM     11  C   UNL     1      47.683   2.296   6.471  0.00  0.00    +0.000 C 
ATOM     12  O   UNL     1      48.417   1.364   6.770  0.00  0.00    +0.000 OA
ATOM     13  H   UNL     1      48.524   2.622   4.646  0.00  0.00    +0.000 HD
ATOM     14  H   UNL     1      47.378   3.834   5.087  0.00  0.00    +0.000 HD
ENDBRANCH   2  11
ENDBRANCH   1   6
BRANCH   1  15
ATOM     15  C   UNL     1      44.440   4.111  12.186  0.00  0.00    +0.000 C 
BRANCH  15  16
ATOM     16  C   UNL     1      45.068   5.481  12.055  0.00  0.00    +0.000 A 
ATOM     17  C   UNL     1      44.300   6.598  11.701  0.00  0.00    +0.000 A 
ATOM     18  C   UNL     1      44.895   7.856  11.659  0.00  0.00    +0.000 A 
ATOM     19  F   UNL     1      44.154   8.920  11.310  0.00  0.00    +0.000 F 
ATOM     20  C   UNL     1      46.230   8.032  11.998  0.00  0.00    +0.000 A 
ATOM     21  C   UNL     1      46.999   6.934  12.387  0.00  0.00    +0.000 A 
ATOM     22  C   UNL     1      46.427   5.658  12.382  0.00  0.00    +0.000 A 
BRANCH  21  23
ATOM     23  O   UNL     1      48.297   7.199  12.757  0.00  0.00    +0.000 OA
BRANCH  23  24
ATOM     24  C   UNL     1      49.064   8.135  11.958  0.00  0.00    +0.000 C 
ATOM     25  C   UNL     1      50.333   7.588  11.260  0.00  0.00    +0.000 C 
ATOM     26  C   UNL     1      51.116   8.811  11.755  0.00  0.00    +0.000 C 
ATOM     27  C   UNL     1      49.984   9.094  12.755  0.00  0.00    +0.000 C 
ENDBRANCH  23  24
ENDBRANCH  21  23
ENDBRANCH  15  16
ENDBRANCH   1  15
TORSDOF 6
ENDMDL
MODEL 7
REMARK VINA RESULT:    -7.224      3.470      8.104
REMARK INTER + INTRA:         -10.657
REMARK INTER:                 -10.143
REMARK INTRA:                  -0.514
REMARK UNBOUND:                -0.899
REMARK  Name = 
REMARK  6 active torsions:
REMARK  status: ('A' for Active; 'I' for Inactive)
REMARK    1  A    between atoms: C_2  and  C_4
REMARK    2  A    between atoms: N_8  and  C_9
REMARK    3  A    between atoms: C_9  and  C_10
REMARK    4  A    between atoms: C_10  and  C_11
REMARK    5  A    between atoms: C_16  and  O_17
REMARK    6  A    between atoms: O_17  and  C_18
REMARK                            x       y       z     vdW  Elec       q    Type
REMARK                         _______ _______ _______ _____ _____    ______ ____
ROOT
ATOM      1  C   UNL     1      47.505   6.243  12.854  0.00  0.00    +0.000 C 
ENDROOT
BRANCH   1   6
ATOM      2  C   UNL     1      48.429   4.415  17.476  0.00  0.00    +0.000 A 
ATOM      3  C   UNL     1      48.898   5.564  16.851  0.00  0.00    +0.000 A 
ATOM      4  C   UNL     1      48.350   5.940  15.629  0.00  0.00    +0.000 A 
ATOM      5  C   UNL     1      47.361   5.158  15.035  0.00  0.00    +0.000 A 
ATOM      6  N   UNL     1      46.724   5.535  13.858  0.00  0.00    +0.000 N 
ATOM      7  N   UNL     1      46.926   4.022  15.615  0.00  0.00    +0.000 NA
ATOM      8  C   UNL     1      47.467   3.668  16.814  0.00  0.00    +0.000 A 
ATOM      9  H   UNL     1      46.166   4.745  13.540  0.00  0.00    +0.000 HD
BRANCH   2  11
ATOM     10  N   UNL     1      48.236   2.979  19.417  0.00  0.00    +0.000 N 
ATOM     11  C   UNL     1      48.925   3.986  18.798  0.00  0.00    +0.000 C 
ATOM     12  O   UNL     1      49.923   4.484  19.301  0.00  0.00    +0.000 OA
ATOM     13  H   UNL     1      48.627   2.623  20.281  0.00  0.00    +0.000 HD
ATOM     14  H   UNL     1      47.585   2.386  18.926  0.00  0.00    +0.000 HD
ENDBRANCH   2  11
ENDBRANCH   1   6
BRANCH   1  15
ATOM     15  C   UNL     1      46.611   7.013  11.877  0.00  0.00    +0.000 C 
BRANCH  15  16
ATOM     16  C   UNL     1      45.516   6.113  11.349  0.00  0.00    +0.000 A 
ATOM     17  C   UNL     1      44.239   6.112  11.926  0.00  0.00    +0.000 A 
ATOM     18  C   UNL     1      43.234   5.324  11.372  0.00  0.00    +0.000 A 
ATOM     19  F   UNL     1      42.016   5.323  11.937  0.00  0.00    +0.000 F 
ATOM     20  C   UNL     1      43.462   4.565  10.232  0.00  0.00    +0.000 A 
ATOM     21  C   UNL     1      44.718   4.584   9.624  0.00  0.00    +0.000 A 
ATOM     22  C   UNL     1      45.750   5.329  10.203  0.00  0.00    +0.000 A 
BRANCH  21  23
ATOM     23  O   UNL     1      44.848   3.846   8.471  0.00  0.00    +0.000 OA
BRANCH  23  24
ATOM     24  C   UNL     1      46.165   3.354   8.112  0.00  0.00    +0.000 C 
ATOM     25  C   UNL     1      46.535   3.372   6.608  0.00  0.00    +0.000 C 
ATOM     26  C   UNL     1      47.058   1.935   6.736  0.00  0.00    +0.000 C 
ATOM     27  C   UNL     1      46.312   1.812   8.072  0.00  0.00    +0.000 C 
ENDBRANCH  23  24
ENDBRANCH  21  23
ENDBRANCH  15  16
ENDBRANCH   1  15
TORSDOF 6
ENDMDL
MODEL 8
REMARK VINA RESULT:    -6.972      3.410      7.510
REMARK INTER + INTRA:         -10.316
REMARK INTER:                  -9.550
REMARK INTRA:                  -0.766
REMARK UNBOUND:                -0.899
REMARK  Name = 
REMARK  6 active torsions:
REMARK  status: ('A' for Active; 'I' for Inactive)
REMARK    1  A    between atoms: C_2  and  C_4
REMARK    2  A    between atoms: N_8  and  C_9
REMARK    3  A    between atoms: C_9  and  C_10
REMARK    4  A    between atoms: C_10  and  C_11
REMARK    5  A    between atoms: C_16  and  O_17
REMARK    6  A    between atoms: O_17  and  C_18
REMARK                            x       y       z     vdW  Elec       q    Type
REMARK                         _______ _______ _______ _____ _____    ______ ____
ROOT
ATOM      1  C   UNL     1      47.892   7.035  11.832  0.00  0.00    +0.000 C 
ENDROOT
BRANCH   1   6
ATOM      2  C   UNL     1      47.542   4.654  16.278  0.00  0.00    +0.000 A 
ATOM      3  C   UNL     1      47.166   4.244  15.004  0.00  0.00    +0.000 A 
ATOM      4  C   UNL     1      47.536   5.020  13.909  0.00  0.00    +0.000 A 
ATOM      5  C   UNL     1      48.250   6.202  14.097  0.00  0.00    +0.000 A 
ATOM      6  N   UNL     1      48.714   6.966  13.032  0.00  0.00    +0.000 N 
ATOM      7  N   UNL     1      48.586   6.627  15.331  0.00  0.00    +0.000 NA
ATOM      8  C   UNL     1      48.223   5.855  16.394  0.00  0.00    +0.000 A 
ATOM      9  H   UNL     1      49.062   7.845  13.409  0.00  0.00    +0.000 HD
BRANCH   2  11
ATOM     10  N   UNL     1      47.826   4.246  18.648  0.00  0.00    +0.000 N 
ATOM     11  C   UNL     1      47.232   3.854  17.479  0.00  0.00    +0.000 C 
ATOM     12  O   UNL     1      46.458   2.908  17.437  0.00  0.00    +0.000 OA
ATOM     13  H   UNL     1      47.546   3.755  19.489  0.00  0.00    +0.000 HD
ATOM     14  H   UNL     1      48.251   5.153  18.765  0.00  0.00    +0.000 HD
ENDBRANCH   2  11
ENDBRANCH   1   6
BRANCH   1  15
ATOM     15  C   UNL     1      46.473   7.522  12.143  0.00  0.00    +0.000 C 
BRANCH  15  16
ATOM     16  C   UNL     1      45.459   6.478  11.729  0.00  0.00    +0.000 A 
ATOM     17  C   UNL     1      44.307   6.247  12.493  0.00  0.00    +0.000 A 
ATOM     18  C   UNL     1      43.359   5.330  12.047  0.00  0.00    +0.000 A 
ATOM     19  F   UNL     1      42.262   5.108  12.789  0.00  0.00    +0.000 F 
ATOM     20  C   UNL     1      43.515   4.664  10.838  0.00  0.00    +0.000 A 
ATOM     21  C   UNL     1      44.639   4.911  10.049  0.00  0.00    +0.000 A 
ATOM     22  C   UNL     1      45.624   5.789  10.512  0.00  0.00    +0.000 A 
BRANCH  21  23
ATOM     23  O   UNL     1      44.695   4.252   8.844  0.00  0.00    +0.000 OA
BRANCH  23  24
ATOM     24  C   UNL     1      45.918   3.556   8.494  0.00  0.00    +0.000 C 
ATOM     25  C   UNL     1      46.260   3.450   6.987  0.00  0.00    +0.000 C 
ATOM     26  C   UNL     1      46.569   1.959   7.177  0.00  0.00    +0.000 C 
ATOM     27  C   UNL     1      45.837   2.008   8.526  0.00  0.00    +0.000 C 
ENDBRANCH  23  24
ENDBRANCH  21  23
ENDBRANCH  15  16
ENDBRANCH   1  15
TORSDOF 6
ENDMDL
MODEL 9
REMARK VINA RESULT:    -6.813      4.260      8.167
REMARK INTER + INTRA:         -10.101
REMARK INTER:                  -9.653
REMARK INTRA:                  -0.448
REMARK UNBOUND:                -0.899
REMARK  Name = 
REMARK  6 active torsions:
REMARK  status: ('A' for Active; 'I' for Inactive)
REMARK    1  A    between atoms: C_2  and  C_4
REMARK    2  A    between atoms: N_8  and  C_9
REMARK    3  A    between atoms: C_9  and  C_10
REMARK    4  A    between atoms: C_10  and  C_11
REMARK    5  A    between atoms: C_16  and  O_17
REMARK    6  A    between atoms: O_17  and  C_18
REMARK                            x       y       z     vdW  Elec       q    Type
REMARK                         _______ _______ _______ _____ _____    ______ ____
ROOT
ATOM      1  C   UNL     1      46.833   4.407  15.212  0.00  0.00    +0.000 C 
ENDROOT
BRANCH   1   6
ATOM      2  C   UNL     1      51.008   2.919  17.642  0.00  0.00    +0.000 A 
ATOM      3  C   UNL     1      50.314   4.121  17.697  0.00  0.00    +0.000 A 
ATOM      4  C   UNL     1      49.081   4.218  17.059  0.00  0.00    +0.000 A 
ATOM      5  C   UNL     1      48.568   3.129  16.357  0.00  0.00    +0.000 A 
ATOM      6  N   UNL     1      47.305   3.150  15.774  0.00  0.00    +0.000 N 
ATOM      7  N   UNL     1      49.251   1.971  16.266  0.00  0.00    +0.000 NA
ATOM      8  C   UNL     1      50.455   1.887  16.900  0.00  0.00    +0.000 A 
ATOM      9  H   UNL     1      47.217   2.318  15.194  0.00  0.00    +0.000 HD
BRANCH   2  11
ATOM     10  N   UNL     1      52.792   1.452  18.372  0.00  0.00    +0.000 N 
ATOM     11  C   UNL     1      52.295   2.726  18.340  0.00  0.00    +0.000 C 
ATOM     12  O   UNL     1      52.901   3.665  18.837  0.00  0.00    +0.000 OA
ATOM     13  H   UNL     1      53.715   1.333  18.772  0.00  0.00    +0.000 HD
ATOM     14  H   UNL     1      52.455   0.722  17.764  0.00  0.00    +0.000 HD
ENDBRANCH   2  11
ENDBRANCH   1   6
BRANCH   1  15
ATOM     15  C   UNL     1      47.281   4.581  13.757  0.00  0.00    +0.000 C 
BRANCH  15  16
ATOM     16  C   UNL     1      46.080   4.787  12.860  0.00  0.00    +0.000 A 
ATOM     17  C   UNL     1      45.553   6.066  12.638  0.00  0.00    +0.000 A 
ATOM     18  C   UNL     1      44.491   6.229  11.753  0.00  0.00    +0.000 A 
ATOM     19  F   UNL     1      43.987   7.457  11.553  0.00  0.00    +0.000 F 
ATOM     20  C   UNL     1      43.967   5.151  11.053  0.00  0.00    +0.000 A 
ATOM     21  C   UNL     1      44.505   3.876  11.235  0.00  0.00    +0.000 A 
ATOM     22  C   UNL     1      45.535   3.691  12.163  0.00  0.00    +0.000 A 
BRANCH  21  23
ATOM     23  O   UNL     1      43.965   2.870  10.468  0.00  0.00    +0.000 OA
BRANCH  23  24
ATOM     24  C   UNL     1      44.373   2.767   9.080  0.00  0.00    +0.000 C 
ATOM     25  C   UNL     1      45.473   1.728   8.747  0.00  0.00    +0.000 C 
ATOM     26  C   UNL     1      46.199   2.789   7.910  0.00  0.00    +0.000 C 
ATOM     27  C   UNL     1      45.344   3.869   8.587  0.00  0.00    +0.000 C 
ENDBRANCH  23  24
ENDBRANCH  21  23
ENDBRANCH  15  16
ENDBRANCH   1  15
TORSDOF 6
ENDMDL
