MODEL 1
REMARK VINA RESULT:    -8.591      0.000      0.000
REMARK INTER + INTRA:         -11.988
REMARK INTER:                 -11.103
REMARK INTRA:                  -0.885
REMARK UNBOUND:                -0.885
REMARK  Name = 
REMARK  5 active torsions:
REMARK  status: ('A' for Active; 'I' for Inactive)
REMARK    1  A    between atoms: C_2  and  C_18
REMARK    2  A    between atoms: N_3  and  C_4
REMARK    3  A    between atoms: C_4  and  C_5
REMARK    4  A    between atoms: C_8  and  C_9
REMARK    5  A    between atoms: C_9  and  C_10
REMARK                            x       y       z     vdW  Elec       q    Type
REMARK                         _______ _______ _______ _____ _____    ______ ____
ROOT
ATOM      1  O   UNL     1      48.617   7.150  12.697  0.00  0.00    +0.000 OA
ATOM      2  C   UNL     1      47.900   6.883  13.657  0.00  0.00    +0.000 C 
ATOM      3  N   UNL     1      46.534   6.978  13.607  0.00  0.00    +0.000 N 
ATOM      4  H   UNL     1      46.000   6.924  14.467  0.00  0.00    +0.000 HD
ENDROOT
BRANCH   2   5
ATOM      5  C   UNL     1      48.467   6.391  14.917  0.00  0.00    +0.000 A 
ATOM      6  C   UNL     1      49.514   7.076  15.518  0.00  0.00    +0.000 A 
ATOM      7  S   UNL     1      50.033   6.377  16.985  0.00  0.00    +0.000 S 
ATOM      8  C   UNL     1      48.852   5.157  16.885  0.00  0.00    +0.000 A 
ATOM      9  N   UNL     1      48.717   4.228  17.872  0.00  0.00    +0.000 NA
ATOM     10  C   UNL     1      47.752   3.391  17.687  0.00  0.00    +0.000 A 
ATOM     11  N   UNL     1      46.921   3.385  16.597  0.00  0.00    +0.000 N 
ATOM     12  C   UNL     1      47.077   4.243  15.537  0.00  0.00    +0.000 A 
ATOM     13  O   UNL     1      46.422   4.107  14.508  0.00  0.00    +0.000 OA
ATOM     14  C   UNL     1      48.103   5.254  15.727  0.00  0.00    +0.000 A 
ATOM     15  H   UNL     1      46.213   2.673  16.491  0.00  0.00    +0.000 HD
ENDBRANCH   2   5
BRANCH   3  16
ATOM     16  C   UNL     1      45.835   7.494  12.458  0.00  0.00    +0.000 C 
BRANCH  16  17
ATOM     17  C   UNL     1      45.544   6.412  11.452  0.00  0.00    +0.000 A 
ATOM     18  C   UNL     1      44.547   5.462  11.711  0.00  0.00    +0.000 A 
ATOM     19  C   UNL     1      44.238   4.480  10.768  0.00  0.00    +0.000 A 
ATOM     20  C   UNL     1      44.929   4.418   9.550  0.00  0.00    +0.000 A 
ATOM     21  C   UNL     1      45.948   5.349   9.305  0.00  0.00    +0.000 A 
ATOM     22  C   UNL     1      46.261   6.329  10.252  0.00  0.00    +0.000 A 
BRANCH  20  23
ATOM     23  C   UNL     1      44.552   3.393   8.503  0.00  0.00    +0.000 C 
BRANCH  23  24
ATOM     24  C   UNL     1      45.749   2.736   7.858  0.00  0.00    +0.000 A 
ATOM     25  C   UNL     1      46.447   3.371   6.826  0.00  0.00    +0.000 A 
ATOM     26  C   UNL     1      47.498   2.700   6.221  0.00  0.00    +0.000 A 
ATOM     27  N   UNL     1      47.903   1.462   6.573  0.00  0.00    +0.000 NA
ATOM     28  C   UNL     1      47.223   0.867   7.576  0.00  0.00    +0.000 A 
ATOM     29  C   UNL     1      46.157   1.455   8.241  0.00  0.00    +0.000 A 
ENDBRANCH  23  24
ENDBRANCH  20  23
ENDBRANCH  16  17
ENDBRANCH   3  16
TORSDOF 5
ENDMDL
MODEL 2
REMARK VINA RESULT:    -8.217      1.735      2.501
REMARK INTER + INTRA:         -11.504
REMARK INTER:                 -10.701
REMARK INTRA:                  -0.803
REMARK UNBOUND:                -0.885
REMARK  Name = 
REMARK  5 active torsions:
REMARK  status: ('A' for Active; 'I' for Inactive)
REMARK    1  A    between atoms: C_2  and  C_18
REMARK    2  A    between atoms: N_3  and  C_4
REMARK    3  A    between atoms: C_4  and  C_5
REMARK    4  A    between atoms: C_8  and  C_9
REMARK    5  A    between atoms: C_9  and  C_10
REMARK                            x       y       z     vdW  Elec       q    Type
REMARK                         _______ _______ _______ _____ _____    ______ ____
ROOT
ATOM      1  O   UNL     1      47.230   4.265  13.998  0.00  0.00    +0.000 OA
ATOM      2  C   UNL     1      47.156   5.487  13.907  0.00  0.00    +0.000 C 
ATOM      3  N   UNL     1      45.992   6.136  13.589  0.00  0.00    +0.000 N 
ATOM      4  H   UNL     1      46.020   7.120  13.350  0.00  0.00    +0.000 HD
ENDROOT
BRANCH   2   5
ATOM      5  C   UNL     1      48.314   6.343  14.188  0.00  0.00    +0.000 A 
ATOM      6  C   UNL     1      48.842   7.144  13.184  0.00  0.00    +0.000 A 
ATOM      7  S   UNL     1      50.169   8.087  13.691  0.00  0.00    +0.000 S 
ATOM      8  C   UNL     1      50.061   7.485  15.278  0.00  0.00    +0.000 A 
ATOM      9  N   UNL     1      50.898   7.929  16.257  0.00  0.00    +0.000 NA
ATOM     10  C   UNL     1      50.674   7.421  17.421  0.00  0.00    +0.000 A 
ATOM     11  N   UNL     1      49.700   6.495  17.696  0.00  0.00    +0.000 N 
ATOM     12  C   UNL     1      48.894   5.952  16.726  0.00  0.00    +0.000 A 
ATOM     13  O   UNL     1      48.147   5.012  16.975  0.00  0.00    +0.000 OA
ATOM     14  C   UNL     1      49.056   6.544  15.408  0.00  0.00    +0.000 A 
ATOM     15  H   UNL     1      49.607   6.103  18.621  0.00  0.00    +0.000 HD
ENDBRANCH   2   5
BRANCH   3  16
ATOM     16  C   UNL     1      44.786   5.432  13.237  0.00  0.00    +0.000 C 
BRANCH  16  17
ATOM     17  C   UNL     1      44.812   4.965  11.805  0.00  0.00    +0.000 A 
ATOM     18  C   UNL     1      44.077   3.835  11.422  0.00  0.00    +0.000 A 
ATOM     19  C   UNL     1      44.058   3.416  10.091  0.00  0.00    +0.000 A 
ATOM     20  C   UNL     1      44.785   4.111   9.114  0.00  0.00    +0.000 A 
ATOM     21  C   UNL     1      45.545   5.222   9.504  0.00  0.00    +0.000 A 
ATOM     22  C   UNL     1      45.568   5.638  10.839  0.00  0.00    +0.000 A 
BRANCH  20  23
ATOM     23  C   UNL     1      44.715   3.694   7.662  0.00  0.00    +0.000 C 
BRANCH  23  24
ATOM     24  C   UNL     1      45.896   2.859   7.227  0.00  0.00    +0.000 A 
ATOM     25  C   UNL     1      46.261   1.710   7.933  0.00  0.00    +0.000 A 
ATOM     26  C   UNL     1      47.391   1.013   7.535  0.00  0.00    +0.000 A 
ATOM     27  N   UNL     1      48.168   1.372   6.492  0.00  0.00    +0.000 NA
ATOM     28  C   UNL     1      47.797   2.480   5.818  0.00  0.00    +0.000 A 
ATOM     29  C   UNL     1      46.685   3.245   6.139  0.00  0.00    +0.000 A 
ENDBRANCH  23  24
ENDBRANCH  20  23
ENDBRANCH  16  17
ENDBRANCH   3  16
TORSDOF 5
ENDMDL
MODEL 3
REMARK VINA RESULT:    -8.173      1.498      2.266
REMARK INTER + INTRA:         -11.447
REMARK INTER:                 -10.674
REMARK INTRA:                  -0.773
REMARK UNBOUND:                -0.885
REMARK  Name = 
REMARK  5 active torsions:
REMARK  status: ('A' for Active; 'I' for Inactive)
REMARK    1  A    between atoms: C_2  and  C_18
REMARK    2  A    between atoms: N_3  and  C_4
REMARK    3  A    between atoms: C_4  and  C_5
REMARK    4  A    between atoms: C_8  and  C_9
REMARK    5  A    between atoms: C_9  and  C_10
REMARK                            x       y       z     vdW  Elec       q    Type
REMARK                         _______ _______ _______ _____ _____    ______ ____
ROOT
ATOM      1  O   UNL     1      48.673   6.155  13.757  0.00  0.00    +0.000 OA
ATOM      2  C   UNL     1      47.696   5.798  14.410  0.00  0.00    +0.000 C 
ATOM      3  N   UNL     1      46.410   6.044  14.009  0.00  0.00    +0.000 N 
ATOM      4  H   UNL     1      45.647   5.894  14.660  0.00  0.00    +0.000 HD
ENDROOT
BRANCH   2   5
ATOM      5  C   UNL     1      47.849   5.032  15.652  0.00  0.00    +0.000 A 
ATOM      6  C   UNL     1      47.461   3.699  15.693  0.00  0.00    +0.000 A 
ATOM      7  S   UNL     1      47.730   2.957  17.205  0.00  0.00    +0.000 S 
ATOM      8  C   UNL     1      48.407   4.380  17.844  0.00  0.00    +0.000 A 
ATOM      9  N   UNL     1      48.896   4.416  19.115  0.00  0.00    +0.000 NA
ATOM     10  C   UNL     1      49.421   5.545  19.452  0.00  0.00    +0.000 A 
ATOM     11  N   UNL     1      49.487   6.650  18.643  0.00  0.00    +0.000 N 
ATOM     12  C   UNL     1      48.926   6.689  17.390  0.00  0.00    +0.000 A 
ATOM     13  O   UNL     1      48.859   7.738  16.757  0.00  0.00    +0.000 OA
ATOM     14  C   UNL     1      48.386   5.419  16.932  0.00  0.00    +0.000 A 
ATOM     15  H   UNL     1      49.870   7.519  18.984  0.00  0.00    +0.000 HD
ENDBRANCH   2   5
BRANCH   3  16
ATOM     16  C   UNL     1      46.100   6.827  12.841  0.00  0.00    +0.000 C 
BRANCH  16  17
ATOM     17  C   UNL     1      45.660   5.961  11.690  0.00  0.00    +0.000 A 
ATOM     18  C   UNL     1      46.170   6.187  10.405  0.00  0.00    +0.000 A 
ATOM     19  C   UNL     1      45.804   5.364   9.339  0.00  0.00    +0.000 A 
ATOM     20  C   UNL     1      44.907   4.303   9.532  0.00  0.00    +0.000 A 
ATOM     21  C   UNL     1      44.372   4.098  10.810  0.00  0.00    +0.000 A 
ATOM     22  C   UNL     1      44.736   4.926  11.877  0.00  0.00    +0.000 A 
BRANCH  20  23
ATOM     23  C   UNL     1      44.559   3.374   8.390  0.00  0.00    +0.000 C 
BRANCH  23  24
ATOM     24  C   UNL     1      45.766   2.691   7.793  0.00  0.00    +0.000 A 
ATOM     25  C   UNL     1      46.514   3.308   6.786  0.00  0.00    +0.000 A 
ATOM     26  C   UNL     1      47.574   2.614   6.223  0.00  0.00    +0.000 A 
ATOM     27  N   UNL     1      47.941   1.370   6.593  0.00  0.00    +0.000 NA
ATOM     28  C   UNL     1      47.211   0.792   7.570  0.00  0.00    +0.000 A 
ATOM     29  C   UNL     1      46.133   1.403   8.193  0.00  0.00    +0.000 A 
ENDBRANCH  23  24
ENDBRANCH  20  23
ENDBRANCH  16  17
ENDBRANCH   3  16
TORSDOF 5
ENDMDL
MODEL 4
REMARK VINA RESULT:    -8.123      1.985      3.424
REMARK INTER + INTRA:         -11.383
REMARK INTER:                 -10.647
REMARK INTRA:                  -0.736
REMARK UNBOUND:                -0.885
REMARK  Name = 
REMARK  5 active torsions:
REMARK  status: ('A' for Active; 'I' for Inactive)
REMARK    1  A    between atoms: C_2  and  C_18
REMARK    2  A    between atoms: N_3  and  C_4
REMARK    3  A    between atoms: C_4  and  C_5
REMARK    4  A    between atoms: C_8  and  C_9
REMARK    5  A    between atoms: C_9  and  C_10
REMARK                            x       y       z     vdW  Elec       q    Type
REMARK                         _______ _______ _______ _____ _____    ______ ____
ROOT
ATOM      1  O   UNL     1      47.784   4.820  14.965  0.00  0.00    +0.000 OA
ATOM      2  C   UNL     1      47.754   5.907  14.395  0.00  0.00    +0.000 C 
ATOM      3  N   UNL     1      46.650   6.355  13.719  0.00  0.00    +0.000 N 
ATOM      4  H   UNL     1      46.730   7.167  13.118  0.00  0.00    +0.000 HD
ENDROOT
BRANCH   2   5
ATOM      5  C   UNL     1      48.896   6.826  14.447  0.00  0.00    +0.000 A 
ATOM      6  C   UNL     1      49.527   7.076  15.658  0.00  0.00    +0.000 A 
ATOM      7  S   UNL     1      50.846   8.149  15.530  0.00  0.00    +0.000 S 
ATOM      8  C   UNL     1      50.641   8.287  13.848  0.00  0.00    +0.000 A 
ATOM      9  N   UNL     1      51.492   9.041  13.096  0.00  0.00    +0.000 NA
ATOM     10  C   UNL     1      51.245   9.019  11.830  0.00  0.00    +0.000 A 
ATOM     11  N   UNL     1      50.216   8.328  11.246  0.00  0.00    +0.000 N 
ATOM     12  C   UNL     1      49.281   7.631  11.970  0.00  0.00    +0.000 A 
ATOM     13  O   UNL     1      48.283   7.160  11.434  0.00  0.00    +0.000 OA
ATOM     14  C   UNL     1      49.554   7.562  13.396  0.00  0.00    +0.000 A 
ATOM     15  H   UNL     1      50.050   8.390  10.252  0.00  0.00    +0.000 HD
ENDBRANCH   2   5
BRANCH   3  16
ATOM     16  C   UNL     1      45.472   5.547  13.537  0.00  0.00    +0.000 C 
BRANCH  16  17
ATOM     17  C   UNL     1      45.342   5.063  12.117  0.00  0.00    +0.000 A 
ATOM     18  C   UNL     1      44.858   3.775  11.854  0.00  0.00    +0.000 A 
ATOM     19  C   UNL     1      44.692   3.331  10.541  0.00  0.00    +0.000 A 
ATOM     20  C   UNL     1      45.020   4.161   9.460  0.00  0.00    +0.000 A 
ATOM     21  C   UNL     1      45.535   5.438   9.724  0.00  0.00    +0.000 A 
ATOM     22  C   UNL     1      45.705   5.880  11.040  0.00  0.00    +0.000 A 
BRANCH  20  23
ATOM     23  C   UNL     1      44.782   3.703   8.039  0.00  0.00    +0.000 C 
BRANCH  23  24
ATOM     24  C   UNL     1      45.928   2.896   7.477  0.00  0.00    +0.000 A 
ATOM     25  C   UNL     1      46.647   3.349   6.366  0.00  0.00    +0.000 A 
ATOM     26  C   UNL     1      47.648   2.543   5.846  0.00  0.00    +0.000 A 
ATOM     27  N   UNL     1      47.984   1.338   6.353  0.00  0.00    +0.000 NA
ATOM     28  C   UNL     1      47.284   0.920   7.428  0.00  0.00    +0.000 A 
ATOM     29  C   UNL     1      46.265   1.653   8.019  0.00  0.00    +0.000 A 
ENDBRANCH  23  24
ENDBRANCH  20  23
ENDBRANCH  16  17
ENDBRANCH   3  16
TORSDOF 5
ENDMDL
MODEL 5
REMARK VINA RESULT:    -7.840      2.642      3.856
REMARK INTER + INTRA:         -11.017
REMARK INTER:                 -10.173
REMARK INTRA:                  -0.844
REMARK UNBOUND:                -0.885
REMARK  Name = 
REMARK  5 active torsions:
REMARK  status: ('A' for Active; 'I' for Inactive)
REMARK    1  A    between atoms: C_2  and  C_18
REMARK    2  A    between atoms: N_3  and  C_4
REMARK    3  A    between atoms: C_4  and  C_5
REMARK    4  A    between atoms: C_8  and  C_9
REMARK    5  A    between atoms: C_9  and  C_10
REMARK                            x       y       z     vdW  Elec       q    Type
REMARK                         _______ _______ _______ _____ _____    ______ ____
ROOT
ATOM      1  O   UNL     1      48.728   6.155  13.624  0.00  0.00    +0.000 OA
ATOM      2  C   UNL     1      47.876   7.035  13.539  0.00  0.00    +0.000 C 
ATOM      3  N   UNL     1      46.533   6.766  13.554  0.00  0.00    +0.000 N 
ATOM      4  H   UNL     1      45.876   7.496  13.302  0.00  0.00    +0.000 HD
ENDROOT
BRANCH   2   5
ATOM      5  C   UNL     1      48.249   8.452  13.466  0.00  0.00    +0.000 A 
ATOM      6  C   UNL     1      48.221   9.112  12.245  0.00  0.00    +0.000 A 
ATOM      7  S   UNL     1      48.662  10.756  12.349  0.00  0.00    +0.000 S 
ATOM      8  C   UNL     1      48.871  10.650  14.033  0.00  0.00    +0.000 A 
ATOM      9  N   UNL     1      49.211  11.746  14.769  0.00  0.00    +0.000 NA
ATOM     10  C   UNL     1      49.290  11.530  16.039  0.00  0.00    +0.000 A 
ATOM     11  N   UNL     1      49.078  10.317  16.641  0.00  0.00    +0.000 N 
ATOM     12  C   UNL     1      48.824   9.169  15.933  0.00  0.00    +0.000 A 
ATOM     13  O   UNL     1      48.801   8.074  16.486  0.00  0.00    +0.000 OA
ATOM     14  C   UNL     1      48.651   9.369  14.504  0.00  0.00    +0.000 A 
ATOM     15  H   UNL     1      49.202  10.206  17.637  0.00  0.00    +0.000 HD
ENDBRANCH   2   5
BRANCH   3  16
ATOM     16  C   UNL     1      46.012   5.424  13.570  0.00  0.00    +0.000 C 
BRANCH  16  17
ATOM     17  C   UNL     1      45.633   4.957  12.189  0.00  0.00    +0.000 A 
ATOM     18  C   UNL     1      45.856   5.786  11.082  0.00  0.00    +0.000 A 
ATOM     19  C   UNL     1      45.549   5.349   9.792  0.00  0.00    +0.000 A 
ATOM     20  C   UNL     1      44.998   4.077   9.583  0.00  0.00    +0.000 A 
ATOM     21  C   UNL     1      44.745   3.261  10.693  0.00  0.00    +0.000 A 
ATOM     22  C   UNL     1      45.048   3.702  11.986  0.00  0.00    +0.000 A 
BRANCH  20  23
ATOM     23  C   UNL     1      44.723   3.580   8.181  0.00  0.00    +0.000 C 
BRANCH  23  24
ATOM     24  C   UNL     1      45.894   2.845   7.572  0.00  0.00    +0.000 A 
ATOM     25  C   UNL     1      46.646   3.420   6.544  0.00  0.00    +0.000 A 
ATOM     26  C   UNL     1      47.670   2.680   5.973  0.00  0.00    +0.000 A 
ATOM     27  N   UNL     1      47.998   1.428   6.355  0.00  0.00    +0.000 NA
ATOM     28  C   UNL     1      47.265   0.891   7.353  0.00  0.00    +0.000 A 
ATOM     29  C   UNL     1      46.221   1.550   7.986  0.00  0.00    +0.000 A 
ENDBRANCH  23  24
ENDBRANCH  20  23
ENDBRANCH  16  17
ENDBRANCH   3  16
TORSDOF 5
ENDMDL
MODEL 6
REMARK VINA RESULT:    -7.351      2.540      3.445
REMARK INTER + INTRA:         -10.384
REMARK INTER:                  -9.276
REMARK INTRA:                  -1.109
REMARK UNBOUND:                -0.885
REMARK  Name = 
REMARK  5 active torsions:
REMARK  status: ('A' for Active; 'I' for Inactive)
REMARK    1  A    between atoms: C_2  and  C_18
REMARK    2  A    between atoms: N_3  and  C_4
REMARK    3  A    between atoms: C_4  and  C_5
REMARK    4  A    between atoms: C_8  and  C_9
REMARK    5  A    between atoms: C_9  and  C_10
REMARK                            x       y       z     vdW  Elec       q    Type
REMARK                         _______ _______ _______ _____ _____    ______ ____
ROOT
ATOM      1  O   UNL     1      50.140   6.393  15.491  0.00  0.00    +0.000 OA
ATOM      2  C   UNL     1      49.024   6.518  15.986  0.00  0.00    +0.000 C 
ATOM      3  N   UNL     1      47.937   6.931  15.261  0.00  0.00    +0.000 N 
ATOM      4  H   UNL     1      47.085   7.191  15.745  0.00  0.00    +0.000 HD
ENDROOT
BRANCH   2   5
ATOM      5  C   UNL     1      48.770   6.178  17.390  0.00  0.00    +0.000 A 
ATOM      6  C   UNL     1      49.021   4.891  17.846  0.00  0.00    +0.000 A 
ATOM      7  S   UNL     1      48.693   4.680  19.506  0.00  0.00    +0.000 S 
ATOM      8  C   UNL     1      48.240   6.309  19.680  0.00  0.00    +0.000 A 
ATOM      9  N   UNL     1      47.880   6.813  20.894  0.00  0.00    +0.000 NA
ATOM     10  C   UNL     1      47.605   8.073  20.887  0.00  0.00    +0.000 A 
ATOM     11  N   UNL     1      47.638   8.875  19.776  0.00  0.00    +0.000 N 
ATOM     12  C   UNL     1      47.905   8.394  18.518  0.00  0.00    +0.000 A 
ATOM     13  O   UNL     1      47.768   9.101  17.525  0.00  0.00    +0.000 OA
ATOM     14  C   UNL     1      48.294   6.994  18.480  0.00  0.00    +0.000 A 
ATOM     15  H   UNL     1      47.366   9.846  19.831  0.00  0.00    +0.000 HD
ENDBRANCH   2   5
BRANCH   3  16
ATOM     16  C   UNL     1      48.037   7.348  13.886  0.00  0.00    +0.000 C 
BRANCH  16  17
ATOM     17  C   UNL     1      47.027   6.645  13.017  0.00  0.00    +0.000 A 
ATOM     18  C   UNL     1      46.409   7.331  11.963  0.00  0.00    +0.000 A 
ATOM     19  C   UNL     1      45.504   6.679  11.123  0.00  0.00    +0.000 A 
ATOM     20  C   UNL     1      45.187   5.329  11.328  0.00  0.00    +0.000 A 
ATOM     21  C   UNL     1      45.781   4.652  12.401  0.00  0.00    +0.000 A 
ATOM     22  C   UNL     1      46.684   5.307  13.245  0.00  0.00    +0.000 A 
BRANCH  20  23
ATOM     23  C   UNL     1      44.254   4.607  10.381  0.00  0.00    +0.000 C 
BRANCH  23  24
ATOM     24  C   UNL     1      44.982   3.775   9.352  0.00  0.00    +0.000 A 
ATOM     25  C   UNL     1      45.016   2.381   9.450  0.00  0.00    +0.000 A 
ATOM     26  C   UNL     1      45.751   1.664   8.519  0.00  0.00    +0.000 A 
ATOM     27  N   UNL     1      46.440   2.231   7.506  0.00  0.00    +0.000 NA
ATOM     28  C   UNL     1      46.391   3.576   7.423  0.00  0.00    +0.000 A 
ATOM     29  C   UNL     1      45.684   4.380   8.306  0.00  0.00    +0.000 A 
ENDBRANCH  23  24
ENDBRANCH  20  23
ENDBRANCH  16  17
ENDBRANCH   3  16
TORSDOF 5
ENDMDL
MODEL 7
REMARK VINA RESULT:    -7.249      3.023      4.898
REMARK INTER + INTRA:         -10.253
REMARK INTER:                  -9.795
REMARK INTRA:                  -0.457
REMARK UNBOUND:                -0.885
REMARK  Name = 
REMARK  5 active torsions:
REMARK  status: ('A' for Active; 'I' for Inactive)
REMARK    1  A    between atoms: C_2  and  C_18
REMARK    2  A    between atoms: N_3  and  C_4
REMARK    3  A    between atoms: C_4  and  C_5
REMARK    4  A    between atoms: C_8  and  C_9
REMARK    5  A    between atoms: C_9  and  C_10
REMARK                            x       y       z     vdW  Elec       q    Type
REMARK                         _______ _______ _______ _____ _____    ______ ____
ROOT
ATOM      1  O   UNL     1      47.791   7.226  14.057  0.00  0.00    +0.000 OA
ATOM      2  C   UNL     1      47.101   7.946  13.341  0.00  0.00    +0.000 C 
ATOM      3  N   UNL     1      45.909   7.533  12.807  0.00  0.00    +0.000 N 
ATOM      4  H   UNL     1      45.468   8.090  12.084  0.00  0.00    +0.000 HD
ENDROOT
BRANCH   2   5
ATOM      5  C   UNL     1      47.492   9.330  13.051  0.00  0.00    +0.000 A 
ATOM      6  C   UNL     1      48.704   9.819  13.521  0.00  0.00    +0.000 A 
ATOM      7  S   UNL     1      49.007  11.436  13.074  0.00  0.00    +0.000 S 
ATOM      8  C   UNL     1      47.548  11.526  12.206  0.00  0.00    +0.000 A 
ATOM      9  N   UNL     1      47.205  12.655  11.523  0.00  0.00    +0.000 NA
ATOM     10  C   UNL     1      46.094  12.567  10.873  0.00  0.00    +0.000 A 
ATOM     11  N   UNL     1      45.283  11.462  10.856  0.00  0.00    +0.000 N 
ATOM     12  C   UNL     1      45.541  10.338  11.601  0.00  0.00    +0.000 A 
ATOM     13  O   UNL     1      44.716   9.433  11.692  0.00  0.00    +0.000 OA
ATOM     14  C   UNL     1      46.818  10.355  12.294  0.00  0.00    +0.000 A 
ATOM     15  H   UNL     1      44.402  11.475  10.363  0.00  0.00    +0.000 HD
ENDBRANCH   2   5
BRANCH   3  16
ATOM     16  C   UNL     1      45.417   6.188  12.960  0.00  0.00    +0.000 C 
BRANCH  16  17
ATOM     17  C   UNL     1      45.163   5.534  11.627  0.00  0.00    +0.000 A 
ATOM     18  C   UNL     1      45.928   5.895  10.510  0.00  0.00    +0.000 A 
ATOM     19  C   UNL     1      45.732   5.266   9.280  0.00  0.00    +0.000 A 
ATOM     20  C   UNL     1      44.757   4.269   9.136  0.00  0.00    +0.000 A 
ATOM     21  C   UNL     1      43.970   3.931  10.245  0.00  0.00    +0.000 A 
ATOM     22  C   UNL     1      44.164   4.565  11.477  0.00  0.00    +0.000 A 
BRANCH  20  23
ATOM     23  C   UNL     1      44.588   3.544   7.819  0.00  0.00    +0.000 C 
BRANCH  23  24
ATOM     24  C   UNL     1      45.828   2.798   7.389  0.00  0.00    +0.000 A 
ATOM     25  C   UNL     1      46.602   3.250   6.317  0.00  0.00    +0.000 A 
ATOM     26  C   UNL     1      47.695   2.496   5.918  0.00  0.00    +0.000 A 
ATOM     27  N   UNL     1      48.071   1.343   6.510  0.00  0.00    +0.000 NA
ATOM     28  C   UNL     1      47.316   0.926   7.547  0.00  0.00    +0.000 A 
ATOM     29  C   UNL     1      46.205   1.608   8.019  0.00  0.00    +0.000 A 
ENDBRANCH  23  24
ENDBRANCH  20  23
ENDBRANCH  16  17
ENDBRANCH   3  16
TORSDOF 5
ENDMDL
MODEL 8
REMARK VINA RESULT:    -7.152      1.491      2.268
REMARK INTER + INTRA:         -10.127
REMARK INTER:                  -9.156
REMARK INTRA:                  -0.971
REMARK UNBOUND:                -0.885
REMARK  Name = 
REMARK  5 active torsions:
REMARK  status: ('A' for Active; 'I' for Inactive)
REMARK    1  A    between atoms: C_2  and  C_18
REMARK    2  A    between atoms: N_3  and  C_4
REMARK    3  A    between atoms: C_4  and  C_5
REMARK    4  A    between atoms: C_8  and  C_9
REMARK    5  A    between atoms: C_9  and  C_10
REMARK                            x       y       z     vdW  Elec       q    Type
REMARK                         _______ _______ _______ _____ _____    ______ ____
ROOT
ATOM      1  O   UNL     1      50.139   7.199  14.222  0.00  0.00    +0.000 OA
ATOM      2  C   UNL     1      49.330   7.224  15.145  0.00  0.00    +0.000 C 
ATOM      3  N   UNL     1      48.075   7.759  15.013  0.00  0.00    +0.000 N 
ATOM      4  H   UNL     1      47.513   7.920  15.841  0.00  0.00    +0.000 HD
ENDROOT
BRANCH   2   5
ATOM      5  C   UNL     1      49.643   6.629  16.448  0.00  0.00    +0.000 A 
ATOM      6  C   UNL     1      50.572   7.238  17.281  0.00  0.00    +0.000 A 
ATOM      7  S   UNL     1      50.796   6.425  18.763  0.00  0.00    +0.000 S 
ATOM      8  C   UNL     1      49.634   5.252  18.358  0.00  0.00    +0.000 A 
ATOM      9  N   UNL     1      49.300   4.262  19.233  0.00  0.00    +0.000 NA
ATOM     10  C   UNL     1      48.372   3.471  18.813  0.00  0.00    +0.000 A 
ATOM     11  N   UNL     1      47.757   3.565  17.591  0.00  0.00    +0.000 N 
ATOM     12  C   UNL     1      48.124   4.488  16.643  0.00  0.00    +0.000 A 
ATOM     13  O   UNL     1      47.669   4.443  15.504  0.00  0.00    +0.000 OA
ATOM     14  C   UNL     1      49.115   5.452  17.092  0.00  0.00    +0.000 A 
ATOM     15  H   UNL     1      47.069   2.884  17.304  0.00  0.00    +0.000 HD
ENDBRANCH   2   5
BRANCH   3  16
ATOM     16  C   UNL     1      47.640   8.424  13.812  0.00  0.00    +0.000 C 
BRANCH  16  17
ATOM     17  C   UNL     1      46.727   7.550  12.991  0.00  0.00    +0.000 A 
ATOM     18  C   UNL     1      47.068   6.213  12.747  0.00  0.00    +0.000 A 
ATOM     19  C   UNL     1      46.211   5.381  12.025  0.00  0.00    +0.000 A 
ATOM     20  C   UNL     1      44.999   5.872  11.519  0.00  0.00    +0.000 A 
ATOM     21  C   UNL     1      44.674   7.217  11.736  0.00  0.00    +0.000 A 
ATOM     22  C   UNL     1      45.536   8.052  12.455  0.00  0.00    +0.000 A 
BRANCH  20  23
ATOM     23  C   UNL     1      44.043   4.954  10.790  0.00  0.00    +0.000 C 
BRANCH  23  24
ATOM     24  C   UNL     1      44.730   4.056   9.789  0.00  0.00    +0.000 A 
ATOM     25  C   UNL     1      45.500   4.594   8.753  0.00  0.00    +0.000 A 
ATOM     26  C   UNL     1      46.057   3.733   7.820  0.00  0.00    +0.000 A 
ATOM     27  N   UNL     1      45.909   2.392   7.850  0.00  0.00    +0.000 NA
ATOM     28  C   UNL     1      45.168   1.891   8.860  0.00  0.00    +0.000 A 
ATOM     29  C   UNL     1      44.569   2.669   9.840  0.00  0.00    +0.000 A 
ENDBRANCH  23  24
ENDBRANCH  20  23
ENDBRANCH  16  17
ENDBRANCH   3  16
TORSDOF 5
ENDMDL
MODEL 9
REMARK VINA RESULT:    -6.962      4.004      9.554
REMARK INTER + INTRA:          -9.882
REMARK INTER:                  -8.940
REMARK INTRA:                  -0.942
REMARK UNBOUND:                -0.885
REMARK  Name = 
REMARK  5 active torsions:
REMARK  status: ('A' for Active; 'I' for Inactive)
REMARK    1  A    between atoms: C_2  and  C_18
REMARK    2  A    between atoms: N_3  and  C_4
REMARK    3  A    between atoms: C_4  and  C_5
REMARK    4  A    between atoms: C_8  and  C_9
REMARK    5  A    between atoms: C_9  and  C_10
REMARK                            x       y       z     vdW  Elec       q    Type
REMARK                         _______ _______ _______ _____ _____    ______ ____
ROOT
ATOM      1  O   UNL     1      47.347   3.254  14.011  0.00  0.00    +0.000 OA
ATOM      2  C   UNL     1      46.841   4.271  14.477  0.00  0.00    +0.000 C 
ATOM      3  N   UNL     1      46.818   4.534  15.821  0.00  0.00    +0.000 N 
ATOM      4  H   UNL     1      46.237   5.288  16.171  0.00  0.00    +0.000 HD
ENDROOT
BRANCH   2   5
ATOM      5  C   UNL     1      46.269   5.304  13.607  0.00  0.00    +0.000 A 
ATOM      6  C   UNL     1      47.009   6.438  13.301  0.00  0.00    +0.000 A 
ATOM      7  S   UNL     1      46.200   7.520  12.262  0.00  0.00    +0.000 S 
ATOM      8  C   UNL     1      44.847   6.495  12.157  0.00  0.00    +0.000 A 
ATOM      9  N   UNL     1      43.782   6.814  11.369  0.00  0.00    +0.000 NA
ATOM     10  C   UNL     1      42.848   5.925  11.350  0.00  0.00    +0.000 A 
ATOM     11  N   UNL     1      42.871   4.752  12.059  0.00  0.00    +0.000 N 
ATOM     12  C   UNL     1      43.878   4.430  12.935  0.00  0.00    +0.000 A 
ATOM     13  O   UNL     1      43.791   3.454  13.673  0.00  0.00    +0.000 OA
ATOM     14  C   UNL     1      44.992   5.364  12.940  0.00  0.00    +0.000 A 
ATOM     15  H   UNL     1      42.085   4.118  12.035  0.00  0.00    +0.000 HD
ENDBRANCH   2   5
BRANCH   3  16
ATOM     16  C   UNL     1      47.295   3.594  16.803  0.00  0.00    +0.000 C 
BRANCH  16  17
ATOM     17  C   UNL     1      48.764   3.778  17.082  0.00  0.00    +0.000 A 
ATOM     18  C   UNL     1      49.302   5.067  17.192  0.00  0.00    +0.000 A 
ATOM     19  C   UNL     1      50.652   5.252  17.493  0.00  0.00    +0.000 A 
ATOM     20  C   UNL     1      51.499   4.150  17.677  0.00  0.00    +0.000 A 
ATOM     21  C   UNL     1      50.967   2.861  17.535  0.00  0.00    +0.000 A 
ATOM     22  C   UNL     1      49.615   2.677  17.228  0.00  0.00    +0.000 A 
BRANCH  20  23
ATOM     23  C   UNL     1      52.947   4.350  18.064  0.00  0.00    +0.000 C 
BRANCH  23  24
ATOM     24  C   UNL     1      53.196   4.168  19.543  0.00  0.00    +0.000 A 
ATOM     25  C   UNL     1      52.776   5.131  20.465  0.00  0.00    +0.000 A 
ATOM     26  C   UNL     1      53.085   4.952  21.804  0.00  0.00    +0.000 A 
ATOM     27  N   UNL     1      53.766   3.891  22.284  0.00  0.00    +0.000 NA
ATOM     28  C   UNL     1      54.158   2.969  21.381  0.00  0.00    +0.000 A 
ATOM     29  C   UNL     1      53.899   3.059  20.021  0.00  0.00    +0.000 A 
ENDBRANCH  23  24
ENDBRANCH  20  23
ENDBRANCH  16  17
ENDBRANCH   3  16
TORSDOF 5
ENDMDL
