MODEL 1
REMARK VINA RESULT:    -8.595      0.000      0.000
REMARK INTER + INTRA:         -12.456
REMARK INTER:                 -11.610
REMARK INTRA:                  -0.846
REMARK UNBOUND:                -0.846
REMARK  Name = 
REMARK  6 active torsions:
REMARK  status: ('A' for Active; 'I' for Inactive)
REMARK    1  A    between atoms: C_2  and  C_4
REMARK    2  A    between atoms: C_8  and  C_9
REMARK    3  A    between atoms: C_9  and  C_10
REMARK    4  A    between atoms: C_12  and  C_13
REMARK    5  A    between atoms: C_13  and  N_14
REMARK    6  A    between atoms: C_15  and  C_17
REMARK                            x       y       z     vdW  Elec       q    Type
REMARK                         _______ _______ _______ _____ _____    ______ ____
ROOT
ATOM      1  C   UNL     1      45.722   5.481  11.179  0.00  0.00    +0.000 A 
ATOM      2  C   UNL     1      45.667   4.725  12.351  0.00  0.00    +0.000 A 
ATOM      3  C   UNL     1      46.389   5.145  13.477  0.00  0.00    +0.000 A 
ATOM      4  C   UNL     1      47.206   6.271  13.355  0.00  0.00    +0.000 A 
ATOM      5  C   UNL     1      47.235   6.941  12.143  0.00  0.00    +0.000 A 
ATOM      6  N   UNL     1      46.509   6.582  11.062  0.00  0.00    +0.000 NA
ENDROOT
BRANCH   1   7
ATOM      7  C   UNL     1      44.806   5.166  10.020  0.00  0.00    +0.000 C 
BRANCH   7  12
ATOM      8  C   UNL     1      46.365   2.715   7.740  0.00  0.00    +0.000 A 
ATOM      9  C   UNL     1      45.767   1.504   8.057  0.00  0.00    +0.000 A 
ATOM     10  C   UNL     1      44.781   1.499   9.036  0.00  0.00    +0.000 A 
ATOM     11  C   UNL     1      44.431   2.694   9.661  0.00  0.00    +0.000 A 
ATOM     12  C   UNL     1      45.082   3.874   9.293  0.00  0.00    +0.000 A 
ATOM     13  N   UNL     1      46.052   3.900   8.341  0.00  0.00    +0.000 NA
BRANCH   8  15
ATOM     14  N   UNL     1      47.156   3.541   5.601  0.00  0.00    +0.000 N 
ATOM     15  C   UNL     1      47.432   2.760   6.691  0.00  0.00    +0.000 C 
ATOM     16  O   UNL     1      48.488   2.148   6.791  0.00  0.00    +0.000 OA
ATOM     17  H   UNL     1      47.828   3.606   4.852  0.00  0.00    +0.000 HD
ATOM     18  H   UNL     1      46.277   4.043   5.554  0.00  0.00    +0.000 HD
ENDBRANCH   8  15
ENDBRANCH   7  12
ENDBRANCH   1   7
BRANCH   3  19
ATOM     19  C   UNL     1      46.241   4.432  14.796  0.00  0.00    +0.000 C 
BRANCH  19  20
ATOM     20  N   UNL     1      47.398   4.575  15.641  0.00  0.00    +0.000 N 
ATOM     21  C   UNL     1      47.498   3.946  16.856  0.00  0.00    +0.000 C 
ATOM     22  O   UNL     1      46.627   3.189  17.276  0.00  0.00    +0.000 OA
ATOM     23  H   UNL     1      48.032   5.336  15.427  0.00  0.00    +0.000 HD
BRANCH  21  24
ATOM     24  C   UNL     1      48.732   4.188  17.613  0.00  0.00    +0.000 A 
ATOM     25  C   UNL     1      48.825   5.307  18.430  0.00  0.00    +0.000 A 
ATOM     26  S   UNL     1      50.307   5.425  19.263  0.00  0.00    +0.000 S 
ATOM     27  C   UNL     1      50.899   4.013  18.521  0.00  0.00    +0.000 A 
ATOM     28  N   UNL     1      52.157   3.562  18.780  0.00  0.00    +0.000 NA
ATOM     29  C   UNL     1      52.488   2.504  18.120  0.00  0.00    +0.000 A 
ATOM     30  N   UNL     1      51.676   1.848  17.233  0.00  0.00    +0.000 N 
ATOM     31  C   UNL     1      50.380   2.237  16.979  0.00  0.00    +0.000 A 
ATOM     32  O   UNL     1      49.648   1.580  16.245  0.00  0.00    +0.000 OA
ATOM     33  C   UNL     1      49.967   3.443  17.670  0.00  0.00    +0.000 A 
ATOM     34  H   UNL     1      51.993   1.015  16.764  0.00  0.00    +0.000 HD
ENDBRANCH  21  24
ENDBRANCH  19  20
ENDBRANCH   3  19
TORSDOF 6
ENDMDL
MODEL 2
REMARK VINA RESULT:    -8.402      2.010      2.672
REMARK INTER + INTRA:         -12.195
REMARK INTER:                 -11.212
REMARK INTRA:                  -0.983
REMARK UNBOUND:                -0.846
REMARK  Name = 
REMARK  6 active torsions:
REMARK  status: ('A' for Active; 'I' for Inactive)
REMARK    1  A    between atoms: C_2  and  C_4
REMARK    2  A    between atoms: C_8  and  C_9
REMARK    3  A    between atoms: C_9  and  C_10
REMARK    4  A    between atoms: C_12  and  C_13
REMARK    5  A    between atoms: C_13  and  N_14
REMARK    6  A    between atoms: C_15  and  C_17
REMARK                            x       y       z     vdW  Elec       q    Type
REMARK                         _______ _______ _______ _____ _____    ______ ____
ROOT
ATOM      1  C   UNL     1      44.507   4.912  10.409  0.00  0.00    +0.000 A 
ATOM      2  C   UNL     1      45.557   5.729  10.828  0.00  0.00    +0.000 A 
ATOM      3  C   UNL     1      45.805   5.885  12.198  0.00  0.00    +0.000 A 
ATOM      4  C   UNL     1      44.932   5.276  13.101  0.00  0.00    +0.000 A 
ATOM      5  C   UNL     1      43.887   4.514  12.603  0.00  0.00    +0.000 A 
ATOM      6  N   UNL     1      43.661   4.311  11.286  0.00  0.00    +0.000 NA
ENDROOT
BRANCH   1   7
ATOM      7  C   UNL     1      44.338   4.568   8.948  0.00  0.00    +0.000 C 
BRANCH   7  12
ATOM      8  C   UNL     1      46.580   2.295   7.095  0.00  0.00    +0.000 A 
ATOM      9  C   UNL     1      46.427   1.062   7.713  0.00  0.00    +0.000 A 
ATOM     10  C   UNL     1      45.519   0.965   8.760  0.00  0.00    +0.000 A 
ATOM     11  C   UNL     1      44.802   2.095   9.151  0.00  0.00    +0.000 A 
ATOM     12  C   UNL     1      45.015   3.303   8.485  0.00  0.00    +0.000 A 
ATOM     13  N   UNL     1      45.901   3.420   7.461  0.00  0.00    +0.000 NA
BRANCH   8  15
ATOM     14  N   UNL     1      47.343   3.513   5.141  0.00  0.00    +0.000 N 
ATOM     15  C   UNL     1      47.549   2.438   5.963  0.00  0.00    +0.000 C 
ATOM     16  O   UNL     1      48.473   1.655   5.776  0.00  0.00    +0.000 OA
ATOM     17  H   UNL     1      47.954   3.660   4.352  0.00  0.00    +0.000 HD
ATOM     18  H   UNL     1      46.575   4.147   5.329  0.00  0.00    +0.000 HD
ENDBRANCH   8  15
ENDBRANCH   7  12
ENDBRANCH   1   7
BRANCH   3  19
ATOM     19  C   UNL     1      47.014   6.644  12.681  0.00  0.00    +0.000 C 
BRANCH  19  20
ATOM     20  N   UNL     1      47.339   6.363  14.055  0.00  0.00    +0.000 N 
ATOM     21  C   UNL     1      48.610   6.512  14.550  0.00  0.00    +0.000 C 
ATOM     22  O   UNL     1      49.536   6.935  13.864  0.00  0.00    +0.000 OA
ATOM     23  H   UNL     1      46.662   5.828  14.587  0.00  0.00    +0.000 HD
BRANCH  21  24
ATOM     24  C   UNL     1      48.797   6.181  15.969  0.00  0.00    +0.000 A 
ATOM     25  C   UNL     1      49.435   7.087  16.804  0.00  0.00    +0.000 A 
ATOM     26  S   UNL     1      49.544   6.566  18.424  0.00  0.00    +0.000 S 
ATOM     27  C   UNL     1      48.788   5.087  18.055  0.00  0.00    +0.000 A 
ATOM     28  N   UNL     1      48.597   4.141  19.016  0.00  0.00    +0.000 NA
ATOM     29  C   UNL     1      48.048   3.054  18.589  0.00  0.00    +0.000 A 
ATOM     30  N   UNL     1      47.664   2.827  17.294  0.00  0.00    +0.000 N 
ATOM     31  C   UNL     1      47.790   3.772  16.301  0.00  0.00    +0.000 A 
ATOM     32  O   UNL     1      47.357   3.572  15.170  0.00  0.00    +0.000 OA
ATOM     33  C   UNL     1      48.433   5.003  16.720  0.00  0.00    +0.000 A 
ATOM     34  H   UNL     1      47.224   1.959  17.033  0.00  0.00    +0.000 HD
ENDBRANCH  21  24
ENDBRANCH  19  20
ENDBRANCH   3  19
TORSDOF 6
ENDMDL
MODEL 3
REMARK VINA RESULT:    -8.064      3.080      8.570
REMARK INTER + INTRA:         -11.739
REMARK INTER:                 -10.535
REMARK INTRA:                  -1.204
REMARK UNBOUND:                -0.846
REMARK  Name = 
REMARK  6 active torsions:
REMARK  status: ('A' for Active; 'I' for Inactive)
REMARK    1  A    between atoms: C_2  and  C_4
REMARK    2  A    between atoms: C_8  and  C_9
REMARK    3  A    between atoms: C_9  and  C_10
REMARK    4  A    between atoms: C_12  and  C_13
REMARK    5  A    between atoms: C_13  and  N_14
REMARK    6  A    between atoms: C_15  and  C_17
REMARK                            x       y       z     vdW  Elec       q    Type
REMARK                         _______ _______ _______ _____ _____    ______ ____
ROOT
ATOM      1  C   UNL     1      49.415   7.367  15.363  0.00  0.00    +0.000 A 
ATOM      2  C   UNL     1      48.478   7.534  14.343  0.00  0.00    +0.000 A 
ATOM      3  C   UNL     1      48.913   7.894  13.060  0.00  0.00    +0.000 A 
ATOM      4  C   UNL     1      50.272   8.153  12.872  0.00  0.00    +0.000 A 
ATOM      5  C   UNL     1      51.131   8.004  13.948  0.00  0.00    +0.000 A 
ATOM      6  N   UNL     1      50.739   7.609  15.179  0.00  0.00    +0.000 NA
ENDROOT
BRANCH   1   7
ATOM      7  C   UNL     1      49.002   6.792  16.698  0.00  0.00    +0.000 C 
BRANCH   7  12
ATOM      8  C   UNL     1      49.700   3.194  17.141  0.00  0.00    +0.000 A 
ATOM      9  C   UNL     1      48.465   2.573  17.014  0.00  0.00    +0.000 A 
ATOM     10  C   UNL     1      47.361   3.368  16.733  0.00  0.00    +0.000 A 
ATOM     11  C   UNL     1      47.527   4.745  16.591  0.00  0.00    +0.000 A 
ATOM     12  C   UNL     1      48.801   5.298  16.739  0.00  0.00    +0.000 A 
ATOM     13  N   UNL     1      49.893   4.539  17.017  0.00  0.00    +0.000 NA
BRANCH   8  15
ATOM     14  N   UNL     1      51.820   2.944  18.291  0.00  0.00    +0.000 N 
ATOM     15  C   UNL     1      50.913   2.370  17.443  0.00  0.00    +0.000 C 
ATOM     16  O   UNL     1      51.090   1.252  16.974  0.00  0.00    +0.000 OA
ATOM     17  H   UNL     1      52.665   2.446  18.527  0.00  0.00    +0.000 HD
ATOM     18  H   UNL     1      51.638   3.866  18.670  0.00  0.00    +0.000 HD
ENDBRANCH   8  15
ENDBRANCH   7  12
ENDBRANCH   1   7
BRANCH   3  19
ATOM     19  C   UNL     1      47.946   7.945  11.905  0.00  0.00    +0.000 C 
BRANCH  19  20
ATOM     20  N   UNL     1      47.141   6.757  11.797  0.00  0.00    +0.000 N 
ATOM     21  C   UNL     1      45.770   6.803  11.768  0.00  0.00    +0.000 C 
ATOM     22  O   UNL     1      45.149   7.862  11.790  0.00  0.00    +0.000 OA
ATOM     23  H   UNL     1      47.601   5.872  11.981  0.00  0.00    +0.000 HD
BRANCH  21  24
ATOM     24  C   UNL     1      45.079   5.512  11.663  0.00  0.00    +0.000 A 
ATOM     25  C   UNL     1      44.388   5.014  12.759  0.00  0.00    +0.000 A 
ATOM     26  S   UNL     1      43.616   3.524  12.462  0.00  0.00    +0.000 S 
ATOM     27  C   UNL     1      44.222   3.464  10.873  0.00  0.00    +0.000 A 
ATOM     28  N   UNL     1      43.955   2.404  10.062  0.00  0.00    +0.000 NA
ATOM     29  C   UNL     1      44.509   2.472   8.899  0.00  0.00    +0.000 A 
ATOM     30  N   UNL     1      45.298   3.505   8.467  0.00  0.00    +0.000 N 
ATOM     31  C   UNL     1      45.553   4.620   9.233  0.00  0.00    +0.000 A 
ATOM     32  O   UNL     1      46.193   5.569   8.786  0.00  0.00    +0.000 OA
ATOM     33  C   UNL     1      44.980   4.581  10.564  0.00  0.00    +0.000 A 
ATOM     34  H   UNL     1      45.686   3.502   7.537  0.00  0.00    +0.000 HD
ENDBRANCH  21  24
ENDBRANCH  19  20
ENDBRANCH   3  19
TORSDOF 6
ENDMDL
MODEL 4
REMARK VINA RESULT:    -8.029      3.089      8.623
REMARK INTER + INTRA:         -11.691
REMARK INTER:                 -10.565
REMARK INTRA:                  -1.127
REMARK UNBOUND:                -0.846
REMARK  Name = 
REMARK  6 active torsions:
REMARK  status: ('A' for Active; 'I' for Inactive)
REMARK    1  A    between atoms: C_2  and  C_4
REMARK    2  A    between atoms: C_8  and  C_9
REMARK    3  A    between atoms: C_9  and  C_10
REMARK    4  A    between atoms: C_12  and  C_13
REMARK    5  A    between atoms: C_13  and  N_14
REMARK    6  A    between atoms: C_15  and  C_17
REMARK                            x       y       z     vdW  Elec       q    Type
REMARK                         _______ _______ _______ _____ _____    ______ ____
ROOT
ATOM      1  C   UNL     1      49.819   7.701  15.296  0.00  0.00    +0.000 A 
ATOM      2  C   UNL     1      49.377   7.318  14.029  0.00  0.00    +0.000 A 
ATOM      3  C   UNL     1      48.538   8.174  13.304  0.00  0.00    +0.000 A 
ATOM      4  C   UNL     1      48.107   9.353  13.917  0.00  0.00    +0.000 A 
ATOM      5  C   UNL     1      48.560   9.639  15.195  0.00  0.00    +0.000 A 
ATOM      6  N   UNL     1      49.409   8.851  15.890  0.00  0.00    +0.000 NA
ENDROOT
BRANCH   1   7
ATOM      7  C   UNL     1      50.876   6.896  16.015  0.00  0.00    +0.000 C 
BRANCH   7  12
ATOM      8  C   UNL     1      48.684   4.109  17.042  0.00  0.00    +0.000 A 
ATOM      9  C   UNL     1      49.510   3.248  17.752  0.00  0.00    +0.000 A 
ATOM     10  C   UNL     1      50.836   3.619  17.932  0.00  0.00    +0.000 A 
ATOM     11  C   UNL     1      51.289   4.826  17.401  0.00  0.00    +0.000 A 
ATOM     12  C   UNL     1      50.399   5.637  16.694  0.00  0.00    +0.000 A 
ATOM     13  N   UNL     1      49.098   5.291  16.502  0.00  0.00    +0.000 NA
BRANCH   8  15
ATOM     14  N   UNL     1      46.627   4.376  15.785  0.00  0.00    +0.000 N 
ATOM     15  C   UNL     1      47.248   3.743  16.827  0.00  0.00    +0.000 C 
ATOM     16  O   UNL     1      46.658   2.929  17.527  0.00  0.00    +0.000 OA
ATOM     17  H   UNL     1      45.656   4.183  15.593  0.00  0.00    +0.000 HD
ATOM     18  H   UNL     1      47.147   5.037  15.219  0.00  0.00    +0.000 HD
ENDBRANCH   8  15
ENDBRANCH   7  12
ENDBRANCH   1   7
BRANCH   3  19
ATOM     19  C   UNL     1      48.157   7.857  11.881  0.00  0.00    +0.000 C 
BRANCH  19  20
ATOM     20  N   UNL     1      47.306   6.701  11.775  0.00  0.00    +0.000 N 
ATOM     21  C   UNL     1      45.938   6.792  11.830  0.00  0.00    +0.000 C 
ATOM     22  O   UNL     1      45.356   7.869  11.929  0.00  0.00    +0.000 OA
ATOM     23  H   UNL     1      47.744   5.795  11.896  0.00  0.00    +0.000 HD
BRANCH  21  24
ATOM     24  C   UNL     1      45.197   5.530  11.715  0.00  0.00    +0.000 A 
ATOM     25  C   UNL     1      44.501   5.043  12.812  0.00  0.00    +0.000 A 
ATOM     26  S   UNL     1      43.670   3.587  12.504  0.00  0.00    +0.000 S 
ATOM     27  C   UNL     1      44.255   3.527  10.908  0.00  0.00    +0.000 A 
ATOM     28  N   UNL     1      43.938   2.489  10.086  0.00  0.00    +0.000 NA
ATOM     29  C   UNL     1      44.481   2.553   8.918  0.00  0.00    +0.000 A 
ATOM     30  N   UNL     1      45.303   3.561   8.490  0.00  0.00    +0.000 N 
ATOM     31  C   UNL     1      45.610   4.655   9.267  0.00  0.00    +0.000 A 
ATOM     32  O   UNL     1      46.279   5.586   8.826  0.00  0.00    +0.000 OA
ATOM     33  C   UNL     1      45.051   4.618  10.605  0.00  0.00    +0.000 A 
ATOM     34  H   UNL     1      45.681   3.556   7.555  0.00  0.00    +0.000 HD
ENDBRANCH  21  24
ENDBRANCH  19  20
ENDBRANCH   3  19
TORSDOF 6
ENDMDL
MODEL 5
REMARK VINA RESULT:    -7.736      3.621      8.534
REMARK INTER + INTRA:         -11.295
REMARK INTER:                 -10.162
REMARK INTRA:                  -1.134
REMARK UNBOUND:                -0.846
REMARK  Name = 
REMARK  6 active torsions:
REMARK  status: ('A' for Active; 'I' for Inactive)
REMARK    1  A    between atoms: C_2  and  C_4
REMARK    2  A    between atoms: C_8  and  C_9
REMARK    3  A    between atoms: C_9  and  C_10
REMARK    4  A    between atoms: C_12  and  C_13
REMARK    5  A    between atoms: C_13  and  N_14
REMARK    6  A    between atoms: C_15  and  C_17
REMARK                            x       y       z     vdW  Elec       q    Type
REMARK                         _______ _______ _______ _____ _____    ______ ____
ROOT
ATOM      1  C   UNL     1      48.601   7.472  18.882  0.00  0.00    +0.000 A 
ATOM      2  C   UNL     1      48.731   7.388  17.495  0.00  0.00    +0.000 A 
ATOM      3  C   UNL     1      48.509   8.529  16.712  0.00  0.00    +0.000 A 
ATOM      4  C   UNL     1      48.084   9.696  17.350  0.00  0.00    +0.000 A 
ATOM      5  C   UNL     1      47.940   9.684  18.728  0.00  0.00    +0.000 A 
ATOM      6  N   UNL     1      48.197   8.609  19.506  0.00  0.00    +0.000 NA
ENDROOT
BRANCH   1   7
ATOM      7  C   UNL     1      49.023   6.319  19.763  0.00  0.00    +0.000 C 
BRANCH   7  12
ATOM      8  C   UNL     1      49.654   3.410  17.579  0.00  0.00    +0.000 A 
ATOM      9  C   UNL     1      51.027   3.217  17.631  0.00  0.00    +0.000 A 
ATOM     10  C   UNL     1      51.773   4.056  18.449  0.00  0.00    +0.000 A 
ATOM     11  C   UNL     1      51.127   5.052  19.180  0.00  0.00    +0.000 A 
ATOM     12  C   UNL     1      49.742   5.189  19.072  0.00  0.00    +0.000 A 
ATOM     13  N   UNL     1      48.994   4.381  18.274  0.00  0.00    +0.000 NA
BRANCH   8  15
ATOM     14  N   UNL     1      47.472   2.784  16.723  0.00  0.00    +0.000 N 
ATOM     15  C   UNL     1      48.816   2.526  16.708  0.00  0.00    +0.000 C 
ATOM     16  O   UNL     1      49.291   1.631  16.019  0.00  0.00    +0.000 OA
ATOM     17  H   UNL     1      46.851   2.217  16.167  0.00  0.00    +0.000 HD
ATOM     18  H   UNL     1      47.114   3.538  17.297  0.00  0.00    +0.000 HD
ENDBRANCH   8  15
ENDBRANCH   7  12
ENDBRANCH   1   7
BRANCH   3  19
ATOM     19  C   UNL     1      48.777   8.509  15.229  0.00  0.00    +0.000 C 
BRANCH  19  20
ATOM     20  N   UNL     1      47.671   7.991  14.468  0.00  0.00    +0.000 N 
ATOM     21  C   UNL     1      47.815   6.951  13.585  0.00  0.00    +0.000 C 
ATOM     22  O   UNL     1      48.885   6.372  13.423  0.00  0.00    +0.000 OA
ATOM     23  H   UNL     1      46.836   8.564  14.423  0.00  0.00    +0.000 HD
BRANCH  21  24
ATOM     24  C   UNL     1      46.602   6.532  12.873  0.00  0.00    +0.000 A 
ATOM     25  C   UNL     1      45.805   7.487  12.256  0.00  0.00    +0.000 A 
ATOM     26  S   UNL     1      44.455   6.833  11.447  0.00  0.00    +0.000 S 
ATOM     27  C   UNL     1      44.857   5.254  11.937  0.00  0.00    +0.000 A 
ATOM     28  N   UNL     1      44.070   4.196  11.600  0.00  0.00    +0.000 NA
ATOM     29  C   UNL     1      44.473   3.064  12.070  0.00  0.00    +0.000 A 
ATOM     30  N   UNL     1      45.594   2.888  12.838  0.00  0.00    +0.000 N 
ATOM     31  C   UNL     1      46.446   3.920  13.161  0.00  0.00    +0.000 A 
ATOM     32  O   UNL     1      47.488   3.719  13.778  0.00  0.00    +0.000 OA
ATOM     33  C   UNL     1      46.022   5.223  12.685  0.00  0.00    +0.000 A 
ATOM     34  H   UNL     1      45.860   1.971  13.159  0.00  0.00    +0.000 HD
ENDBRANCH  21  24
ENDBRANCH  19  20
ENDBRANCH   3  19
TORSDOF 6
ENDMDL
MODEL 6
REMARK VINA RESULT:    -7.680      4.402      5.617
REMARK INTER + INTRA:         -11.220
REMARK INTER:                 -10.198
REMARK INTRA:                  -1.021
REMARK UNBOUND:                -0.846
REMARK  Name = 
REMARK  6 active torsions:
REMARK  status: ('A' for Active; 'I' for Inactive)
REMARK    1  A    between atoms: C_2  and  C_4
REMARK    2  A    between atoms: C_8  and  C_9
REMARK    3  A    between atoms: C_9  and  C_10
REMARK    4  A    between atoms: C_12  and  C_13
REMARK    5  A    between atoms: C_13  and  N_14
REMARK    6  A    between atoms: C_15  and  C_17
REMARK                            x       y       z     vdW  Elec       q    Type
REMARK                         _______ _______ _______ _____ _____    ______ ____
ROOT
ATOM      1  C   UNL     1      44.975   3.671  12.075  0.00  0.00    +0.000 A 
ATOM      2  C   UNL     1      44.688   5.037  12.063  0.00  0.00    +0.000 A 
ATOM      3  C   UNL     1      45.405   5.898  12.905  0.00  0.00    +0.000 A 
ATOM      4  C   UNL     1      46.331   5.339  13.789  0.00  0.00    +0.000 A 
ATOM      5  C   UNL     1      46.526   3.968  13.765  0.00  0.00    +0.000 A 
ATOM      6  N   UNL     1      45.882   3.127  12.927  0.00  0.00    +0.000 NA
ENDROOT
BRANCH   1   7
ATOM      7  C   UNL     1      44.362   2.751  11.045  0.00  0.00    +0.000 C 
BRANCH   7  12
ATOM      8  C   UNL     1      46.154   1.997   7.906  0.00  0.00    +0.000 A 
ATOM      9  C   UNL     1      45.742   2.980   7.016  0.00  0.00    +0.000 A 
ATOM     10  C   UNL     1      44.867   3.954   7.479  0.00  0.00    +0.000 A 
ATOM     11  C   UNL     1      44.435   3.912   8.804  0.00  0.00    +0.000 A 
ATOM     12  C   UNL     1      44.889   2.889   9.639  0.00  0.00    +0.000 A 
ATOM     13  N   UNL     1      45.742   1.924   9.205  0.00  0.00    +0.000 NA
BRANCH   8  15
ATOM     14  N   UNL     1      46.689  -0.357   7.668  0.00  0.00    +0.000 N 
ATOM     15  C   UNL     1      47.097   0.930   7.443  0.00  0.00    +0.000 C 
ATOM     16  O   UNL     1      48.163   1.179   6.894  0.00  0.00    +0.000 OA
ATOM     17  H   UNL     1      47.284  -1.122   7.391  0.00  0.00    +0.000 HD
ATOM     18  H   UNL     1      45.797  -0.528   8.116  0.00  0.00    +0.000 HD
ENDBRANCH   8  15
ENDBRANCH   7  12
ENDBRANCH   1   7
BRANCH   3  19
ATOM     19  C   UNL     1      45.221   7.391  12.817  0.00  0.00    +0.000 C 
BRANCH  19  20
ATOM     20  N   UNL     1      46.359   8.062  12.247  0.00  0.00    +0.000 N 
ATOM     21  C   UNL     1      47.223   8.809  13.007  0.00  0.00    +0.000 C 
ATOM     22  O   UNL     1      47.103   8.914  14.225  0.00  0.00    +0.000 OA
ATOM     23  H   UNL     1      46.374   8.166  11.239  0.00  0.00    +0.000 HD
BRANCH  21  24
ATOM     24  C   UNL     1      48.337   9.443  12.291  0.00  0.00    +0.000 A 
ATOM     25  C   UNL     1      48.261  10.789  11.961  0.00  0.00    +0.000 A 
ATOM     26  S   UNL     1      49.647  11.377  11.162  0.00  0.00    +0.000 S 
ATOM     27  C   UNL     1      50.377   9.841  11.181  0.00  0.00    +0.000 A 
ATOM     28  N   UNL     1      51.597   9.639  10.612  0.00  0.00    +0.000 NA
ATOM     29  C   UNL     1      52.013   8.420  10.665  0.00  0.00    +0.000 A 
ATOM     30  N   UNL     1      51.328   7.383  11.242  0.00  0.00    +0.000 N 
ATOM     31  C   UNL     1      50.116   7.549  11.873  0.00  0.00    +0.000 A 
ATOM     32  O   UNL     1      49.567   6.618  12.456  0.00  0.00    +0.000 OA
ATOM     33  C   UNL     1      49.586   8.897  11.814  0.00  0.00    +0.000 A 
ATOM     34  H   UNL     1      51.721   6.455  11.263  0.00  0.00    +0.000 HD
ENDBRANCH  21  24
ENDBRANCH  19  20
ENDBRANCH   3  19
TORSDOF 6
ENDMDL
MODEL 7
REMARK VINA RESULT:    -7.563      3.774      9.244
REMARK INTER + INTRA:         -11.062
REMARK INTER:                  -9.955
REMARK INTRA:                  -1.107
REMARK UNBOUND:                -0.846
REMARK  Name = 
REMARK  6 active torsions:
REMARK  status: ('A' for Active; 'I' for Inactive)
REMARK    1  A    between atoms: C_2  and  C_4
REMARK    2  A    between atoms: C_8  and  C_9
REMARK    3  A    between atoms: C_9  and  C_10
REMARK    4  A    between atoms: C_12  and  C_13
REMARK    5  A    between atoms: C_13  and  N_14
REMARK    6  A    between atoms: C_15  and  C_17
REMARK                            x       y       z     vdW  Elec       q    Type
REMARK                         _______ _______ _______ _____ _____    ______ ____
ROOT
ATOM      1  C   UNL     1      50.626   4.692  17.601  0.00  0.00    +0.000 A 
ATOM      2  C   UNL     1      49.274   4.660  17.258  0.00  0.00    +0.000 A 
ATOM      3  C   UNL     1      48.655   3.427  17.009  0.00  0.00    +0.000 A 
ATOM      4  C   UNL     1      49.444   2.275  17.035  0.00  0.00    +0.000 A 
ATOM      5  C   UNL     1      50.789   2.399  17.344  0.00  0.00    +0.000 A 
ATOM      6  N   UNL     1      51.393   3.571  17.636  0.00  0.00    +0.000 NA
ENDROOT
BRANCH   1   7
ATOM      7  C   UNL     1      51.269   5.978  18.065  0.00  0.00    +0.000 C 
BRANCH   7  12
ATOM      8  C   UNL     1      48.939   8.838  17.919  0.00  0.00    +0.000 A 
ATOM      9  C   UNL     1      48.448   8.964  19.211  0.00  0.00    +0.000 A 
ATOM     10  C   UNL     1      48.932   8.094  20.180  0.00  0.00    +0.000 A 
ATOM     11  C   UNL     1      49.881   7.136  19.828  0.00  0.00    +0.000 A 
ATOM     12  C   UNL     1      50.324   7.067  18.505  0.00  0.00    +0.000 A 
ATOM     13  N   UNL     1      49.860   7.906  17.541  0.00  0.00    +0.000 NA
BRANCH   8  15
ATOM     14  N   UNL     1      47.607   9.190  15.923  0.00  0.00    +0.000 N 
ATOM     15  C   UNL     1      48.441   9.758  16.847  0.00  0.00    +0.000 C 
ATOM     16  O   UNL     1      48.748  10.942  16.793  0.00  0.00    +0.000 OA
ATOM     17  H   UNL     1      47.245   9.752  15.167  0.00  0.00    +0.000 HD
ATOM     18  H   UNL     1      47.365   8.209  16.002  0.00  0.00    +0.000 HD
ENDBRANCH   8  15
ENDBRANCH   7  12
ENDBRANCH   1   7
BRANCH   3  19
ATOM     19  C   UNL     1      47.169   3.344  16.775  0.00  0.00    +0.000 C 
BRANCH  19  20
ATOM     20  N   UNL     1      46.700   4.308  15.815  0.00  0.00    +0.000 N 
ATOM     21  C   UNL     1      46.809   4.104  14.462  0.00  0.00    +0.000 C 
ATOM     22  O   UNL     1      47.275   3.070  13.990  0.00  0.00    +0.000 OA
ATOM     23  H   UNL     1      46.503   5.241  16.158  0.00  0.00    +0.000 HD
BRANCH  21  24
ATOM     24  C   UNL     1      46.294   5.175  13.600  0.00  0.00    +0.000 A 
ATOM     25  C   UNL     1      47.053   6.321  13.404  0.00  0.00    +0.000 A 
ATOM     26  S   UNL     1      46.329   7.450  12.353  0.00  0.00    +0.000 S 
ATOM     27  C   UNL     1      44.950   6.472  12.165  0.00  0.00    +0.000 A 
ATOM     28  N   UNL     1      43.903   6.880  11.396  0.00  0.00    +0.000 NA
ATOM     29  C   UNL     1      42.909   6.058  11.373  0.00  0.00    +0.000 A 
ATOM     30  N   UNL     1      42.866   4.862  12.038  0.00  0.00    +0.000 N 
ATOM     31  C   UNL     1      43.920   4.385  12.785  0.00  0.00    +0.000 A 
ATOM     32  O   UNL     1      43.886   3.270  13.299  0.00  0.00    +0.000 OA
ATOM     33  C   UNL     1      45.053   5.286  12.872  0.00  0.00    +0.000 A 
ATOM     34  H   UNL     1      42.062   4.259  11.962  0.00  0.00    +0.000 HD
ENDBRANCH  21  24
ENDBRANCH  19  20
ENDBRANCH   3  19
TORSDOF 6
ENDMDL
MODEL 8
REMARK VINA RESULT:    -7.470      3.869      8.387
REMARK INTER + INTRA:         -10.936
REMARK INTER:                  -9.051
REMARK INTRA:                  -1.885
REMARK UNBOUND:                -0.846
REMARK  Name = 
REMARK  6 active torsions:
REMARK  status: ('A' for Active; 'I' for Inactive)
REMARK    1  A    between atoms: C_2  and  C_4
REMARK    2  A    between atoms: C_8  and  C_9
REMARK    3  A    between atoms: C_9  and  C_10
REMARK    4  A    between atoms: C_12  and  C_13
REMARK    5  A    between atoms: C_13  and  N_14
REMARK    6  A    between atoms: C_15  and  C_17
REMARK                            x       y       z     vdW  Elec       q    Type
REMARK                         _______ _______ _______ _____ _____    ______ ____
ROOT
ATOM      1  C   UNL     1      51.475   7.277  16.086  0.00  0.00    +0.000 A 
ATOM      2  C   UNL     1      50.179   7.790  16.166  0.00  0.00    +0.000 A 
ATOM      3  C   UNL     1      49.744   8.714  15.207  0.00  0.00    +0.000 A 
ATOM      4  C   UNL     1      50.660   9.151  14.247  0.00  0.00    +0.000 A 
ATOM      5  C   UNL     1      51.941   8.623  14.263  0.00  0.00    +0.000 A 
ATOM      6  N   UNL     1      52.364   7.693  15.148  0.00  0.00    +0.000 NA
ENDROOT
BRANCH   1   7
ATOM      7  C   UNL     1      51.905   6.138  16.982  0.00  0.00    +0.000 C 
BRANCH   7  12
ATOM      8  C   UNL     1      49.039   3.926  17.706  0.00  0.00    +0.000 A 
ATOM      9  C   UNL     1      48.884   3.984  19.084  0.00  0.00    +0.000 A 
ATOM     10  C   UNL     1      49.734   4.815  19.802  0.00  0.00    +0.000 A 
ATOM     11  C   UNL     1      50.703   5.553  19.124  0.00  0.00    +0.000 A 
ATOM     12  C   UNL     1      50.803   5.439  17.736  0.00  0.00    +0.000 A 
ATOM     13  N   UNL     1      49.984   4.628  17.015  0.00  0.00    +0.000 NA
BRANCH   8  15
ATOM     14  N   UNL     1      46.876   2.876  17.391  0.00  0.00    +0.000 N 
ATOM     15  C   UNL     1      48.142   3.041  16.898  0.00  0.00    +0.000 C 
ATOM     16  O   UNL     1      48.503   2.499  15.860  0.00  0.00    +0.000 OA
ATOM     17  H   UNL     1      46.225   2.282  16.900  0.00  0.00    +0.000 HD
ATOM     18  H   UNL     1      46.606   3.346  18.246  0.00  0.00    +0.000 HD
ENDBRANCH   8  15
ENDBRANCH   7  12
ENDBRANCH   1   7
BRANCH   3  19
ATOM     19  C   UNL     1      48.311   9.180  15.180  0.00  0.00    +0.000 C 
BRANCH  19  20
ATOM     20  N   UNL     1      47.428   8.235  14.550  0.00  0.00    +0.000 N 
ATOM     21  C   UNL     1      47.076   8.334  13.227  0.00  0.00    +0.000 C 
ATOM     22  O   UNL     1      47.526   9.209  12.492  0.00  0.00    +0.000 OA
ATOM     23  H   UNL     1      46.887   7.634  15.160  0.00  0.00    +0.000 HD
BRANCH  21  24
ATOM     24  C   UNL     1      46.161   7.304  12.720  0.00  0.00    +0.000 A 
ATOM     25  C   UNL     1      45.060   7.680  11.963  0.00  0.00    +0.000 A 
ATOM     26  S   UNL     1      44.118   6.364  11.425  0.00  0.00    +0.000 S 
ATOM     27  C   UNL     1      45.120   5.249  12.230  0.00  0.00    +0.000 A 
ATOM     28  N   UNL     1      44.846   3.915  12.200  0.00  0.00    +0.000 NA
ATOM     29  C   UNL     1      45.665   3.190  12.883  0.00  0.00    +0.000 A 
ATOM     30  N   UNL     1      46.737   3.670  13.587  0.00  0.00    +0.000 N 
ATOM     31  C   UNL     1      47.082   5.003  13.604  0.00  0.00    +0.000 A 
ATOM     32  O   UNL     1      48.099   5.393  14.172  0.00  0.00    +0.000 OA
ATOM     33  C   UNL     1      46.175   5.869  12.877  0.00  0.00    +0.000 A 
ATOM     34  H   UNL     1      47.348   3.043  14.087  0.00  0.00    +0.000 HD
ENDBRANCH  21  24
ENDBRANCH  19  20
ENDBRANCH   3  19
TORSDOF 6
ENDMDL
MODEL 9
REMARK VINA RESULT:    -7.423      3.554      8.660
REMARK INTER + INTRA:         -10.872
REMARK INTER:                  -9.758
REMARK INTRA:                  -1.114
REMARK UNBOUND:                -0.846
REMARK  Name = 
REMARK  6 active torsions:
REMARK  status: ('A' for Active; 'I' for Inactive)
REMARK    1  A    between atoms: C_2  and  C_4
REMARK    2  A    between atoms: C_8  and  C_9
REMARK    3  A    between atoms: C_9  and  C_10
REMARK    4  A    between atoms: C_12  and  C_13
REMARK    5  A    between atoms: C_13  and  N_14
REMARK    6  A    between atoms: C_15  and  C_17
REMARK                            x       y       z     vdW  Elec       q    Type
REMARK                         _______ _______ _______ _____ _____    ______ ____
ROOT
ATOM      1  C   UNL     1      49.970   7.600  15.687  0.00  0.00    +0.000 A 
ATOM      2  C   UNL     1      48.695   7.870  15.190  0.00  0.00    +0.000 A 
ATOM      3  C   UNL     1      48.537   8.182  13.832  0.00  0.00    +0.000 A 
ATOM      4  C   UNL     1      49.682   8.290  13.041  0.00  0.00    +0.000 A 
ATOM      5  C   UNL     1      50.916   8.046  13.623  0.00  0.00    +0.000 A 
ATOM      6  N   UNL     1      51.085   7.695  14.917  0.00  0.00    +0.000 NA
ENDROOT
BRANCH   1   7
ATOM      7  C   UNL     1      50.150   7.070  17.091  0.00  0.00    +0.000 C 
BRANCH   7  12
ATOM      8  C   UNL     1      49.365   3.476  17.396  0.00  0.00    +0.000 A 
ATOM      9  C   UNL     1      48.198   3.429  18.147  0.00  0.00    +0.000 A 
ATOM     10  C   UNL     1      47.624   4.632  18.537  0.00  0.00    +0.000 A 
ATOM     11  C   UNL     1      48.231   5.832  18.168  0.00  0.00    +0.000 A 
ATOM     12  C   UNL     1      49.408   5.799  17.417  0.00  0.00    +0.000 A 
ATOM     13  N   UNL     1      49.988   4.633  17.029  0.00  0.00    +0.000 NA
BRANCH   8  15
ATOM     14  N   UNL     1      50.962   1.697  17.806  0.00  0.00    +0.000 N 
ATOM     15  C   UNL     1      50.013   2.200  16.958  0.00  0.00    +0.000 C 
ATOM     16  O   UNL     1      49.718   1.630  15.914  0.00  0.00    +0.000 OA
ATOM     17  H   UNL     1      51.445   0.846  17.563  0.00  0.00    +0.000 HD
ATOM     18  H   UNL     1      51.175   2.188  18.666  0.00  0.00    +0.000 HD
ENDBRANCH   8  15
ENDBRANCH   7  12
ENDBRANCH   1   7
BRANCH   3  19
ATOM     19  C   UNL     1      47.163   8.340  13.234  0.00  0.00    +0.000 C 
BRANCH  19  20
ATOM     20  N   UNL     1      46.735   7.178  12.501  0.00  0.00    +0.000 N 
ATOM     21  C   UNL     1      45.691   7.218  11.612  0.00  0.00    +0.000 C 
ATOM     22  O   UNL     1      45.088   8.256  11.355  0.00  0.00    +0.000 OA
ATOM     23  H   UNL     1      47.066   6.279  12.832  0.00  0.00    +0.000 HD
BRANCH  21  24
ATOM     24  C   UNL     1      45.360   5.954  10.941  0.00  0.00    +0.000 A 
ATOM     25  C   UNL     1      45.730   5.765   9.617  0.00  0.00    +0.000 A 
ATOM     26  S   UNL     1      45.299   4.236   8.998  0.00  0.00    +0.000 S 
ATOM     27  C   UNL     1      44.556   3.792  10.463  0.00  0.00    +0.000 A 
ATOM     28  N   UNL     1      43.944   2.583  10.598  0.00  0.00    +0.000 NA
ATOM     29  C   UNL     1      43.389   2.395  11.747  0.00  0.00    +0.000 A 
ATOM     30  N   UNL     1      43.396   3.297  12.778  0.00  0.00    +0.000 N 
ATOM     31  C   UNL     1      44.045   4.509  12.705  0.00  0.00    +0.000 A 
ATOM     32  O   UNL     1      44.108   5.260  13.674  0.00  0.00    +0.000 OA
ATOM     33  C   UNL     1      44.659   4.786  11.420  0.00  0.00    +0.000 A 
ATOM     34  H   UNL     1      42.956   3.077  13.658  0.00  0.00    +0.000 HD
ENDBRANCH  21  24
ENDBRANCH  19  20
ENDBRANCH   3  19
TORSDOF 6
ENDMDL
