MODEL 1
REMARK VINA RESULT:    -7.459      0.000      0.000
REMARK INTER + INTRA:          -9.416
REMARK INTER:                  -8.767
REMARK INTRA:                  -0.649
REMARK UNBOUND:                -0.649
REMARK  Name = 
REMARK  3 active torsions:
REMARK  status: ('A' for Active; 'I' for Inactive)
REMARK    1  A    between atoms: N_5  and  C_6
REMARK    2  A    between atoms: C_6  and  C_7
REMARK    3  A    between atoms: C_11  and  N_12
REMARK                            x       y       z     vdW  Elec       q    Type
REMARK                         _______ _______ _______ _____ _____    ______ ____
ROOT
ATOM      1  C   UNL     1      44.861   4.584  11.451  0.00  0.00    +0.000 A 
ATOM      2  C   UNL     1      45.376   3.532  12.219  0.00  0.00    +0.000 A 
ATOM      3  C   UNL     1      46.248   3.795  13.267  0.00  0.00    +0.000 A 
ATOM      4  C   UNL     1      46.609   5.112  13.557  0.00  0.00    +0.000 A 
ATOM      5  C   UNL     1      46.110   6.201  12.820  0.00  0.00    +0.000 A 
ATOM      6  C   UNL     1      45.210   5.911  11.784  0.00  0.00    +0.000 A 
ENDROOT
BRANCH   5   7
ATOM      7  N   UNL     1      46.525   7.488  13.128  0.00  0.00    +0.000 N 
ATOM      8  C   UNL     1      45.642   8.649  13.019  0.00  0.00    +0.000 C 
ATOM      9  C   UNL     1      46.064   9.555  11.863  0.00  0.00    +0.000 C 
ATOM     10  C   UNL     1      47.551   9.902  11.938  0.00  0.00    +0.000 C 
ATOM     11  C   UNL     1      48.394   8.634  12.023  0.00  0.00    +0.000 C 
ATOM     12  C   UNL     1      47.965   7.764  13.204  0.00  0.00    +0.000 C 
ENDBRANCH   5   7
BRANCH   1  13
ATOM     13  C   UNL     1      44.009   4.280  10.241  0.00  0.00    +0.000 C 
BRANCH  13  18
ATOM     14  C   UNL     1      46.946   1.879   7.076  0.00  0.00    +0.000 A 
ATOM     15  C   UNL     1      46.155   1.557   8.149  0.00  0.00    +0.000 A 
ATOM     16  N   UNL     1      45.403   2.456   8.809  0.00  0.00    +0.000 NA
ATOM     17  C   UNL     1      45.454   3.738   8.408  0.00  0.00    +0.000 A 
ATOM     18  N   UNL     1      44.659   4.683   9.016  0.00  0.00    +0.000 N 
ATOM     19  N   UNL     1      46.226   4.150   7.387  0.00  0.00    +0.000 NA
ATOM     20  C   UNL     1      46.940   3.209   6.734  0.00  0.00    +0.000 A 
ATOM     21  H   UNL     1      45.037   5.616   8.933  0.00  0.00    +0.000 HD
ENDBRANCH  13  18
ENDBRANCH   1  13
TORSDOF 3
ENDMDL
MODEL 2
REMARK VINA RESULT:    -7.394      2.904      6.989
REMARK INTER + INTRA:          -9.341
REMARK INTER:                  -8.800
REMARK INTRA:                  -0.540
REMARK UNBOUND:                -0.649
REMARK  Name = 
REMARK  3 active torsions:
REMARK  status: ('A' for Active; 'I' for Inactive)
REMARK    1  A    between atoms: N_5  and  C_6
REMARK    2  A    between atoms: C_6  and  C_7
REMARK    3  A    between atoms: C_11  and  N_12
REMARK                            x       y       z     vdW  Elec       q    Type
REMARK                         _______ _______ _______ _____ _____    ______ ____
ROOT
ATOM      1  C   UNL     1      45.352   4.529  12.858  0.00  0.00    +0.000 A 
ATOM      2  C   UNL     1      44.111   5.015  13.288  0.00  0.00    +0.000 A 
ATOM      3  C   UNL     1      43.006   4.944  12.450  0.00  0.00    +0.000 A 
ATOM      4  C   UNL     1      43.133   4.386  11.177  0.00  0.00    +0.000 A 
ATOM      5  C   UNL     1      44.356   3.878  10.705  0.00  0.00    +0.000 A 
ATOM      6  C   UNL     1      45.452   3.936  11.581  0.00  0.00    +0.000 A 
ENDROOT
BRANCH   5   7
ATOM      7  N   UNL     1      44.438   3.363   9.421  0.00  0.00    +0.000 N 
ATOM      8  C   UNL     1      44.583   1.932   9.151  0.00  0.00    +0.000 C 
ATOM      9  C   UNL     1      45.973   1.614   8.600  0.00  0.00    +0.000 C 
ATOM     10  C   UNL     1      46.325   2.514   7.416  0.00  0.00    +0.000 C 
ATOM     11  C   UNL     1      46.170   3.983   7.795  0.00  0.00    +0.000 C 
ATOM     12  C   UNL     1      44.763   4.274   8.317  0.00  0.00    +0.000 C 
ENDBRANCH   5   7
BRANCH   1  13
ATOM     13  C   UNL     1      46.573   4.718  13.729  0.00  0.00    +0.000 C 
BRANCH  13  18
ATOM     14  C   UNL     1      49.355   3.732  17.689  0.00  0.00    +0.000 A 
ATOM     15  C   UNL     1      48.774   4.838  17.125  0.00  0.00    +0.000 A 
ATOM     16  N   UNL     1      48.001   4.787  16.026  0.00  0.00    +0.000 NA
ATOM     17  C   UNL     1      47.813   3.591  15.441  0.00  0.00    +0.000 A 
ATOM     18  N   UNL     1      46.983   3.480  14.348  0.00  0.00    +0.000 N 
ATOM     19  N   UNL     1      48.370   2.459  15.906  0.00  0.00    +0.000 NA
ATOM     20  C   UNL     1      49.113   2.552  17.029  0.00  0.00    +0.000 A 
ATOM     21  H   UNL     1      47.209   2.683  13.772  0.00  0.00    +0.000 HD
ENDBRANCH  13  18
ENDBRANCH   1  13
TORSDOF 3
ENDMDL
MODEL 3
REMARK VINA RESULT:    -7.291      0.853      1.495
REMARK INTER + INTRA:          -9.219
REMARK INTER:                  -8.564
REMARK INTRA:                  -0.654
REMARK UNBOUND:                -0.649
REMARK  Name = 
REMARK  3 active torsions:
REMARK  status: ('A' for Active; 'I' for Inactive)
REMARK    1  A    between atoms: N_5  and  C_6
REMARK    2  A    between atoms: C_6  and  C_7
REMARK    3  A    between atoms: C_11  and  N_12
REMARK                            x       y       z     vdW  Elec       q    Type
REMARK                         _______ _______ _______ _____ _____    ______ ____
ROOT
ATOM      1  C   UNL     1      44.902   4.733  11.248  0.00  0.00    +0.000 A 
ATOM      2  C   UNL     1      45.048   3.888  12.356  0.00  0.00    +0.000 A 
ATOM      3  C   UNL     1      45.878   4.255  13.407  0.00  0.00    +0.000 A 
ATOM      4  C   UNL     1      46.565   5.470  13.360  0.00  0.00    +0.000 A 
ATOM      5  C   UNL     1      46.442   6.353  12.273  0.00  0.00    +0.000 A 
ATOM      6  C   UNL     1      45.577   5.972  11.236  0.00  0.00    +0.000 A 
ENDROOT
BRANCH   5   7
ATOM      7  N   UNL     1      47.171   7.532  12.259  0.00  0.00    +0.000 N 
ATOM      8  C   UNL     1      48.521   7.620  11.701  0.00  0.00    +0.000 C 
ATOM      9  C   UNL     1      49.559   7.827  12.802  0.00  0.00    +0.000 C 
ATOM     10  C   UNL     1      49.182   8.992  13.715  0.00  0.00    +0.000 C 
ATOM     11  C   UNL     1      47.774   8.805  14.270  0.00  0.00    +0.000 C 
ATOM     12  C   UNL     1      46.756   8.627  13.144  0.00  0.00    +0.000 C 
ENDBRANCH   5   7
BRANCH   1  13
ATOM     13  C   UNL     1      44.092   4.272  10.058  0.00  0.00    +0.000 C 
BRANCH  13  18
ATOM     14  C   UNL     1      47.050   1.727   7.029  0.00  0.00    +0.000 A 
ATOM     15  C   UNL     1      46.264   1.458   8.120  0.00  0.00    +0.000 A 
ATOM     16  N   UNL     1      45.504   2.384   8.730  0.00  0.00    +0.000 NA
ATOM     17  C   UNL     1      45.540   3.642   8.256  0.00  0.00    +0.000 A 
ATOM     18  N   UNL     1      44.736   4.612   8.811  0.00  0.00    +0.000 N 
ATOM     19  N   UNL     1      46.306   4.004   7.212  0.00  0.00    +0.000 NA
ATOM     20  C   UNL     1      47.030   3.035   6.612  0.00  0.00    +0.000 A 
ATOM     21  H   UNL     1      45.104   5.542   8.675  0.00  0.00    +0.000 HD
ENDBRANCH  13  18
ENDBRANCH   1  13
TORSDOF 3
ENDMDL
MODEL 4
REMARK VINA RESULT:    -6.978      1.613      6.398
REMARK INTER + INTRA:          -8.851
REMARK INTER:                  -8.185
REMARK INTRA:                  -0.666
REMARK UNBOUND:                -0.649
REMARK  Name = 
REMARK  3 active torsions:
REMARK  status: ('A' for Active; 'I' for Inactive)
REMARK    1  A    between atoms: N_5  and  C_6
REMARK    2  A    between atoms: C_6  and  C_7
REMARK    3  A    between atoms: C_11  and  N_12
REMARK                            x       y       z     vdW  Elec       q    Type
REMARK                         _______ _______ _______ _____ _____    ______ ____
ROOT
ATOM      1  C   UNL     1      44.739   5.186  11.870  0.00  0.00    +0.000 A 
ATOM      2  C   UNL     1      44.026   4.416  12.799  0.00  0.00    +0.000 A 
ATOM      3  C   UNL     1      43.548   3.162  12.444  0.00  0.00    +0.000 A 
ATOM      4  C   UNL     1      43.781   2.667  11.159  0.00  0.00    +0.000 A 
ATOM      5  C   UNL     1      44.498   3.400  10.197  0.00  0.00    +0.000 A 
ATOM      6  C   UNL     1      44.994   4.653  10.589  0.00  0.00    +0.000 A 
ENDROOT
BRANCH   5   7
ATOM      7  N   UNL     1      44.673   2.878   8.925  0.00  0.00    +0.000 N 
ATOM      8  C   UNL     1      45.001   1.472   8.686  0.00  0.00    +0.000 C 
ATOM      9  C   UNL     1      46.432   1.321   8.171  0.00  0.00    +0.000 C 
ATOM     10  C   UNL     1      46.698   2.238   6.978  0.00  0.00    +0.000 C 
ATOM     11  C   UNL     1      46.353   3.682   7.325  0.00  0.00    +0.000 C 
ATOM     12  C   UNL     1      44.909   3.804   7.811  0.00  0.00    +0.000 C 
ENDBRANCH   5   7
BRANCH   1  13
ATOM     13  C   UNL     1      45.151   6.595  12.226  0.00  0.00    +0.000 C 
BRANCH  13  18
ATOM     14  C   UNL     1      49.894   7.872  12.760  0.00  0.00    +0.000 A 
ATOM     15  C   UNL     1      48.935   7.968  11.784  0.00  0.00    +0.000 A 
ATOM     16  N   UNL     1      47.666   7.558  11.953  0.00  0.00    +0.000 NA
ATOM     17  C   UNL     1      47.332   7.003  13.131  0.00  0.00    +0.000 A 
ATOM     18  N   UNL     1      46.031   6.622  13.371  0.00  0.00    +0.000 N 
ATOM     19  N   UNL     1      48.214   6.839  14.133  0.00  0.00    +0.000 NA
ATOM     20  C   UNL     1      49.469   7.293  13.931  0.00  0.00    +0.000 A 
ATOM     21  H   UNL     1      45.965   5.896  14.069  0.00  0.00    +0.000 HD
ENDBRANCH  13  18
ENDBRANCH   1  13
TORSDOF 3
ENDMDL
MODEL 5
REMARK VINA RESULT:    -6.416      3.358      7.415
REMARK INTER + INTRA:          -8.190
REMARK INTER:                  -7.599
REMARK INTRA:                  -0.591
REMARK UNBOUND:                -0.649
REMARK  Name = 
REMARK  3 active torsions:
REMARK  status: ('A' for Active; 'I' for Inactive)
REMARK    1  A    between atoms: N_5  and  C_6
REMARK    2  A    between atoms: C_6  and  C_7
REMARK    3  A    between atoms: C_11  and  N_12
REMARK                            x       y       z     vdW  Elec       q    Type
REMARK                         _______ _______ _______ _____ _____    ______ ____
ROOT
ATOM      1  C   UNL     1      46.827   4.902  13.742  0.00  0.00    +0.000 A 
ATOM      2  C   UNL     1      47.472   6.140  13.626  0.00  0.00    +0.000 A 
ATOM      3  C   UNL     1      47.276   6.925  12.498  0.00  0.00    +0.000 A 
ATOM      4  C   UNL     1      46.432   6.480  11.479  0.00  0.00    +0.000 A 
ATOM      5  C   UNL     1      45.757   5.249  11.555  0.00  0.00    +0.000 A 
ATOM      6  C   UNL     1      45.950   4.486  12.717  0.00  0.00    +0.000 A 
ENDROOT
BRANCH   5   7
ATOM      7  N   UNL     1      44.955   4.837  10.502  0.00  0.00    +0.000 N 
ATOM      8  C   UNL     1      43.904   3.831  10.656  0.00  0.00    +0.000 C 
ATOM      9  C   UNL     1      44.278   2.532   9.944  0.00  0.00    +0.000 C 
ATOM     10  C   UNL     1      44.694   2.787   8.496  0.00  0.00    +0.000 C 
ATOM     11  C   UNL     1      45.807   3.827   8.433  0.00  0.00    +0.000 C 
ATOM     12  C   UNL     1      45.393   5.122   9.131  0.00  0.00    +0.000 C 
ENDBRANCH   5   7
BRANCH   1  13
ATOM     13  C   UNL     1      47.139   4.003  14.916  0.00  0.00    +0.000 C 
BRANCH  13  18
ATOM     14  C   UNL     1      49.931   4.554  18.954  0.00  0.00    +0.000 A 
ATOM     15  C   UNL     1      50.105   4.100  17.671  0.00  0.00    +0.000 A 
ATOM     16  N   UNL     1      49.131   4.118  16.743  0.00  0.00    +0.000 NA
ATOM     17  C   UNL     1      47.922   4.579  17.105  0.00  0.00    +0.000 A 
ATOM     18  N   UNL     1      46.911   4.670  16.175  0.00  0.00    +0.000 N 
ATOM     19  N   UNL     1      47.652   5.013  18.349  0.00  0.00    +0.000 NA
ATOM     20  C   UNL     1      48.667   5.007  19.240  0.00  0.00    +0.000 A 
ATOM     21  H   UNL     1      45.994   4.641  16.598  0.00  0.00    +0.000 HD
ENDBRANCH  13  18
ENDBRANCH   1  13
TORSDOF 3
ENDMDL
MODEL 6
REMARK VINA RESULT:    -6.205      4.148      7.282
REMARK INTER + INTRA:          -7.943
REMARK INTER:                  -7.313
REMARK INTRA:                  -0.629
REMARK UNBOUND:                -0.649
REMARK  Name = 
REMARK  3 active torsions:
REMARK  status: ('A' for Active; 'I' for Inactive)
REMARK    1  A    between atoms: N_5  and  C_6
REMARK    2  A    between atoms: C_6  and  C_7
REMARK    3  A    between atoms: C_11  and  N_12
REMARK                            x       y       z     vdW  Elec       q    Type
REMARK                         _______ _______ _______ _____ _____    ______ ____
ROOT
ATOM      1  C   UNL     1      47.345   4.990  15.314  0.00  0.00    +0.000 A 
ATOM      2  C   UNL     1      48.281   5.997  15.047  0.00  0.00    +0.000 A 
ATOM      3  C   UNL     1      48.321   6.596  13.795  0.00  0.00    +0.000 A 
ATOM      4  C   UNL     1      47.424   6.195  12.803  0.00  0.00    +0.000 A 
ATOM      5  C   UNL     1      46.463   5.195  13.028  0.00  0.00    +0.000 A 
ATOM      6  C   UNL     1      46.425   4.624  14.309  0.00  0.00    +0.000 A 
ENDROOT
BRANCH   5   7
ATOM      7  N   UNL     1      45.617   4.810  12.000  0.00  0.00    +0.000 N 
ATOM      8  C   UNL     1      44.907   5.773  11.158  0.00  0.00    +0.000 C 
ATOM      9  C   UNL     1      43.406   5.752  11.443  0.00  0.00    +0.000 C 
ATOM     10  C   UNL     1      42.844   4.332  11.381  0.00  0.00    +0.000 C 
ATOM     11  C   UNL     1      43.626   3.405  12.305  0.00  0.00    +0.000 C 
ATOM     12  C   UNL     1      45.119   3.429  11.978  0.00  0.00    +0.000 C 
ENDBRANCH   5   7
BRANCH   1  13
ATOM     13  C   UNL     1      47.388   4.262  16.638  0.00  0.00    +0.000 C 
BRANCH  13  18
ATOM     14  C   UNL     1      51.870   2.595  17.875  0.00  0.00    +0.000 A 
ATOM     15  C   UNL     1      51.128   3.726  18.094  0.00  0.00    +0.000 A 
ATOM     16  N   UNL     1      49.867   3.880  17.653  0.00  0.00    +0.000 NA
ATOM     17  C   UNL     1      49.321   2.880  16.939  0.00  0.00    +0.000 A 
ATOM     18  N   UNL     1      48.014   2.967  16.516  0.00  0.00    +0.000 N 
ATOM     19  N   UNL     1      49.986   1.748  16.648  0.00  0.00    +0.000 NA
ATOM     20  C   UNL     1      51.239   1.624  17.137  0.00  0.00    +0.000 A 
ATOM     21  H   UNL     1      47.834   2.399  15.701  0.00  0.00    +0.000 HD
ENDBRANCH  13  18
ENDBRANCH   1  13
TORSDOF 3
ENDMDL
MODEL 7
REMARK VINA RESULT:    -6.148      2.524      3.627
REMARK INTER + INTRA:          -7.876
REMARK INTER:                  -7.319
REMARK INTRA:                  -0.557
REMARK UNBOUND:                -0.649
REMARK  Name = 
REMARK  3 active torsions:
REMARK  status: ('A' for Active; 'I' for Inactive)
REMARK    1  A    between atoms: N_5  and  C_6
REMARK    2  A    between atoms: C_6  and  C_7
REMARK    3  A    between atoms: C_11  and  N_12
REMARK                            x       y       z     vdW  Elec       q    Type
REMARK                         _______ _______ _______ _____ _____    ______ ____
ROOT
ATOM      1  C   UNL     1      45.065   6.991  11.554  0.00  0.00    +0.000 A 
ATOM      2  C   UNL     1      46.017   7.134  12.571  0.00  0.00    +0.000 A 
ATOM      3  C   UNL     1      46.285   8.388  13.103  0.00  0.00    +0.000 A 
ATOM      4  C   UNL     1      45.600   9.507  12.625  0.00  0.00    +0.000 A 
ATOM      5  C   UNL     1      44.630   9.410  11.613  0.00  0.00    +0.000 A 
ATOM      6  C   UNL     1      44.358   8.129  11.110  0.00  0.00    +0.000 A 
ENDROOT
BRANCH   5   7
ATOM      7  N   UNL     1      44.001  10.556  11.149  0.00  0.00    +0.000 N 
ATOM      8  C   UNL     1      42.620  10.894  11.494  0.00  0.00    +0.000 C 
ATOM      9  C   UNL     1      41.702  10.759  10.280  0.00  0.00    +0.000 C 
ATOM     10  C   UNL     1      42.251  11.522   9.076  0.00  0.00    +0.000 C 
ATOM     11  C   UNL     1      43.682  11.089   8.774  0.00  0.00    +0.000 C 
ATOM     12  C   UNL     1      44.580  11.260   9.999  0.00  0.00    +0.000 C 
ENDBRANCH   5   7
BRANCH   1  13
ATOM     13  C   UNL     1      44.866   5.643  10.899  0.00  0.00    +0.000 C 
BRANCH  13  18
ATOM     14  C   UNL     1      46.031   1.984   7.791  0.00  0.00    +0.000 A 
ATOM     15  C   UNL     1      45.422   2.103   9.014  0.00  0.00    +0.000 A 
ATOM     16  N   UNL     1      45.192   3.284   9.613  0.00  0.00    +0.000 NA
ATOM     17  C   UNL     1      45.607   4.400   8.989  0.00  0.00    +0.000 A 
ATOM     18  N   UNL     1      45.343   5.636   9.537  0.00  0.00    +0.000 N 
ATOM     19  N   UNL     1      46.242   4.377   7.804  0.00  0.00    +0.000 NA
ATOM     20  C   UNL     1      46.424   3.172   7.224  0.00  0.00    +0.000 A 
ATOM     21  H   UNL     1      46.000   6.340   9.233  0.00  0.00    +0.000 HD
ENDBRANCH  13  18
ENDBRANCH   1  13
TORSDOF 3
ENDMDL
MODEL 8
REMARK VINA RESULT:    -6.092      2.779      6.917
REMARK INTER + INTRA:          -7.810
REMARK INTER:                  -7.071
REMARK INTRA:                  -0.739
REMARK UNBOUND:                -0.649
REMARK  Name = 
REMARK  3 active torsions:
REMARK  status: ('A' for Active; 'I' for Inactive)
REMARK    1  A    between atoms: N_5  and  C_6
REMARK    2  A    between atoms: C_6  and  C_7
REMARK    3  A    between atoms: C_11  and  N_12
REMARK                            x       y       z     vdW  Elec       q    Type
REMARK                         _______ _______ _______ _____ _____    ______ ____
ROOT
ATOM      1  C   UNL     1      47.310   7.100  13.517  0.00  0.00    +0.000 A 
ATOM      2  C   UNL     1      47.139   8.475  13.308  0.00  0.00    +0.000 A 
ATOM      3  C   UNL     1      46.021   8.942  12.629  0.00  0.00    +0.000 A 
ATOM      4  C   UNL     1      45.066   8.040  12.157  0.00  0.00    +0.000 A 
ATOM      5  C   UNL     1      45.191   6.654  12.351  0.00  0.00    +0.000 A 
ATOM      6  C   UNL     1      46.315   6.208  13.063  0.00  0.00    +0.000 A 
ENDROOT
BRANCH   5   7
ATOM      7  N   UNL     1      44.231   5.797  11.834  0.00  0.00    +0.000 N 
ATOM      8  C   UNL     1      43.156   5.231  12.649  0.00  0.00    +0.000 C 
ATOM      9  C   UNL     1      43.355   3.731  12.859  0.00  0.00    +0.000 C 
ATOM     10  C   UNL     1      43.584   3.006  11.533  0.00  0.00    +0.000 C 
ATOM     11  C   UNL     1      44.736   3.646  10.764  0.00  0.00    +0.000 C 
ATOM     12  C   UNL     1      44.494   5.139  10.548  0.00  0.00    +0.000 C 
ENDBRANCH   5   7
BRANCH   1  13
ATOM     13  C   UNL     1      48.585   6.592  14.150  0.00  0.00    +0.000 C 
BRANCH  13  18
ATOM     14  C   UNL     1      47.631   3.302  17.709  0.00  0.00    +0.000 A 
ATOM     15  C   UNL     1      47.859   3.276  16.357  0.00  0.00    +0.000 A 
ATOM     16  N   UNL     1      48.151   4.373  15.636  0.00  0.00    +0.000 NA
ATOM     17  C   UNL     1      48.194   5.555  16.274  0.00  0.00    +0.000 A 
ATOM     18  N   UNL     1      48.545   6.697  15.589  0.00  0.00    +0.000 N 
ATOM     19  N   UNL     1      47.951   5.680  17.590  0.00  0.00    +0.000 NA
ATOM     20  C   UNL     1      47.692   4.549  18.281  0.00  0.00    +0.000 A 
ATOM     21  H   UNL     1      48.178   7.533  16.020  0.00  0.00    +0.000 HD
ENDBRANCH  13  18
ENDBRANCH   1  13
TORSDOF 3
ENDMDL
MODEL 9
REMARK VINA RESULT:    -5.868      4.782      6.499
REMARK INTER + INTRA:          -7.546
REMARK INTER:                  -7.005
REMARK INTRA:                  -0.541
REMARK UNBOUND:                -0.649
REMARK  Name = 
REMARK  3 active torsions:
REMARK  status: ('A' for Active; 'I' for Inactive)
REMARK    1  A    between atoms: N_5  and  C_6
REMARK    2  A    between atoms: C_6  and  C_7
REMARK    3  A    between atoms: C_11  and  N_12
REMARK                            x       y       z     vdW  Elec       q    Type
REMARK                         _______ _______ _______ _____ _____    ______ ____
ROOT
ATOM      1  C   UNL     1      47.586   4.309  15.900  0.00  0.00    +0.000 A 
ATOM      2  C   UNL     1      48.018   2.978  15.976  0.00  0.00    +0.000 A 
ATOM      3  C   UNL     1      48.685   2.526  17.106  0.00  0.00    +0.000 A 
ATOM      4  C   UNL     1      48.923   3.398  18.169  0.00  0.00    +0.000 A 
ATOM      5  C   UNL     1      48.501   4.739  18.142  0.00  0.00    +0.000 A 
ATOM      6  C   UNL     1      47.805   5.165  17.000  0.00  0.00    +0.000 A 
ENDROOT
BRANCH   5   7
ATOM      7  N   UNL     1      48.791   5.574  19.209  0.00  0.00    +0.000 N 
ATOM      8  C   UNL     1      48.702   5.135  20.602  0.00  0.00    +0.000 C 
ATOM      9  C   UNL     1      47.531   5.807  21.317  0.00  0.00    +0.000 C 
ATOM     10  C   UNL     1      47.563   7.325  21.139  0.00  0.00    +0.000 C 
ATOM     11  C   UNL     1      47.630   7.690  19.660  0.00  0.00    +0.000 C 
ATOM     12  C   UNL     1      48.825   7.023  18.980  0.00  0.00    +0.000 C 
ENDBRANCH   5   7
BRANCH   1  13
ATOM     13  C   UNL     1      46.968   4.823  14.620  0.00  0.00    +0.000 C 
BRANCH  13  18
ATOM     14  C   UNL     1      43.048   4.726  11.616  0.00  0.00    +0.000 A 
ATOM     15  C   UNL     1      43.811   5.683  12.235  0.00  0.00    +0.000 A 
ATOM     16  N   UNL     1      44.890   5.396  12.984  0.00  0.00    +0.000 NA
ATOM     17  C   UNL     1      45.216   4.103  13.153  0.00  0.00    +0.000 A 
ATOM     18  N   UNL     1      46.345   3.763  13.864  0.00  0.00    +0.000 N 
ATOM     19  N   UNL     1      44.506   3.098  12.612  0.00  0.00    +0.000 NA
ATOM     20  C   UNL     1      43.449   3.433  11.841  0.00  0.00    +0.000 A 
ATOM     21  H   UNL     1      46.288   2.835  14.257  0.00  0.00    +0.000 HD
ENDBRANCH  13  18
ENDBRANCH   1  13
TORSDOF 3
ENDMDL
