MODEL 1
REMARK VINA RESULT:    -8.254      0.000      0.000
REMARK INTER + INTRA:         -12.374
REMARK INTER:                 -11.632
REMARK INTRA:                  -0.742
REMARK UNBOUND:                -0.742
REMARK  Name = 
REMARK  10 active torsions:
REMARK  status: ('A' for Active; 'I' for Inactive)
REMARK    1  A    between atoms: C_1  and  C_2
REMARK    2  A    between atoms: C_4  and  C_5
REMARK    3  A    between atoms: C_5  and  N_6
REMARK    4  A    between atoms: N_6  and  C_7
REMARK    5  A    between atoms: N_6  and  C_8
REMARK    6  A    between atoms: C_8  and  C_9
REMARK    7  A    between atoms: C_17  and  C_18
REMARK    8  A    between atoms: C_18  and  N_19
REMARK    9  A    between atoms: N_19  and  C_20
REMARK   10  A    between atoms: C_21  and  C_23
REMARK                            x       y       z     vdW  Elec       q    Type
REMARK                         _______ _______ _______ _____ _____    ______ ____
ROOT
ATOM      1  C   UNL     1      48.355   7.984  11.819  0.00  0.00    +0.000 C 
ATOM      2  C   UNL     1      47.428   6.983  12.461  0.00  0.00    +0.000 A 
ATOM      3  C   UNL     1      46.296   6.654  11.688  0.00  0.00    +0.000 A 
ATOM      4  C   UNL     1      45.511   5.533  11.959  0.00  0.00    +0.000 A 
ATOM      5  C   UNL     1      45.793   4.796  13.109  0.00  0.00    +0.000 A 
ATOM      6  C   UNL     1      46.847   5.175  13.956  0.00  0.00    +0.000 A 
ATOM      7  C   UNL     1      47.705   6.255  13.644  0.00  0.00    +0.000 A 
ENDROOT
BRANCH   4   8
ATOM      8  C   UNL     1      44.491   5.092  10.927  0.00  0.00    +0.000 C 
BRANCH   8   9
ATOM      9  N   UNL     1      44.547   3.666  10.562  0.00  0.00    +0.000 NA
ATOM     10  C   UNL     1      43.493   2.921  11.265  0.00  0.00    +0.000 C 
BRANCH   9  11
ATOM     11  C   UNL     1      44.353   3.507   9.104  0.00  0.00    +0.000 C 
BRANCH  11  12
ATOM     12  C   UNL     1      45.529   2.898   8.364  0.00  0.00    +0.000 A 
ATOM     13  C   UNL     1      45.796   1.522   8.444  0.00  0.00    +0.000 A 
ATOM     14  C   UNL     1      46.839   0.957   7.707  0.00  0.00    +0.000 A 
ATOM     15  C   UNL     1      47.631   1.758   6.885  0.00  0.00    +0.000 A 
ATOM     16  C   UNL     1      47.391   3.122   6.808  0.00  0.00    +0.000 A 
ATOM     17  C   UNL     1      46.345   3.694   7.545  0.00  0.00    +0.000 A 
ENDBRANCH  11  12
ENDBRANCH   9  11
ENDBRANCH   8   9
ENDBRANCH   4   8
BRANCH   7  18
ATOM     18  C   UNL     1      48.940   6.454  14.528  0.00  0.00    +0.000 C 
BRANCH  18  19
ATOM     19  N   UNL     1      48.707   6.629  15.979  0.00  0.00    +0.000 N 
ATOM     20  C   UNL     1      48.843   7.974  16.505  0.00  0.00    +0.000 C 
ATOM     21  C   UNL     1      48.769   5.496  16.827  0.00  0.00    +0.000 C 
ATOM     22  O   UNL     1      48.962   4.372  16.376  0.00  0.00    +0.000 OA
BRANCH  21  23
ATOM     23  C   UNL     1      48.546   5.674  18.286  0.00  0.00    +0.000 A 
ATOM     24  C   UNL     1      47.317   5.994  18.846  0.00  0.00    +0.000 A 
ATOM     25  S   UNL     1      47.334   6.124  20.546  0.00  0.00    +0.000 S 
ATOM     26  C   UNL     1      48.946   5.587  20.619  0.00  0.00    +0.000 A 
ATOM     27  N   UNL     1      49.549   5.363  21.818  0.00  0.00    +0.000 NA
ATOM     28  C   UNL     1      50.744   4.895  21.731  0.00  0.00    +0.000 A 
ATOM     29  N   UNL     1      51.409   4.671  20.555  0.00  0.00    +0.000 N 
ATOM     30  C   UNL     1      50.889   5.014  19.326  0.00  0.00    +0.000 A 
ATOM     31  O   UNL     1      51.598   5.027  18.330  0.00  0.00    +0.000 OA
ATOM     32  C   UNL     1      49.492   5.421  19.360  0.00  0.00    +0.000 A 
ATOM     33  H   UNL     1      52.372   4.377  20.553  0.00  0.00    +0.000 HD
ENDBRANCH  21  23
ENDBRANCH  18  19
ENDBRANCH   7  18
TORSDOF 7
ENDMDL
MODEL 2
REMARK VINA RESULT:    -8.183      1.663      2.027
REMARK INTER + INTRA:         -12.273
REMARK INTER:                 -11.275
REMARK INTRA:                  -0.999
REMARK UNBOUND:                -0.742
REMARK  Name = 
REMARK  10 active torsions:
REMARK  status: ('A' for Active; 'I' for Inactive)
REMARK    1  A    between atoms: C_1  and  C_2
REMARK    2  A    between atoms: C_4  and  C_5
REMARK    3  A    between atoms: C_5  and  N_6
REMARK    4  A    between atoms: N_6  and  C_7
REMARK    5  A    between atoms: N_6  and  C_8
REMARK    6  A    between atoms: C_8  and  C_9
REMARK    7  A    between atoms: C_17  and  C_18
REMARK    8  A    between atoms: C_18  and  N_19
REMARK    9  A    between atoms: N_19  and  C_20
REMARK   10  A    between atoms: C_21  and  C_23
REMARK                            x       y       z     vdW  Elec       q    Type
REMARK                         _______ _______ _______ _____ _____    ______ ____
ROOT
ATOM      1  C   UNL     1      46.810   9.410  12.480  0.00  0.00    +0.000 C 
ATOM      2  C   UNL     1      46.592   7.967  12.856  0.00  0.00    +0.000 A 
ATOM      3  C   UNL     1      45.457   7.374  12.267  0.00  0.00    +0.000 A 
ATOM      4  C   UNL     1      45.273   5.991  12.234  0.00  0.00    +0.000 A 
ATOM      5  C   UNL     1      46.186   5.190  12.919  0.00  0.00    +0.000 A 
ATOM      6  C   UNL     1      47.263   5.771  13.610  0.00  0.00    +0.000 A 
ATOM      7  C   UNL     1      47.510   7.163  13.575  0.00  0.00    +0.000 A 
ENDROOT
BRANCH   4   8
ATOM      8  C   UNL     1      44.183   5.422  11.346  0.00  0.00    +0.000 C 
BRANCH   8   9
ATOM      9  N   UNL     1      44.450   4.076  10.813  0.00  0.00    +0.000 NA
ATOM     10  C   UNL     1      43.511   3.106  11.394  0.00  0.00    +0.000 C 
BRANCH   9  11
ATOM     11  C   UNL     1      44.291   4.071   9.341  0.00  0.00    +0.000 C 
BRANCH  11  12
ATOM     12  C   UNL     1      45.339   3.276   8.587  0.00  0.00    +0.000 A 
ATOM     13  C   UNL     1      45.467   1.891   8.776  0.00  0.00    +0.000 A 
ATOM     14  C   UNL     1      46.388   1.154   8.029  0.00  0.00    +0.000 A 
ATOM     15  C   UNL     1      47.197   1.791   7.088  0.00  0.00    +0.000 A 
ATOM     16  C   UNL     1      47.096   3.162   6.901  0.00  0.00    +0.000 A 
ATOM     17  C   UNL     1      46.172   3.906   7.648  0.00  0.00    +0.000 A 
ENDBRANCH  11  12
ENDBRANCH   9  11
ENDBRANCH   8   9
ENDBRANCH   4   8
BRANCH   7  18
ATOM     18  C   UNL     1      48.820   7.664  14.191  0.00  0.00    +0.000 C 
BRANCH  18  19
ATOM     19  N   UNL     1      48.842   7.854  15.658  0.00  0.00    +0.000 N 
ATOM     20  C   UNL     1      48.332   9.117  16.160  0.00  0.00    +0.000 C 
ATOM     21  C   UNL     1      49.688   7.035  16.446  0.00  0.00    +0.000 C 
ATOM     22  O   UNL     1      50.361   6.142  15.942  0.00  0.00    +0.000 OA
BRANCH  21  23
ATOM     23  C   UNL     1      49.719   7.235  17.919  0.00  0.00    +0.000 A 
ATOM     24  C   UNL     1      50.576   8.118  18.561  0.00  0.00    +0.000 A 
ATOM     25  S   UNL     1      50.393   8.166  20.255  0.00  0.00    +0.000 S 
ATOM     26  C   UNL     1      49.042   7.136  20.187  0.00  0.00    +0.000 A 
ATOM     27  N   UNL     1      48.325   6.856  21.309  0.00  0.00    +0.000 NA
ATOM     28  C   UNL     1      47.290   6.120  21.107  0.00  0.00    +0.000 A 
ATOM     29  N   UNL     1      46.928   5.602  19.892  0.00  0.00    +0.000 N 
ATOM     30  C   UNL     1      47.699   5.745  18.759  0.00  0.00    +0.000 A 
ATOM     31  O   UNL     1      47.475   5.073  17.763  0.00  0.00    +0.000 OA
ATOM     32  C   UNL     1      48.807   6.678  18.904  0.00  0.00    +0.000 A 
ATOM     33  H   UNL     1      46.150   4.968  19.812  0.00  0.00    +0.000 HD
ENDBRANCH  21  23
ENDBRANCH  18  19
ENDBRANCH   7  18
TORSDOF 7
ENDMDL
MODEL 3
REMARK VINA RESULT:    -7.913      1.671      2.273
REMARK INTER + INTRA:         -11.893
REMARK INTER:                 -11.031
REMARK INTRA:                  -0.863
REMARK UNBOUND:                -0.742
REMARK  Name = 
REMARK  10 active torsions:
REMARK  status: ('A' for Active; 'I' for Inactive)
REMARK    1  A    between atoms: C_1  and  C_2
REMARK    2  A    between atoms: C_4  and  C_5
REMARK    3  A    between atoms: C_5  and  N_6
REMARK    4  A    between atoms: N_6  and  C_7
REMARK    5  A    between atoms: N_6  and  C_8
REMARK    6  A    between atoms: C_8  and  C_9
REMARK    7  A    between atoms: C_17  and  C_18
REMARK    8  A    between atoms: C_18  and  N_19
REMARK    9  A    between atoms: N_19  and  C_20
REMARK   10  A    between atoms: C_21  and  C_23
REMARK                            x       y       z     vdW  Elec       q    Type
REMARK                         _______ _______ _______ _____ _____    ______ ____
ROOT
ATOM      1  C   UNL     1      47.441   4.751  15.160  0.00  0.00    +0.000 C 
ATOM      2  C   UNL     1      47.352   5.399  13.802  0.00  0.00    +0.000 A 
ATOM      3  C   UNL     1      46.269   4.960  13.014  0.00  0.00    +0.000 A 
ATOM      4  C   UNL     1      45.839   5.659  11.886  0.00  0.00    +0.000 A 
ATOM      5  C   UNL     1      46.591   6.755  11.465  0.00  0.00    +0.000 A 
ATOM      6  C   UNL     1      47.742   7.141  12.173  0.00  0.00    +0.000 A 
ATOM      7  C   UNL     1      48.136   6.496  13.367  0.00  0.00    +0.000 A 
ENDROOT
BRANCH   4   8
ATOM      8  C   UNL     1      44.509   5.285  11.260  0.00  0.00    +0.000 C 
BRANCH   8   9
ATOM      9  N   UNL     1      44.412   3.896  10.780  0.00  0.00    +0.000 NA
ATOM     10  C   UNL     1      43.262   3.224  11.401  0.00  0.00    +0.000 C 
BRANCH   9  11
ATOM     11  C   UNL     1      44.240   3.877   9.310  0.00  0.00    +0.000 C 
BRANCH  11  12
ATOM     12  C   UNL     1      45.312   3.121   8.549  0.00  0.00    +0.000 A 
ATOM     13  C   UNL     1      45.491   1.742   8.736  0.00  0.00    +0.000 A 
ATOM     14  C   UNL     1      46.434   1.039   7.983  0.00  0.00    +0.000 A 
ATOM     15  C   UNL     1      47.214   1.705   7.038  0.00  0.00    +0.000 A 
ATOM     16  C   UNL     1      47.061   3.072   6.853  0.00  0.00    +0.000 A 
ATOM     17  C   UNL     1      46.115   3.781   7.606  0.00  0.00    +0.000 A 
ENDBRANCH  11  12
ENDBRANCH   9  11
ENDBRANCH   8   9
ENDBRANCH   4   8
BRANCH   7  18
ATOM     18  C   UNL     1      49.284   7.124  14.164  0.00  0.00    +0.000 C 
BRANCH  18  19
ATOM     19  N   UNL     1      48.964   7.630  15.517  0.00  0.00    +0.000 N 
ATOM     20  C   UNL     1      48.113   8.803  15.591  0.00  0.00    +0.000 C 
ATOM     21  C   UNL     1      49.780   7.241  16.608  0.00  0.00    +0.000 C 
ATOM     22  O   UNL     1      50.712   6.457  16.460  0.00  0.00    +0.000 OA
BRANCH  21  23
ATOM     23  C   UNL     1      49.465   7.760  17.966  0.00  0.00    +0.000 A 
ATOM     24  C   UNL     1      49.716   9.063  18.372  0.00  0.00    +0.000 A 
ATOM     25  S   UNL     1      49.243   9.400  19.974  0.00  0.00    +0.000 S 
ATOM     26  C   UNL     1      48.525   7.868  20.137  0.00  0.00    +0.000 A 
ATOM     27  N   UNL     1      47.827   7.543  21.259  0.00  0.00    +0.000 NA
ATOM     28  C   UNL     1      47.279   6.381  21.225  0.00  0.00    +0.000 A 
ATOM     29  N   UNL     1      47.400   5.493  20.189  0.00  0.00    +0.000 N 
ATOM     30  C   UNL     1      48.208   5.724  19.097  0.00  0.00    +0.000 A 
ATOM     31  O   UNL     1      48.482   4.820  18.321  0.00  0.00    +0.000 OA
ATOM     32  C   UNL     1      48.743   7.076  19.025  0.00  0.00    +0.000 A 
ATOM     33  H   UNL     1      47.011   4.566  20.255  0.00  0.00    +0.000 HD
ENDBRANCH  21  23
ENDBRANCH  18  19
ENDBRANCH   7  18
TORSDOF 7
ENDMDL
MODEL 4
REMARK VINA RESULT:    -6.748      3.475      8.402
REMARK INTER + INTRA:         -10.252
REMARK INTER:                  -8.259
REMARK INTRA:                  -1.993
REMARK UNBOUND:                -0.742
REMARK  Name = 
REMARK  10 active torsions:
REMARK  status: ('A' for Active; 'I' for Inactive)
REMARK    1  A    between atoms: C_1  and  C_2
REMARK    2  A    between atoms: C_4  and  C_5
REMARK    3  A    between atoms: C_5  and  N_6
REMARK    4  A    between atoms: N_6  and  C_7
REMARK    5  A    between atoms: N_6  and  C_8
REMARK    6  A    between atoms: C_8  and  C_9
REMARK    7  A    between atoms: C_17  and  C_18
REMARK    8  A    between atoms: C_18  and  N_19
REMARK    9  A    between atoms: N_19  and  C_20
REMARK   10  A    between atoms: C_21  and  C_23
REMARK                            x       y       z     vdW  Elec       q    Type
REMARK                         _______ _______ _______ _____ _____    ______ ____
ROOT
ATOM      1  C   UNL     1      49.452  10.903  15.845  0.00  0.00    +0.000 C 
ATOM      2  C   UNL     1      50.043   9.517  15.884  0.00  0.00    +0.000 A 
ATOM      3  C   UNL     1      50.425   9.079  17.169  0.00  0.00    +0.000 A 
ATOM      4  C   UNL     1      50.683   7.737  17.450  0.00  0.00    +0.000 A 
ATOM      5  C   UNL     1      50.682   6.831  16.390  0.00  0.00    +0.000 A 
ATOM      6  C   UNL     1      50.416   7.268  15.082  0.00  0.00    +0.000 A 
ATOM      7  C   UNL     1      50.065   8.608  14.798  0.00  0.00    +0.000 A 
ENDROOT
BRANCH   4   8
ATOM      8  C   UNL     1      50.810   7.309  18.899  0.00  0.00    +0.000 C 
BRANCH   8   9
ATOM      9  N   UNL     1      51.268   5.925  19.104  0.00  0.00    +0.000 NA
ATOM     10  C   UNL     1      52.382   5.896  20.063  0.00  0.00    +0.000 C 
BRANCH   9  11
ATOM     11  C   UNL     1      50.162   5.096  19.633  0.00  0.00    +0.000 C 
BRANCH  11  12
ATOM     12  C   UNL     1      49.542   4.142  18.631  0.00  0.00    +0.000 A 
ATOM     13  C   UNL     1      48.158   4.137  18.402  0.00  0.00    +0.000 A 
ATOM     14  C   UNL     1      47.600   3.304  17.430  0.00  0.00    +0.000 A 
ATOM     15  C   UNL     1      48.418   2.461  16.678  0.00  0.00    +0.000 A 
ATOM     16  C   UNL     1      49.786   2.440  16.903  0.00  0.00    +0.000 A 
ATOM     17  C   UNL     1      50.350   3.276  17.877  0.00  0.00    +0.000 A 
ENDBRANCH  11  12
ENDBRANCH   9  11
ENDBRANCH   8   9
ENDBRANCH   4   8
BRANCH   7  18
ATOM     18  C   UNL     1      49.599   8.930  13.375  0.00  0.00    +0.000 C 
BRANCH  18  19
ATOM     19  N   UNL     1      48.554   8.057  12.797  0.00  0.00    +0.000 N 
ATOM     20  C   UNL     1      48.800   7.538  11.464  0.00  0.00    +0.000 C 
ATOM     21  C   UNL     1      47.248   8.090  13.345  0.00  0.00    +0.000 C 
ATOM     22  O   UNL     1      46.982   8.788  14.317  0.00  0.00    +0.000 OA
BRANCH  21  23
ATOM     23  C   UNL     1      46.195   7.220  12.755  0.00  0.00    +0.000 A 
ATOM     24  C   UNL     1      45.238   7.668  11.856  0.00  0.00    +0.000 A 
ATOM     25  S   UNL     1      44.159   6.461  11.322  0.00  0.00    +0.000 S 
ATOM     26  C   UNL     1      45.033   5.251  12.138  0.00  0.00    +0.000 A 
ATOM     27  N   UNL     1      44.696   3.940  12.001  0.00  0.00    +0.000 NA
ATOM     28  C   UNL     1      45.478   3.125  12.616  0.00  0.00    +0.000 A 
ATOM     29  N   UNL     1      46.541   3.502  13.393  0.00  0.00    +0.000 N 
ATOM     30  C   UNL     1      46.833   4.820  13.671  0.00  0.00    +0.000 A 
ATOM     31  O   UNL     1      47.627   5.110  14.553  0.00  0.00    +0.000 OA
ATOM     32  C   UNL     1      46.063   5.780  12.893  0.00  0.00    +0.000 A 
ATOM     33  H   UNL     1      47.069   2.820  13.913  0.00  0.00    +0.000 HD
ENDBRANCH  21  23
ENDBRANCH  18  19
ENDBRANCH   7  18
TORSDOF 7
ENDMDL
MODEL 5
REMARK VINA RESULT:    -6.249      2.289      2.604
REMARK INTER + INTRA:          -9.548
REMARK INTER:                  -9.581
REMARK INTRA:                   0.034
REMARK UNBOUND:                -0.742
REMARK  Name = 
REMARK  10 active torsions:
REMARK  status: ('A' for Active; 'I' for Inactive)
REMARK    1  A    between atoms: C_1  and  C_2
REMARK    2  A    between atoms: C_4  and  C_5
REMARK    3  A    between atoms: C_5  and  N_6
REMARK    4  A    between atoms: N_6  and  C_7
REMARK    5  A    between atoms: N_6  and  C_8
REMARK    6  A    between atoms: C_8  and  C_9
REMARK    7  A    between atoms: C_17  and  C_18
REMARK    8  A    between atoms: C_18  and  N_19
REMARK    9  A    between atoms: N_19  and  C_20
REMARK   10  A    between atoms: C_21  and  C_23
REMARK                            x       y       z     vdW  Elec       q    Type
REMARK                         _______ _______ _______ _____ _____    ______ ____
ROOT
ATOM      1  C   UNL     1      48.244   7.656  11.844  0.00  0.00    +0.000 C 
ATOM      2  C   UNL     1      47.628   6.713  12.846  0.00  0.00    +0.000 A 
ATOM      3  C   UNL     1      46.627   5.871  12.318  0.00  0.00    +0.000 A 
ATOM      4  C   UNL     1      46.179   4.735  12.993  0.00  0.00    +0.000 A 
ATOM      5  C   UNL     1      46.655   4.507  14.284  0.00  0.00    +0.000 A 
ATOM      6  C   UNL     1      47.568   5.397  14.873  0.00  0.00    +0.000 A 
ATOM      7  C   UNL     1      48.097   6.502  14.166  0.00  0.00    +0.000 A 
ENDROOT
BRANCH   4   8
ATOM      8  C   UNL     1      45.316   3.737  12.245  0.00  0.00    +0.000 C 
BRANCH   8   9
ATOM      9  N   UNL     1      43.912   4.139  12.062  0.00  0.00    +0.000 NA
ATOM     10  C   UNL     1      43.614   5.326  12.877  0.00  0.00    +0.000 C 
BRANCH   9  11
ATOM     11  C   UNL     1      43.656   4.460  10.640  0.00  0.00    +0.000 C 
BRANCH  11  12
ATOM     12  C   UNL     1      44.578   3.773   9.652  0.00  0.00    +0.000 A 
ATOM     13  C   UNL     1      44.615   2.374   9.554  0.00  0.00    +0.000 A 
ATOM     14  C   UNL     1      45.417   1.749   8.596  0.00  0.00    +0.000 A 
ATOM     15  C   UNL     1      46.196   2.514   7.728  0.00  0.00    +0.000 A 
ATOM     16  C   UNL     1      46.184   3.898   7.822  0.00  0.00    +0.000 A 
ATOM     17  C   UNL     1      45.380   4.529   8.781  0.00  0.00    +0.000 A 
ENDBRANCH  11  12
ENDBRANCH   9  11
ENDBRANCH   8   9
ENDBRANCH   4   8
BRANCH   7  18
ATOM     18  C   UNL     1      49.233   7.287  14.828  0.00  0.00    +0.000 C 
BRANCH  18  19
ATOM     19  N   UNL     1      49.233   7.349  16.307  0.00  0.00    +0.000 N 
ATOM     20  C   UNL     1      49.682   6.162  17.010  0.00  0.00    +0.000 C 
ATOM     21  C   UNL     1      48.452   8.339  16.954  0.00  0.00    +0.000 C 
ATOM     22  O   UNL     1      47.819   9.171  16.314  0.00  0.00    +0.000 OA
BRANCH  21  23
ATOM     23  C   UNL     1      48.443   8.393  18.440  0.00  0.00    +0.000 A 
ATOM     24  C   UNL     1      47.400   7.921  19.224  0.00  0.00    +0.000 A 
ATOM     25  S   UNL     1      47.652   8.090  20.901  0.00  0.00    +0.000 S 
ATOM     26  C   UNL     1      49.241   8.643  20.656  0.00  0.00    +0.000 A 
ATOM     27  N   UNL     1      50.068   8.870  21.712  0.00  0.00    +0.000 NA
ATOM     28  C   UNL     1      51.262   9.219  21.386  0.00  0.00    +0.000 A 
ATOM     29  N   UNL     1      51.694   9.406  20.100  0.00  0.00    +0.000 N 
ATOM     30  C   UNL     1      50.855   9.322  19.010  0.00  0.00    +0.000 A 
ATOM     31  O   UNL     1      51.213   9.730  17.914  0.00  0.00    +0.000 OA
ATOM     32  C   UNL     1      49.531   8.800  19.313  0.00  0.00    +0.000 A 
ATOM     33  H   UNL     1      52.620   9.755  19.911  0.00  0.00    +0.000 HD
ENDBRANCH  21  23
ENDBRANCH  18  19
ENDBRANCH   7  18
TORSDOF 7
ENDMDL
MODEL 6
REMARK VINA RESULT:    -6.176      3.847      9.410
REMARK INTER + INTRA:          -9.445
REMARK INTER:                  -7.478
REMARK INTRA:                  -1.967
REMARK UNBOUND:                -0.742
REMARK  Name = 
REMARK  10 active torsions:
REMARK  status: ('A' for Active; 'I' for Inactive)
REMARK    1  A    between atoms: C_1  and  C_2
REMARK    2  A    between atoms: C_4  and  C_5
REMARK    3  A    between atoms: C_5  and  N_6
REMARK    4  A    between atoms: N_6  and  C_7
REMARK    5  A    between atoms: N_6  and  C_8
REMARK    6  A    between atoms: C_8  and  C_9
REMARK    7  A    between atoms: C_17  and  C_18
REMARK    8  A    between atoms: C_18  and  N_19
REMARK    9  A    between atoms: N_19  and  C_20
REMARK   10  A    between atoms: C_21  and  C_23
REMARK                            x       y       z     vdW  Elec       q    Type
REMARK                         _______ _______ _______ _____ _____    ______ ____
ROOT
ATOM      1  C   UNL     1      52.152   8.754  16.538  0.00  0.00    +0.000 C 
ATOM      2  C   UNL     1      51.242   7.573  16.758  0.00  0.00    +0.000 A 
ATOM      3  C   UNL     1      51.278   7.043  18.065  0.00  0.00    +0.000 A 
ATOM      4  C   UNL     1      50.293   6.178  18.543  0.00  0.00    +0.000 A 
ATOM      5  C   UNL     1      49.318   5.734  17.650  0.00  0.00    +0.000 A 
ATOM      6  C   UNL     1      49.331   6.162  16.312  0.00  0.00    +0.000 A 
ATOM      7  C   UNL     1      50.270   7.108  15.839  0.00  0.00    +0.000 A 
ENDROOT
BRANCH   4   8
ATOM      8  C   UNL     1      50.248   5.877  20.029  0.00  0.00    +0.000 C 
BRANCH   8   9
ATOM      9  N   UNL     1      48.914   5.969  20.645  0.00  0.00    +0.000 NA
ATOM     10  C   UNL     1      48.785   4.980  21.725  0.00  0.00    +0.000 C 
BRANCH   9  11
ATOM     11  C   UNL     1      48.706   7.321  21.209  0.00  0.00    +0.000 C 
BRANCH  11  12
ATOM     12  C   UNL     1      48.615   8.436  20.184  0.00  0.00    +0.000 A 
ATOM     13  C   UNL     1      47.576   8.466  19.243  0.00  0.00    +0.000 A 
ATOM     14  C   UNL     1      47.459   9.530  18.346  0.00  0.00    +0.000 A 
ATOM     15  C   UNL     1      48.382  10.575  18.375  0.00  0.00    +0.000 A 
ATOM     16  C   UNL     1      49.426  10.553  19.288  0.00  0.00    +0.000 A 
ATOM     17  C   UNL     1      49.547   9.487  20.191  0.00  0.00    +0.000 A 
ENDBRANCH  11  12
ENDBRANCH   9  11
ENDBRANCH   8   9
ENDBRANCH   4   8
BRANCH   7  18
ATOM     18  C   UNL     1      50.069   7.656  14.423  0.00  0.00    +0.000 C 
BRANCH  18  19
ATOM     19  N   UNL     1      48.674   7.803  13.952  0.00  0.00    +0.000 N 
ATOM     20  C   UNL     1      47.853   8.781  14.640  0.00  0.00    +0.000 C 
ATOM     21  C   UNL     1      48.095   6.765  13.180  0.00  0.00    +0.000 C 
ATOM     22  O   UNL     1      48.742   5.775  12.856  0.00  0.00    +0.000 OA
BRANCH  21  23
ATOM     23  C   UNL     1      46.690   6.909  12.717  0.00  0.00    +0.000 A 
ATOM     24  C   UNL     1      46.251   7.930  11.885  0.00  0.00    +0.000 A 
ATOM     25  S   UNL     1      44.594   7.851  11.493  0.00  0.00    +0.000 S 
ATOM     26  C   UNL     1      44.430   6.352  12.278  0.00  0.00    +0.000 A 
ATOM     27  N   UNL     1      43.258   5.663  12.221  0.00  0.00    +0.000 NA
ATOM     28  C   UNL     1      43.289   4.514  12.798  0.00  0.00    +0.000 A 
ATOM     29  N   UNL     1      44.372   4.008  13.466  0.00  0.00    +0.000 N 
ATOM     30  C   UNL     1      45.530   4.728  13.667  0.00  0.00    +0.000 A 
ATOM     31  O   UNL     1      46.372   4.345  14.466  0.00  0.00    +0.000 OA
ATOM     32  C   UNL     1      45.594   5.976  12.922  0.00  0.00    +0.000 A 
ATOM     33  H   UNL     1      44.310   3.135  13.965  0.00  0.00    +0.000 HD
ENDBRANCH  21  23
ENDBRANCH  18  19
ENDBRANCH   7  18
TORSDOF 7
ENDMDL
MODEL 7
REMARK VINA RESULT:    -6.133      2.184      2.627
REMARK INTER + INTRA:          -9.384
REMARK INTER:                  -8.676
REMARK INTRA:                  -0.708
REMARK UNBOUND:                -0.742
REMARK  Name = 
REMARK  10 active torsions:
REMARK  status: ('A' for Active; 'I' for Inactive)
REMARK    1  A    between atoms: C_1  and  C_2
REMARK    2  A    between atoms: C_4  and  C_5
REMARK    3  A    between atoms: C_5  and  N_6
REMARK    4  A    between atoms: N_6  and  C_7
REMARK    5  A    between atoms: N_6  and  C_8
REMARK    6  A    between atoms: C_8  and  C_9
REMARK    7  A    between atoms: C_17  and  C_18
REMARK    8  A    between atoms: C_18  and  N_19
REMARK    9  A    between atoms: N_19  and  C_20
REMARK   10  A    between atoms: C_21  and  C_23
REMARK                            x       y       z     vdW  Elec       q    Type
REMARK                         _______ _______ _______ _____ _____    ______ ____
ROOT
ATOM      1  C   UNL     1      48.119   8.109  11.406  0.00  0.00    +0.000 C 
ATOM      2  C   UNL     1      47.315   7.202  12.302  0.00  0.00    +0.000 A 
ATOM      3  C   UNL     1      46.655   6.152  11.631  0.00  0.00    +0.000 A 
ATOM      4  C   UNL     1      46.141   5.045  12.307  0.00  0.00    +0.000 A 
ATOM      5  C   UNL     1      46.178   5.051  13.701  0.00  0.00    +0.000 A 
ATOM      6  C   UNL     1      46.730   6.141  14.394  0.00  0.00    +0.000 A 
ATOM      7  C   UNL     1      47.334   7.227  13.718  0.00  0.00    +0.000 A 
ENDROOT
BRANCH   4   8
ATOM      8  C   UNL     1      45.701   3.839  11.500  0.00  0.00    +0.000 C 
BRANCH   8   9
ATOM      9  N   UNL     1      44.331   3.911  10.964  0.00  0.00    +0.000 NA
ATOM     10  C   UNL     1      43.561   4.940  11.678  0.00  0.00    +0.000 C 
BRANCH   9  11
ATOM     11  C   UNL     1      44.365   4.253   9.525  0.00  0.00    +0.000 C 
BRANCH  11  12
ATOM     12  C   UNL     1      45.271   3.379   8.680  0.00  0.00    +0.000 A 
ATOM     13  C   UNL     1      46.127   3.942   7.722  0.00  0.00    +0.000 A 
ATOM     14  C   UNL     1      47.007   3.137   6.994  0.00  0.00    +0.000 A 
ATOM     15  C   UNL     1      47.039   1.760   7.210  0.00  0.00    +0.000 A 
ATOM     16  C   UNL     1      46.187   1.185   8.142  0.00  0.00    +0.000 A 
ATOM     17  C   UNL     1      45.303   1.989   8.875  0.00  0.00    +0.000 A 
ENDBRANCH  11  12
ENDBRANCH   9  11
ENDBRANCH   8   9
ENDBRANCH   4   8
BRANCH   7  18
ATOM     18  C   UNL     1      48.082   8.259  14.567  0.00  0.00    +0.000 C 
BRANCH  18  19
ATOM     19  N   UNL     1      49.369   7.835  15.161  0.00  0.00    +0.000 N 
ATOM     20  C   UNL     1      50.411   7.425  14.237  0.00  0.00    +0.000 C 
ATOM     21  C   UNL     1      49.408   7.464  16.527  0.00  0.00    +0.000 C 
ATOM     22  O   UNL     1      48.410   7.535  17.236  0.00  0.00    +0.000 OA
BRANCH  21  23
ATOM     23  C   UNL     1      50.701   7.026  17.120  0.00  0.00    +0.000 A 
ATOM     24  C   UNL     1      51.704   7.900  17.515  0.00  0.00    +0.000 A 
ATOM     25  S   UNL     1      53.076   7.137  18.178  0.00  0.00    +0.000 S 
ATOM     26  C   UNL     1      52.317   5.616  18.124  0.00  0.00    +0.000 A 
ATOM     27  N   UNL     1      52.920   4.519  18.657  0.00  0.00    +0.000 NA
ATOM     28  C   UNL     1      52.210   3.448  18.610  0.00  0.00    +0.000 A 
ATOM     29  N   UNL     1      50.968   3.361  18.039  0.00  0.00    +0.000 N 
ATOM     30  C   UNL     1      50.380   4.411  17.367  0.00  0.00    +0.000 A 
ATOM     31  O   UNL     1      49.394   4.229  16.667  0.00  0.00    +0.000 OA
ATOM     32  C   UNL     1      51.081   5.678  17.507  0.00  0.00    +0.000 A 
ATOM     33  H   UNL     1      50.494   2.476  17.964  0.00  0.00    +0.000 HD
ENDBRANCH  21  23
ENDBRANCH  18  19
ENDBRANCH   7  18
TORSDOF 7
ENDMDL
MODEL 8
REMARK VINA RESULT:    -5.944      2.276      2.955
REMARK INTER + INTRA:          -9.118
REMARK INTER:                  -8.904
REMARK INTRA:                  -0.214
REMARK UNBOUND:                -0.742
REMARK  Name = 
REMARK  10 active torsions:
REMARK  status: ('A' for Active; 'I' for Inactive)
REMARK    1  A    between atoms: C_1  and  C_2
REMARK    2  A    between atoms: C_4  and  C_5
REMARK    3  A    between atoms: C_5  and  N_6
REMARK    4  A    between atoms: N_6  and  C_7
REMARK    5  A    between atoms: N_6  and  C_8
REMARK    6  A    between atoms: C_8  and  C_9
REMARK    7  A    between atoms: C_17  and  C_18
REMARK    8  A    between atoms: C_18  and  N_19
REMARK    9  A    between atoms: N_19  and  C_20
REMARK   10  A    between atoms: C_21  and  C_23
REMARK                            x       y       z     vdW  Elec       q    Type
REMARK                         _______ _______ _______ _____ _____    ______ ____
ROOT
ATOM      1  C   UNL     1      47.601   7.750  12.821  0.00  0.00    +0.000 C 
ATOM      2  C   UNL     1      47.267   6.524  13.633  0.00  0.00    +0.000 A 
ATOM      3  C   UNL     1      46.444   5.590  12.970  0.00  0.00    +0.000 A 
ATOM      4  C   UNL     1      46.297   4.278  13.420  0.00  0.00    +0.000 A 
ATOM      5  C   UNL     1      46.888   3.930  14.635  0.00  0.00    +0.000 A 
ATOM      6  C   UNL     1      47.618   4.880  15.368  0.00  0.00    +0.000 A 
ATOM      7  C   UNL     1      47.849   6.186  14.879  0.00  0.00    +0.000 A 
ENDROOT
BRANCH   4   8
ATOM      8  C   UNL     1      45.629   3.266  12.510  0.00  0.00    +0.000 C 
BRANCH   8   9
ATOM      9  N   UNL     1      44.164   3.183  12.636  0.00  0.00    +0.000 NA
ATOM     10  C   UNL     1      43.629   4.441  13.175  0.00  0.00    +0.000 C 
BRANCH   9  11
ATOM     11  C   UNL     1      43.553   2.933  11.312  0.00  0.00    +0.000 C 
BRANCH  11  12
ATOM     12  C   UNL     1      44.473   3.158  10.128  0.00  0.00    +0.000 A 
ATOM     13  C   UNL     1      44.927   2.080   9.353  0.00  0.00    +0.000 A 
ATOM     14  C   UNL     1      45.720   2.301   8.225  0.00  0.00    +0.000 A 
ATOM     15  C   UNL     1      46.074   3.599   7.859  0.00  0.00    +0.000 A 
ATOM     16  C   UNL     1      45.647   4.675   8.624  0.00  0.00    +0.000 A 
ATOM     17  C   UNL     1      44.850   4.459   9.757  0.00  0.00    +0.000 A 
ENDBRANCH  11  12
ENDBRANCH   9  11
ENDBRANCH   8   9
ENDBRANCH   4   8
BRANCH   7  18
ATOM     18  C   UNL     1      48.824   7.071  15.661  0.00  0.00    +0.000 C 
BRANCH  18  19
ATOM     19  N   UNL     1      49.580   6.431  16.760  0.00  0.00    +0.000 N 
ATOM     20  C   UNL     1      48.944   6.413  18.064  0.00  0.00    +0.000 C 
ATOM     21  C   UNL     1      50.976   6.244  16.617  0.00  0.00    +0.000 C 
ATOM     22  O   UNL     1      51.560   6.555  15.585  0.00  0.00    +0.000 OA
BRANCH  21  23
ATOM     23  C   UNL     1      51.737   5.610  17.728  0.00  0.00    +0.000 A 
ATOM     24  C   UNL     1      51.985   4.248  17.815  0.00  0.00    +0.000 A 
ATOM     25  S   UNL     1      52.894   3.787  19.181  0.00  0.00    +0.000 S 
ATOM     26  C   UNL     1      53.142   5.410  19.623  0.00  0.00    +0.000 A 
ATOM     27  N   UNL     1      53.952   5.729  20.669  0.00  0.00    +0.000 NA
ATOM     28  C   UNL     1      54.107   6.992  20.855  0.00  0.00    +0.000 A 
ATOM     29  N   UNL     1      53.491   7.968  20.117  0.00  0.00    +0.000 N 
ATOM     30  C   UNL     1      52.558   7.691  19.141  0.00  0.00    +0.000 A 
ATOM     31  O   UNL     1      51.857   8.579  18.679  0.00  0.00    +0.000 OA
ATOM     32  C   UNL     1      52.448   6.280  18.803  0.00  0.00    +0.000 A 
ATOM     33  H   UNL     1      53.592   8.940  20.360  0.00  0.00    +0.000 HD
ENDBRANCH  21  23
ENDBRANCH  18  19
ENDBRANCH   7  18
TORSDOF 7
ENDMDL
MODEL 9
REMARK VINA RESULT:    -5.888      3.628      8.940
REMARK INTER + INTRA:          -9.039
REMARK INTER:                  -6.980
REMARK INTRA:                  -2.059
REMARK UNBOUND:                -0.742
REMARK  Name = 
REMARK  10 active torsions:
REMARK  status: ('A' for Active; 'I' for Inactive)
REMARK    1  A    between atoms: C_1  and  C_2
REMARK    2  A    between atoms: C_4  and  C_5
REMARK    3  A    between atoms: C_5  and  N_6
REMARK    4  A    between atoms: N_6  and  C_7
REMARK    5  A    between atoms: N_6  and  C_8
REMARK    6  A    between atoms: C_8  and  C_9
REMARK    7  A    between atoms: C_17  and  C_18
REMARK    8  A    between atoms: C_18  and  N_19
REMARK    9  A    between atoms: N_19  and  C_20
REMARK   10  A    between atoms: C_21  and  C_23
REMARK                            x       y       z     vdW  Elec       q    Type
REMARK                         _______ _______ _______ _____ _____    ______ ____
ROOT
ATOM      1  C   UNL     1      48.904  10.219  16.318  0.00  0.00    +0.000 C 
ATOM      2  C   UNL     1      50.059   9.289  16.047  0.00  0.00    +0.000 A 
ATOM      3  C   UNL     1      50.792   8.918  17.193  0.00  0.00    +0.000 A 
ATOM      4  C   UNL     1      51.673   7.836  17.193  0.00  0.00    +0.000 A 
ATOM      5  C   UNL     1      51.920   7.189  15.983  0.00  0.00    +0.000 A 
ATOM      6  C   UNL     1      51.285   7.617  14.805  0.00  0.00    +0.000 A 
ATOM      7  C   UNL     1      50.324   8.653  14.809  0.00  0.00    +0.000 A 
ENDROOT
BRANCH   4   8
ATOM      8  C   UNL     1      52.204   7.330  18.521  0.00  0.00    +0.000 C 
BRANCH   8   9
ATOM      9  N   UNL     1      51.871   5.931  18.836  0.00  0.00    +0.000 NA
ATOM     10  C   UNL     1      52.797   5.405  19.849  0.00  0.00    +0.000 C 
BRANCH   9  11
ATOM     11  C   UNL     1      50.490   5.843  19.361  0.00  0.00    +0.000 C 
BRANCH  11  12
ATOM     12  C   UNL     1      49.521   5.070  18.488  0.00  0.00    +0.000 A 
ATOM     13  C   UNL     1      49.182   3.742  18.788  0.00  0.00    +0.000 A 
ATOM     14  C   UNL     1      48.239   3.057  18.020  0.00  0.00    +0.000 A 
ATOM     15  C   UNL     1      47.625   3.688  16.938  0.00  0.00    +0.000 A 
ATOM     16  C   UNL     1      47.960   4.996  16.617  0.00  0.00    +0.000 A 
ATOM     17  C   UNL     1      48.907   5.687  17.386  0.00  0.00    +0.000 A 
ENDBRANCH  11  12
ENDBRANCH   9  11
ENDBRANCH   8   9
ENDBRANCH   4   8
BRANCH   7  18
ATOM     18  C   UNL     1      49.548   8.902  13.512  0.00  0.00    +0.000 C 
BRANCH  18  19
ATOM     19  N   UNL     1      48.732   7.783  12.992  0.00  0.00    +0.000 N 
ATOM     20  C   UNL     1      49.074   7.283  11.673  0.00  0.00    +0.000 C 
ATOM     21  C   UNL     1      47.465   7.527  13.571  0.00  0.00    +0.000 C 
ATOM     22  O   UNL     1      47.055   8.182  14.523  0.00  0.00    +0.000 OA
BRANCH  21  23
ATOM     23  C   UNL     1      46.641   6.409  13.040  0.00  0.00    +0.000 A 
ATOM     24  C   UNL     1      46.865   5.073  13.342  0.00  0.00    +0.000 A 
ATOM     25  S   UNL     1      45.764   3.995  12.613  0.00  0.00    +0.000 S 
ATOM     26  C   UNL     1      44.836   5.281  12.001  0.00  0.00    +0.000 A 
ATOM     27  N   UNL     1      43.661   5.044  11.356  0.00  0.00    +0.000 NA
ATOM     28  C   UNL     1      43.025   6.106  11.005  0.00  0.00    +0.000 A 
ATOM     29  N   UNL     1      43.477   7.384  11.199  0.00  0.00    +0.000 N 
ATOM     30  C   UNL     1      44.721   7.666  11.721  0.00  0.00    +0.000 A 
ATOM     31  O   UNL     1      45.185   8.795  11.654  0.00  0.00    +0.000 OA
ATOM     32  C   UNL     1      45.421   6.507  12.257  0.00  0.00    +0.000 A 
ATOM     33  H   UNL     1      42.970   8.173  10.832  0.00  0.00    +0.000 HD
ENDBRANCH  21  23
ENDBRANCH  18  19
ENDBRANCH   7  18
TORSDOF 7
ENDMDL
