MODEL 1
REMARK VINA RESULT:    -8.912      0.000      0.000
REMARK INTER + INTRA:         -13.815
REMARK INTER:                 -12.559
REMARK INTRA:                  -1.256
REMARK UNBOUND:                -1.256
REMARK  Name = 
REMARK  8 active torsions:
REMARK  status: ('A' for Active; 'I' for Inactive)
REMARK    1  A    between atoms: C_1  and  C_2
REMARK    2  A    between atoms: C_2  and  N_3
REMARK    3  A    between atoms: C_2  and  C_11
REMARK    4  A    between atoms: N_3  and  C_4
REMARK    5  A    between atoms: C_4  and  C_5
REMARK    6  A    between atoms: C_14  and  C_15
REMARK    7  A    between atoms: C_15  and  N_16
REMARK    8  A    between atoms: C_17  and  C_19
REMARK                            x       y       z     vdW  Elec       q    Type
REMARK                         _______ _______ _______ _____ _____    ______ ____
ROOT
ATOM      1  C   UNL     1      44.836   4.720  11.561  0.00  0.00    +0.000 A 
ATOM      2  C   UNL     1      45.487   5.763  10.889  0.00  0.00    +0.000 A 
ATOM      3  C   UNL     1      46.565   6.435  11.477  0.00  0.00    +0.000 A 
ATOM      4  C   UNL     1      47.029   6.075  12.750  0.00  0.00    +0.000 A 
ATOM      5  C   UNL     1      46.385   5.026  13.419  0.00  0.00    +0.000 A 
ATOM      6  C   UNL     1      45.320   4.343  12.824  0.00  0.00    +0.000 A 
ENDROOT
BRANCH   1   8
ATOM      7  C   UNL     1      43.209   2.793  11.699  0.00  0.00    +0.000 C 
ATOM      8  C   UNL     1      43.648   4.029  10.896  0.00  0.00    +0.000 C 
BRANCH   8   9
ATOM      9  N   UNL     1      44.001   3.748   9.502  0.00  0.00    +0.000 NA
ATOM     10  H   UNL     1      43.190   3.933   8.910  0.00  0.00    +0.000 HD
BRANCH   9  11
ATOM     11  C   UNL     1      44.477   2.394   9.236  0.00  0.00    +0.000 C 
BRANCH  11  12
ATOM     12  C   UNL     1      45.629   2.417   8.251  0.00  0.00    +0.000 A 
ATOM     13  C   UNL     1      46.393   1.261   8.024  0.00  0.00    +0.000 A 
ATOM     14  C   UNL     1      47.459   1.277   7.123  0.00  0.00    +0.000 A 
ATOM     15  C   UNL     1      47.774   2.449   6.437  0.00  0.00    +0.000 A 
ATOM     16  C   UNL     1      47.021   3.603   6.648  0.00  0.00    +0.000 A 
ATOM     17  C   UNL     1      45.951   3.587   7.547  0.00  0.00    +0.000 A 
ENDBRANCH  11  12
ENDBRANCH   9  11
ENDBRANCH   8   9
ENDBRANCH   1   8
BRANCH   4  18
ATOM     18  C   UNL     1      48.176   6.803  13.411  0.00  0.00    +0.000 C 
BRANCH  18  19
ATOM     19  N   UNL     1      48.059   6.797  14.847  0.00  0.00    +0.000 N 
ATOM     20  C   UNL     1      49.158   6.776  15.668  0.00  0.00    +0.000 C 
ATOM     21  O   UNL     1      50.310   6.773  15.243  0.00  0.00    +0.000 OA
ATOM     22  H   UNL     1      47.181   6.458  15.224  0.00  0.00    +0.000 HD
BRANCH  20  23
ATOM     23  C   UNL     1      48.868   6.826  17.110  0.00  0.00    +0.000 A 
ATOM     24  C   UNL     1      48.522   8.029  17.710  0.00  0.00    +0.000 A 
ATOM     25  S   UNL     1      48.181   7.884  19.377  0.00  0.00    +0.000 S 
ATOM     26  C   UNL     1      48.527   6.218  19.361  0.00  0.00    +0.000 A 
ATOM     27  N   UNL     1      48.456   5.479  20.500  0.00  0.00    +0.000 NA
ATOM     28  C   UNL     1      48.769   4.229  20.349  0.00  0.00    +0.000 A 
ATOM     29  N   UNL     1      49.137   3.661  19.157  0.00  0.00    +0.000 N 
ATOM     30  C   UNL     1      49.176   4.358  17.975  0.00  0.00    +0.000 A 
ATOM     31  O   UNL     1      49.432   3.797  16.917  0.00  0.00    +0.000 OA
ATOM     32  C   UNL     1      48.866   5.776  18.097  0.00  0.00    +0.000 A 
ATOM     33  H   UNL     1      49.350   2.674  19.102  0.00  0.00    +0.000 HD
ENDBRANCH  20  23
ENDBRANCH  18  19
ENDBRANCH   4  18
TORSDOF 7
ENDMDL
MODEL 2
REMARK VINA RESULT:    -8.558      1.432      2.225
REMARK INTER + INTRA:         -13.317
REMARK INTER:                 -11.971
REMARK INTRA:                  -1.345
REMARK UNBOUND:                -1.256
REMARK  Name = 
REMARK  8 active torsions:
REMARK  status: ('A' for Active; 'I' for Inactive)
REMARK    1  A    between atoms: C_1  and  C_2
REMARK    2  A    between atoms: C_2  and  N_3
REMARK    3  A    between atoms: C_2  and  C_11
REMARK    4  A    between atoms: N_3  and  C_4
REMARK    5  A    between atoms: C_4  and  C_5
REMARK    6  A    between atoms: C_14  and  C_15
REMARK    7  A    between atoms: C_15  and  N_16
REMARK    8  A    between atoms: C_17  and  C_19
REMARK                            x       y       z     vdW  Elec       q    Type
REMARK                         _______ _______ _______ _____ _____    ______ ____
ROOT
ATOM      1  C   UNL     1      44.833   4.761  11.673  0.00  0.00    +0.000 A 
ATOM      2  C   UNL     1      45.536   5.762  10.989  0.00  0.00    +0.000 A 
ATOM      3  C   UNL     1      46.585   6.454  11.605  0.00  0.00    +0.000 A 
ATOM      4  C   UNL     1      46.967   6.157  12.921  0.00  0.00    +0.000 A 
ATOM      5  C   UNL     1      46.272   5.150  13.603  0.00  0.00    +0.000 A 
ATOM      6  C   UNL     1      45.237   4.446  12.980  0.00  0.00    +0.000 A 
ENDROOT
BRANCH   1   8
ATOM      7  C   UNL     1      43.245   2.799  11.762  0.00  0.00    +0.000 C 
ATOM      8  C   UNL     1      43.680   4.046  10.973  0.00  0.00    +0.000 C 
BRANCH   8   9
ATOM      9  N   UNL     1      44.079   3.775   9.589  0.00  0.00    +0.000 NA
ATOM     10  H   UNL     1      43.287   3.962   8.973  0.00  0.00    +0.000 HD
BRANCH   9  11
ATOM     11  C   UNL     1      44.567   2.423   9.331  0.00  0.00    +0.000 C 
BRANCH  11  12
ATOM     12  C   UNL     1      45.641   2.440   8.262  0.00  0.00    +0.000 A 
ATOM     13  C   UNL     1      46.435   1.303   8.035  0.00  0.00    +0.000 A 
ATOM     14  C   UNL     1      47.431   1.314   7.058  0.00  0.00    +0.000 A 
ATOM     15  C   UNL     1      47.646   2.459   6.294  0.00  0.00    +0.000 A 
ATOM     16  C   UNL     1      46.862   3.593   6.504  0.00  0.00    +0.000 A 
ATOM     17  C   UNL     1      45.862   3.582   7.480  0.00  0.00    +0.000 A 
ENDBRANCH  11  12
ENDBRANCH   9  11
ENDBRANCH   8   9
ENDBRANCH   1   8
BRANCH   4  18
ATOM     18  C   UNL     1      48.080   6.909  13.612  0.00  0.00    +0.000 C 
BRANCH  18  19
ATOM     19  N   UNL     1      47.986   6.808  15.046  0.00  0.00    +0.000 N 
ATOM     20  C   UNL     1      49.095   6.657  15.840  0.00  0.00    +0.000 C 
ATOM     21  O   UNL     1      50.237   6.609  15.393  0.00  0.00    +0.000 OA
ATOM     22  H   UNL     1      47.094   6.501  15.417  0.00  0.00    +0.000 HD
BRANCH  20  23
ATOM     23  C   UNL     1      48.833   6.623  17.288  0.00  0.00    +0.000 A 
ATOM     24  C   UNL     1      49.099   5.473  18.018  0.00  0.00    +0.000 A 
ATOM     25  S   UNL     1      48.773   5.635  19.686  0.00  0.00    +0.000 S 
ATOM     26  C   UNL     1      48.222   7.231  19.482  0.00  0.00    +0.000 A 
ATOM     27  N   UNL     1      47.759   7.952  20.538  0.00  0.00    +0.000 NA
ATOM     28  C   UNL     1      47.349   9.144  20.235  0.00  0.00    +0.000 A 
ATOM     29  N   UNL     1      47.371   9.675  18.972  0.00  0.00    +0.000 N 
ATOM     30  C   UNL     1      47.875   9.002  17.886  0.00  0.00    +0.000 A 
ATOM     31  O   UNL     1      47.953   9.540  16.788  0.00  0.00    +0.000 OA
ATOM     32  C   UNL     1      48.317   7.643  18.166  0.00  0.00    +0.000 A 
ATOM     33  H   UNL     1      47.055  10.620  18.805  0.00  0.00    +0.000 HD
ENDBRANCH  20  23
ENDBRANCH  18  19
ENDBRANCH   4  18
TORSDOF 7
ENDMDL
MODEL 3
REMARK VINA RESULT:    -8.266      1.765      1.995
REMARK INTER + INTRA:         -12.904
REMARK INTER:                 -11.592
REMARK INTRA:                  -1.312
REMARK UNBOUND:                -1.256
REMARK  Name = 
REMARK  8 active torsions:
REMARK  status: ('A' for Active; 'I' for Inactive)
REMARK    1  A    between atoms: C_1  and  C_2
REMARK    2  A    between atoms: C_2  and  N_3
REMARK    3  A    between atoms: C_2  and  C_11
REMARK    4  A    between atoms: N_3  and  C_4
REMARK    5  A    between atoms: C_4  and  C_5
REMARK    6  A    between atoms: C_14  and  C_15
REMARK    7  A    between atoms: C_15  and  N_16
REMARK    8  A    between atoms: C_17  and  C_19
REMARK                            x       y       z     vdW  Elec       q    Type
REMARK                         _______ _______ _______ _____ _____    ______ ____
ROOT
ATOM      1  C   UNL     1      44.616   5.583  11.437  0.00  0.00    +0.000 A 
ATOM      2  C   UNL     1      45.727   4.972  12.035  0.00  0.00    +0.000 A 
ATOM      3  C   UNL     1      46.686   5.732  12.714  0.00  0.00    +0.000 A 
ATOM      4  C   UNL     1      46.556   7.124  12.823  0.00  0.00    +0.000 A 
ATOM      5  C   UNL     1      45.441   7.734  12.234  0.00  0.00    +0.000 A 
ATOM      6  C   UNL     1      44.473   6.973  11.572  0.00  0.00    +0.000 A 
ENDROOT
BRANCH   1   8
ATOM      7  C   UNL     1      43.115   3.555  11.559  0.00  0.00    +0.000 C 
ATOM      8  C   UNL     1      43.604   4.722  10.684  0.00  0.00    +0.000 C 
BRANCH   8   9
ATOM      9  N   UNL     1      44.206   4.310   9.413  0.00  0.00    +0.000 NA
ATOM     10  H   UNL     1      43.616   4.635   8.646  0.00  0.00    +0.000 HD
BRANCH   9  11
ATOM     11  C   UNL     1      44.430   2.876   9.260  0.00  0.00    +0.000 C 
BRANCH  11  12
ATOM     12  C   UNL     1      45.523   2.611   8.245  0.00  0.00    +0.000 A 
ATOM     13  C   UNL     1      46.183   1.371   8.217  0.00  0.00    +0.000 A 
ATOM     14  C   UNL     1      47.196   1.124   7.290  0.00  0.00    +0.000 A 
ATOM     15  C   UNL     1      47.561   2.111   6.377  0.00  0.00    +0.000 A 
ATOM     16  C   UNL     1      46.911   3.344   6.388  0.00  0.00    +0.000 A 
ATOM     17  C   UNL     1      45.895   3.592   7.315  0.00  0.00    +0.000 A 
ENDBRANCH  11  12
ENDBRANCH   9  11
ENDBRANCH   8   9
ENDBRANCH   1   8
BRANCH   4  18
ATOM     18  C   UNL     1      47.593   7.964  13.530  0.00  0.00    +0.000 C 
BRANCH  18  19
ATOM     19  N   UNL     1      48.461   7.162  14.356  0.00  0.00    +0.000 N 
ATOM     20  C   UNL     1      48.817   7.544  15.624  0.00  0.00    +0.000 C 
ATOM     21  O   UNL     1      48.418   8.580  16.148  0.00  0.00    +0.000 OA
ATOM     22  H   UNL     1      49.068   6.513  13.869  0.00  0.00    +0.000 HD
BRANCH  20  23
ATOM     23  C   UNL     1      49.665   6.589  16.355  0.00  0.00    +0.000 A 
ATOM     24  C   UNL     1      50.942   6.956  16.757  0.00  0.00    +0.000 A 
ATOM     25  S   UNL     1      51.759   5.734  17.626  0.00  0.00    +0.000 S 
ATOM     26  C   UNL     1      50.452   4.659  17.456  0.00  0.00    +0.000 A 
ATOM     27  N   UNL     1      50.515   3.397  17.959  0.00  0.00    +0.000 NA
ATOM     28  C   UNL     1      49.459   2.678  17.736  0.00  0.00    +0.000 A 
ATOM     29  N   UNL     1      48.349   3.117  17.062  0.00  0.00    +0.000 N 
ATOM     30  C   UNL     1      48.224   4.396  16.580  0.00  0.00    +0.000 A 
ATOM     31  O   UNL     1      47.185   4.776  16.054  0.00  0.00    +0.000 OA
ATOM     32  C   UNL     1      49.398   5.236  16.774  0.00  0.00    +0.000 A 
ATOM     33  H   UNL     1      47.549   2.512  16.939  0.00  0.00    +0.000 HD
ENDBRANCH  20  23
ENDBRANCH  18  19
ENDBRANCH   4  18
TORSDOF 7
ENDMDL
MODEL 4
REMARK VINA RESULT:    -8.046      1.330      1.720
REMARK INTER + INTRA:         -12.594
REMARK INTER:                 -11.419
REMARK INTRA:                  -1.175
REMARK UNBOUND:                -1.256
REMARK  Name = 
REMARK  8 active torsions:
REMARK  status: ('A' for Active; 'I' for Inactive)
REMARK    1  A    between atoms: C_1  and  C_2
REMARK    2  A    between atoms: C_2  and  N_3
REMARK    3  A    between atoms: C_2  and  C_11
REMARK    4  A    between atoms: N_3  and  C_4
REMARK    5  A    between atoms: C_4  and  C_5
REMARK    6  A    between atoms: C_14  and  C_15
REMARK    7  A    between atoms: C_15  and  N_16
REMARK    8  A    between atoms: C_17  and  C_19
REMARK                            x       y       z     vdW  Elec       q    Type
REMARK                         _______ _______ _______ _____ _____    ______ ____
ROOT
ATOM      1  C   UNL     1      45.154   6.123  11.452  0.00  0.00    +0.000 A 
ATOM      2  C   UNL     1      44.892   7.479  11.691  0.00  0.00    +0.000 A 
ATOM      3  C   UNL     1      45.743   8.245  12.495  0.00  0.00    +0.000 A 
ATOM      4  C   UNL     1      46.886   7.679  13.076  0.00  0.00    +0.000 A 
ATOM      5  C   UNL     1      47.155   6.326  12.830  0.00  0.00    +0.000 A 
ATOM      6  C   UNL     1      46.314   5.566  12.012  0.00  0.00    +0.000 A 
ENDROOT
BRANCH   1   8
ATOM      7  C   UNL     1      43.637   4.105  11.363  0.00  0.00    +0.000 C 
ATOM      8  C   UNL     1      44.187   5.315  10.589  0.00  0.00    +0.000 C 
BRANCH   8   9
ATOM      9  N   UNL     1      44.866   4.972   9.336  0.00  0.00    +0.000 NA
ATOM     10  H   UNL     1      44.823   5.773   8.705  0.00  0.00    +0.000 HD
BRANCH   9  11
ATOM     11  C   UNL     1      44.345   3.798   8.642  0.00  0.00    +0.000 C 
BRANCH  11  12
ATOM     12  C   UNL     1      45.475   3.002   8.021  0.00  0.00    +0.000 A 
ATOM     13  C   UNL     1      46.295   3.580   7.038  0.00  0.00    +0.000 A 
ATOM     14  C   UNL     1      47.333   2.850   6.457  0.00  0.00    +0.000 A 
ATOM     15  C   UNL     1      47.565   1.533   6.851  0.00  0.00    +0.000 A 
ATOM     16  C   UNL     1      46.763   0.948   7.830  0.00  0.00    +0.000 A 
ATOM     17  C   UNL     1      45.726   1.679   8.415  0.00  0.00    +0.000 A 
ENDBRANCH  11  12
ENDBRANCH   9  11
ENDBRANCH   8   9
ENDBRANCH   1   8
BRANCH   4  18
ATOM     18  C   UNL     1      47.804   8.483  13.966  0.00  0.00    +0.000 C 
BRANCH  18  19
ATOM     19  N   UNL     1      48.078   7.804  15.207  0.00  0.00    +0.000 N 
ATOM     20  C   UNL     1      49.332   7.351  15.529  0.00  0.00    +0.000 C 
ATOM     21  O   UNL     1      50.306   7.499  14.796  0.00  0.00    +0.000 OA
ATOM     22  H   UNL     1      47.286   7.365  15.663  0.00  0.00    +0.000 HD
BRANCH  20  23
ATOM     23  C   UNL     1      49.455   6.727  16.857  0.00  0.00    +0.000 A 
ATOM     24  C   UNL     1      50.149   7.374  17.870  0.00  0.00    +0.000 A 
ATOM     25  S   UNL     1      50.149   6.518  19.348  0.00  0.00    +0.000 S 
ATOM     26  C   UNL     1      49.260   5.236  18.672  0.00  0.00    +0.000 A 
ATOM     27  N   UNL     1      48.939   4.141  19.411  0.00  0.00    +0.000 NA
ATOM     28  C   UNL     1      48.282   3.230  18.763  0.00  0.00    +0.000 A 
ATOM     29  N   UNL     1      47.914   3.327  17.447  0.00  0.00    +0.000 N 
ATOM     30  C   UNL     1      48.174   4.433  16.677  0.00  0.00    +0.000 A 
ATOM     31  O   UNL     1      47.758   4.517  15.527  0.00  0.00    +0.000 OA
ATOM     32  C   UNL     1      48.942   5.473  17.348  0.00  0.00    +0.000 A 
ATOM     33  H   UNL     1      47.383   2.589  17.005  0.00  0.00    +0.000 HD
ENDBRANCH  20  23
ENDBRANCH  18  19
ENDBRANCH   4  18
TORSDOF 7
ENDMDL
MODEL 5
REMARK VINA RESULT:    -7.342      4.389      5.559
REMARK INTER + INTRA:         -11.602
REMARK INTER:                 -10.402
REMARK INTRA:                  -1.200
REMARK UNBOUND:                -1.256
REMARK  Name = 
REMARK  8 active torsions:
REMARK  status: ('A' for Active; 'I' for Inactive)
REMARK    1  A    between atoms: C_1  and  C_2
REMARK    2  A    between atoms: C_2  and  N_3
REMARK    3  A    between atoms: C_2  and  C_11
REMARK    4  A    between atoms: N_3  and  C_4
REMARK    5  A    between atoms: C_4  and  C_5
REMARK    6  A    between atoms: C_14  and  C_15
REMARK    7  A    between atoms: C_15  and  N_16
REMARK    8  A    between atoms: C_17  and  C_19
REMARK                            x       y       z     vdW  Elec       q    Type
REMARK                         _______ _______ _______ _____ _____    ______ ____
ROOT
ATOM      1  C   UNL     1      45.120   4.740  11.544  0.00  0.00    +0.000 A 
ATOM      2  C   UNL     1      45.452   5.033  12.874  0.00  0.00    +0.000 A 
ATOM      3  C   UNL     1      46.322   6.084  13.183  0.00  0.00    +0.000 A 
ATOM      4  C   UNL     1      46.879   6.879  12.170  0.00  0.00    +0.000 A 
ATOM      5  C   UNL     1      46.540   6.593  10.841  0.00  0.00    +0.000 A 
ATOM      6  C   UNL     1      45.655   5.555  10.534  0.00  0.00    +0.000 A 
ENDROOT
BRANCH   1   8
ATOM      7  C   UNL     1      43.456   3.111  12.521  0.00  0.00    +0.000 C 
ATOM      8  C   UNL     1      44.185   3.570  11.248  0.00  0.00    +0.000 C 
BRANCH   8   9
ATOM      9  N   UNL     1      44.962   2.518  10.585  0.00  0.00    +0.000 NA
ATOM     10  H   UNL     1      45.935   2.817  10.516  0.00  0.00    +0.000 HD
BRANCH   9  11
ATOM     11  C   UNL     1      44.492   2.133   9.258  0.00  0.00    +0.000 C 
BRANCH  11  12
ATOM     12  C   UNL     1      45.607   2.264   8.239  0.00  0.00    +0.000 A 
ATOM     13  C   UNL     1      45.790   3.466   7.537  0.00  0.00    +0.000 A 
ATOM     14  C   UNL     1      46.810   3.591   6.592  0.00  0.00    +0.000 A 
ATOM     15  C   UNL     1      47.661   2.517   6.339  0.00  0.00    +0.000 A 
ATOM     16  C   UNL     1      47.495   1.320   7.034  0.00  0.00    +0.000 A 
ATOM     17  C   UNL     1      46.476   1.194   7.982  0.00  0.00    +0.000 A 
ENDBRANCH  11  12
ENDBRANCH   9  11
ENDBRANCH   8   9
ENDBRANCH   1   8
BRANCH   4  18
ATOM     18  C   UNL     1      47.839   8.002  12.481  0.00  0.00    +0.000 C 
BRANCH  18  19
ATOM     19  N   UNL     1      49.190   7.673  12.104  0.00  0.00    +0.000 N 
ATOM     20  C   UNL     1      50.037   8.598  11.547  0.00  0.00    +0.000 C 
ATOM     21  O   UNL     1      49.713   9.764  11.342  0.00  0.00    +0.000 OA
ATOM     22  H   UNL     1      49.381   6.693  11.932  0.00  0.00    +0.000 HD
BRANCH  20  23
ATOM     23  C   UNL     1      51.400   8.116  11.268  0.00  0.00    +0.000 A 
ATOM     24  C   UNL     1      51.635   7.278  10.187  0.00  0.00    +0.000 A 
ATOM     25  S   UNL     1      53.279   6.858   9.998  0.00  0.00    +0.000 S 
ATOM     26  C   UNL     1      53.725   7.746  11.379  0.00  0.00    +0.000 A 
ATOM     27  N   UNL     1      55.017   7.780  11.802  0.00  0.00    +0.000 NA
ATOM     28  C   UNL     1      55.210   8.473  12.880  0.00  0.00    +0.000 A 
ATOM     29  N   UNL     1      54.224   9.138  13.562  0.00  0.00    +0.000 N 
ATOM     30  C   UNL     1      52.917   9.170  13.145  0.00  0.00    +0.000 A 
ATOM     31  O   UNL     1      52.080   9.842  13.736  0.00  0.00    +0.000 OA
ATOM     32  C   UNL     1      52.639   8.377  11.955  0.00  0.00    +0.000 A 
ATOM     33  H   UNL     1      54.444   9.679  14.387  0.00  0.00    +0.000 HD
ENDBRANCH  20  23
ENDBRANCH  18  19
ENDBRANCH   4  18
TORSDOF 7
ENDMDL
MODEL 6
REMARK VINA RESULT:    -7.207      3.189      8.914
REMARK INTER + INTRA:         -11.413
REMARK INTER:                  -9.514
REMARK INTRA:                  -1.898
REMARK UNBOUND:                -1.256
REMARK  Name = 
REMARK  8 active torsions:
REMARK  status: ('A' for Active; 'I' for Inactive)
REMARK    1  A    between atoms: C_1  and  C_2
REMARK    2  A    between atoms: C_2  and  N_3
REMARK    3  A    between atoms: C_2  and  C_11
REMARK    4  A    between atoms: N_3  and  C_4
REMARK    5  A    between atoms: C_4  and  C_5
REMARK    6  A    between atoms: C_14  and  C_15
REMARK    7  A    between atoms: C_15  and  N_16
REMARK    8  A    between atoms: C_17  and  C_19
REMARK                            x       y       z     vdW  Elec       q    Type
REMARK                         _______ _______ _______ _____ _____    ______ ____
ROOT
ATOM      1  C   UNL     1      49.211   8.246  15.979  0.00  0.00    +0.000 A 
ATOM      2  C   UNL     1      49.412   7.051  15.275  0.00  0.00    +0.000 A 
ATOM      3  C   UNL     1      48.931   6.896  13.970  0.00  0.00    +0.000 A 
ATOM      4  C   UNL     1      48.244   7.936  13.328  0.00  0.00    +0.000 A 
ATOM      5  C   UNL     1      48.052   9.135  14.027  0.00  0.00    +0.000 A 
ATOM      6  C   UNL     1      48.549   9.296  15.324  0.00  0.00    +0.000 A 
ENDROOT
BRANCH   1   8
ATOM      7  C   UNL     1      51.215   7.975  17.492  0.00  0.00    +0.000 C 
ATOM      8  C   UNL     1      49.730   8.366  17.410  0.00  0.00    +0.000 C 
BRANCH   8   9
ATOM      9  N   UNL     1      48.852   7.584  18.285  0.00  0.00    +0.000 NA
ATOM     10  H   UNL     1      48.497   8.190  19.026  0.00  0.00    +0.000 HD
BRANCH   9  11
ATOM     11  C   UNL     1      49.461   6.405  18.893  0.00  0.00    +0.000 C 
BRANCH  11  12
ATOM     12  C   UNL     1      48.954   5.141  18.227  0.00  0.00    +0.000 A 
ATOM     13  C   UNL     1      49.828   4.070  17.977  0.00  0.00    +0.000 A 
ATOM     14  C   UNL     1      49.370   2.906  17.358  0.00  0.00    +0.000 A 
ATOM     15  C   UNL     1      48.032   2.796  16.984  0.00  0.00    +0.000 A 
ATOM     16  C   UNL     1      47.151   3.848  17.232  0.00  0.00    +0.000 A 
ATOM     17  C   UNL     1      47.609   5.013  17.854  0.00  0.00    +0.000 A 
ENDBRANCH  11  12
ENDBRANCH   9  11
ENDBRANCH   8   9
ENDBRANCH   1   8
BRANCH   4  18
ATOM     18  C   UNL     1      47.697   7.780  11.929  0.00  0.00    +0.000 C 
BRANCH  18  19
ATOM     19  N   UNL     1      46.948   6.558  11.779  0.00  0.00    +0.000 N 
ATOM     20  C   UNL     1      45.584   6.518  11.913  0.00  0.00    +0.000 C 
ATOM     21  O   UNL     1      44.906   7.512  12.157  0.00  0.00    +0.000 OA
ATOM     22  H   UNL     1      47.463   5.697  11.922  0.00  0.00    +0.000 HD
BRANCH  20  23
ATOM     23  C   UNL     1      44.966   5.203  11.676  0.00  0.00    +0.000 A 
ATOM     24  C   UNL     1      44.265   4.569  12.692  0.00  0.00    +0.000 A 
ATOM     25  S   UNL     1      43.584   3.076  12.221  0.00  0.00    +0.000 S 
ATOM     26  C   UNL     1      44.241   3.206  10.657  0.00  0.00    +0.000 A 
ATOM     27  N   UNL     1      44.054   2.222   9.736  0.00  0.00    +0.000 NA
ATOM     28  C   UNL     1      44.630   2.440   8.595  0.00  0.00    +0.000 A 
ATOM     29  N   UNL     1      45.366   3.557   8.297  0.00  0.00    +0.000 N 
ATOM     30  C   UNL     1      45.539   4.595   9.179  0.00  0.00    +0.000 A 
ATOM     31  O   UNL     1      46.135   5.614   8.849  0.00  0.00    +0.000 OA
ATOM     32  C   UNL     1      44.941   4.385  10.490  0.00  0.00    +0.000 A 
ATOM     33  H   UNL     1      45.773   3.676   7.380  0.00  0.00    +0.000 HD
ENDBRANCH  20  23
ENDBRANCH  18  19
ENDBRANCH   4  18
TORSDOF 7
ENDMDL
MODEL 7
REMARK VINA RESULT:    -7.191      4.410      5.903
REMARK INTER + INTRA:         -11.391
REMARK INTER:                 -10.045
REMARK INTRA:                  -1.345
REMARK UNBOUND:                -1.256
REMARK  Name = 
REMARK  8 active torsions:
REMARK  status: ('A' for Active; 'I' for Inactive)
REMARK    1  A    between atoms: C_1  and  C_2
REMARK    2  A    between atoms: C_2  and  N_3
REMARK    3  A    between atoms: C_2  and  C_11
REMARK    4  A    between atoms: N_3  and  C_4
REMARK    5  A    between atoms: C_4  and  C_5
REMARK    6  A    between atoms: C_14  and  C_15
REMARK    7  A    between atoms: C_15  and  N_16
REMARK    8  A    between atoms: C_17  and  C_19
REMARK                            x       y       z     vdW  Elec       q    Type
REMARK                         _______ _______ _______ _____ _____    ______ ____
ROOT
ATOM      1  C   UNL     1      45.245   6.051  11.784  0.00  0.00    +0.000 A 
ATOM      2  C   UNL     1      44.840   7.366  11.513  0.00  0.00    +0.000 A 
ATOM      3  C   UNL     1      45.577   8.457  11.986  0.00  0.00    +0.000 A 
ATOM      4  C   UNL     1      46.746   8.265  12.735  0.00  0.00    +0.000 A 
ATOM      5  C   UNL     1      47.158   6.952  12.998  0.00  0.00    +0.000 A 
ATOM      6  C   UNL     1      46.431   5.862  12.510  0.00  0.00    +0.000 A 
ENDROOT
BRANCH   1   8
ATOM      7  C   UNL     1      44.658   3.615  12.095  0.00  0.00    +0.000 C 
ATOM      8  C   UNL     1      44.399   4.888  11.272  0.00  0.00    +0.000 C 
BRANCH   8   9
ATOM      9  N   UNL     1      44.647   4.737   9.835  0.00  0.00    +0.000 NA
ATOM     10  H   UNL     1      44.130   5.458   9.331  0.00  0.00    +0.000 HD
BRANCH   9  11
ATOM     11  C   UNL     1      44.305   3.434   9.273  0.00  0.00    +0.000 C 
BRANCH  11  12
ATOM     12  C   UNL     1      45.446   2.901   8.429  0.00  0.00    +0.000 A 
ATOM     13  C   UNL     1      46.186   3.767   7.607  0.00  0.00    +0.000 A 
ATOM     14  C   UNL     1      47.233   3.283   6.822  0.00  0.00    +0.000 A 
ATOM     15  C   UNL     1      47.555   1.927   6.849  0.00  0.00    +0.000 A 
ATOM     16  C   UNL     1      46.833   1.057   7.664  0.00  0.00    +0.000 A 
ATOM     17  C   UNL     1      45.786   1.541   8.454  0.00  0.00    +0.000 A 
ENDBRANCH  11  12
ENDBRANCH   9  11
ENDBRANCH   8   9
ENDBRANCH   1   8
BRANCH   4  18
ATOM     18  C   UNL     1      47.542   9.430  13.274  0.00  0.00    +0.000 C 
BRANCH  18  19
ATOM     19  N   UNL     1      48.841   9.524  12.658  0.00  0.00    +0.000 N 
ATOM     20  C   UNL     1      49.057  10.258  11.519  0.00  0.00    +0.000 C 
ATOM     21  O   UNL     1      48.171  10.892  10.954  0.00  0.00    +0.000 OA
ATOM     22  H   UNL     1      49.492   8.775  12.868  0.00  0.00    +0.000 HD
BRANCH  20  23
ATOM     23  C   UNL     1      50.451  10.294  11.048  0.00  0.00    +0.000 A 
ATOM     24  C   UNL     1      51.055  11.507  10.748  0.00  0.00    +0.000 A 
ATOM     25  S   UNL     1      52.684  11.354  10.259  0.00  0.00    +0.000 S 
ATOM     26  C   UNL     1      52.623   9.659  10.388  0.00  0.00    +0.000 A 
ATOM     27  N   UNL     1      53.704   8.895  10.077  0.00  0.00    +0.000 NA
ATOM     28  C   UNL     1      53.511   7.618  10.197  0.00  0.00    +0.000 A 
ATOM     29  N   UNL     1      52.335   7.047  10.608  0.00  0.00    +0.000 N 
ATOM     30  C   UNL     1      51.235   7.781  10.978  0.00  0.00    +0.000 A 
ATOM     31  O   UNL     1      50.230   7.237  11.418  0.00  0.00    +0.000 OA
ATOM     32  C   UNL     1      51.389   9.222  10.829  0.00  0.00    +0.000 A 
ATOM     33  H   UNL     1      52.255   6.044  10.700  0.00  0.00    +0.000 HD
ENDBRANCH  20  23
ENDBRANCH  18  19
ENDBRANCH   4  18
TORSDOF 7
ENDMDL
MODEL 8
REMARK VINA RESULT:    -6.874      3.919      8.992
REMARK INTER + INTRA:         -10.943
REMARK INTER:                  -9.370
REMARK INTRA:                  -1.573
REMARK UNBOUND:                -1.256
REMARK  Name = 
REMARK  8 active torsions:
REMARK  status: ('A' for Active; 'I' for Inactive)
REMARK    1  A    between atoms: C_1  and  C_2
REMARK    2  A    between atoms: C_2  and  N_3
REMARK    3  A    between atoms: C_2  and  C_11
REMARK    4  A    between atoms: N_3  and  C_4
REMARK    5  A    between atoms: C_4  and  C_5
REMARK    6  A    between atoms: C_14  and  C_15
REMARK    7  A    between atoms: C_15  and  N_16
REMARK    8  A    between atoms: C_17  and  C_19
REMARK                            x       y       z     vdW  Elec       q    Type
REMARK                         _______ _______ _______ _____ _____    ______ ____
ROOT
ATOM      1  C   UNL     1      51.278   4.147  18.431  0.00  0.00    +0.000 A 
ATOM      2  C   UNL     1      51.023   3.046  17.601  0.00  0.00    +0.000 A 
ATOM      3  C   UNL     1      49.741   2.813  17.090  0.00  0.00    +0.000 A 
ATOM      4  C   UNL     1      48.680   3.680  17.386  0.00  0.00    +0.000 A 
ATOM      5  C   UNL     1      48.936   4.786  18.207  0.00  0.00    +0.000 A 
ATOM      6  C   UNL     1      50.220   5.029  18.702  0.00  0.00    +0.000 A 
ENDROOT
BRANCH   1   8
ATOM      7  C   UNL     1      52.677   4.320  20.526  0.00  0.00    +0.000 C 
ATOM      8  C   UNL     1      52.684   4.353  18.989  0.00  0.00    +0.000 C 
BRANCH   8   9
ATOM      9  N   UNL     1      53.231   5.586  18.414  0.00  0.00    +0.000 NA
ATOM     10  H   UNL     1      52.484   6.278  18.342  0.00  0.00    +0.000 HD
BRANCH   9  11
ATOM     11  C   UNL     1      53.865   5.441  17.107  0.00  0.00    +0.000 C 
BRANCH  11  12
ATOM     12  C   UNL     1      53.315   6.462  16.132  0.00  0.00    +0.000 A 
ATOM     13  C   UNL     1      54.145   7.023  15.147  0.00  0.00    +0.000 A 
ATOM     14  C   UNL     1      53.648   7.969  14.250  0.00  0.00    +0.000 A 
ATOM     15  C   UNL     1      52.314   8.365  14.324  0.00  0.00    +0.000 A 
ATOM     16  C   UNL     1      51.476   7.812  15.292  0.00  0.00    +0.000 A 
ATOM     17  C   UNL     1      51.973   6.863  16.189  0.00  0.00    +0.000 A 
ENDBRANCH  11  12
ENDBRANCH   9  11
ENDBRANCH   8   9
ENDBRANCH   1   8
BRANCH   4  18
ATOM     18  C   UNL     1      47.284   3.432  16.863  0.00  0.00    +0.000 C 
BRANCH  18  19
ATOM     19  N   UNL     1      46.894   4.417  15.886  0.00  0.00    +0.000 N 
ATOM     20  C   UNL     1      46.948   4.167  14.538  0.00  0.00    +0.000 C 
ATOM     21  O   UNL     1      47.318   3.095  14.070  0.00  0.00    +0.000 OA
ATOM     22  H   UNL     1      46.919   5.384  16.190  0.00  0.00    +0.000 HD
BRANCH  20  23
ATOM     23  C   UNL     1      46.464   5.258  13.676  0.00  0.00    +0.000 A 
ATOM     24  C   UNL     1      47.232   6.402  13.502  0.00  0.00    +0.000 A 
ATOM     25  S   UNL     1      46.529   7.536  12.437  0.00  0.00    +0.000 S 
ATOM     26  C   UNL     1      45.157   6.558  12.207  0.00  0.00    +0.000 A 
ATOM     27  N   UNL     1      44.132   6.966  11.413  0.00  0.00    +0.000 NA
ATOM     28  C   UNL     1      43.140   6.134  11.348  0.00  0.00    +0.000 A 
ATOM     29  N   UNL     1      43.092   4.930  12.002  0.00  0.00    +0.000 N 
ATOM     30  C   UNL     1      44.124   4.457  12.774  0.00  0.00    +0.000 A 
ATOM     31  O   UNL     1      44.078   3.341  13.277  0.00  0.00    +0.000 OA
ATOM     32  C   UNL     1      45.250   5.371  12.909  0.00  0.00    +0.000 A 
ATOM     33  H   UNL     1      42.296   4.316  11.893  0.00  0.00    +0.000 HD
ENDBRANCH  20  23
ENDBRANCH  18  19
ENDBRANCH   4  18
TORSDOF 7
ENDMDL
MODEL 9
REMARK VINA RESULT:    -6.779      5.022      6.954
REMARK INTER + INTRA:         -10.809
REMARK INTER:                  -9.489
REMARK INTRA:                  -1.320
REMARK UNBOUND:                -1.256
REMARK  Name = 
REMARK  8 active torsions:
REMARK  status: ('A' for Active; 'I' for Inactive)
REMARK    1  A    between atoms: C_1  and  C_2
REMARK    2  A    between atoms: C_2  and  N_3
REMARK    3  A    between atoms: C_2  and  C_11
REMARK    4  A    between atoms: N_3  and  C_4
REMARK    5  A    between atoms: C_4  and  C_5
REMARK    6  A    between atoms: C_14  and  C_15
REMARK    7  A    between atoms: C_15  and  N_16
REMARK    8  A    between atoms: C_17  and  C_19
REMARK                            x       y       z     vdW  Elec       q    Type
REMARK                         _______ _______ _______ _____ _____    ______ ____
ROOT
ATOM      1  C   UNL     1      45.170   6.598  11.836  0.00  0.00    +0.000 A 
ATOM      2  C   UNL     1      46.453   6.230  11.407  0.00  0.00    +0.000 A 
ATOM      3  C   UNL     1      47.572   7.000  11.744  0.00  0.00    +0.000 A 
ATOM      4  C   UNL     1      47.441   8.154  12.528  0.00  0.00    +0.000 A 
ATOM      5  C   UNL     1      46.160   8.518  12.965  0.00  0.00    +0.000 A 
ATOM      6  C   UNL     1      45.046   7.738  12.644  0.00  0.00    +0.000 A 
ENDROOT
BRANCH   1   8
ATOM      7  C   UNL     1      43.721   4.622  12.447  0.00  0.00    +0.000 C 
ATOM      8  C   UNL     1      43.972   5.744  11.426  0.00  0.00    +0.000 C 
BRANCH   8   9
ATOM      9  N   UNL     1      44.190   5.274  10.055  0.00  0.00    +0.000 NA
ATOM     10  H   UNL     1      43.553   5.770   9.429  0.00  0.00    +0.000 HD
BRANCH   9  11
ATOM     11  C   UNL     1      44.026   3.838   9.851  0.00  0.00    +0.000 C 
BRANCH  11  12
ATOM     12  C   UNL     1      45.082   3.311   8.900  0.00  0.00    +0.000 A 
ATOM     13  C   UNL     1      45.396   1.942   8.875  0.00  0.00    +0.000 A 
ATOM     14  C   UNL     1      46.372   1.451   8.007  0.00  0.00    +0.000 A 
ATOM     15  C   UNL     1      47.046   2.320   7.152  0.00  0.00    +0.000 A 
ATOM     16  C   UNL     1      46.740   3.681   7.161  0.00  0.00    +0.000 A 
ATOM     17  C   UNL     1      45.761   4.173   8.028  0.00  0.00    +0.000 A 
ENDBRANCH  11  12
ENDBRANCH   9  11
ENDBRANCH   8   9
ENDBRANCH   1   8
BRANCH   4  18
ATOM     18  C   UNL     1      48.633   9.012  12.882  0.00  0.00    +0.000 C 
BRANCH  18  19
ATOM     19  N   UNL     1      49.271   9.555  11.710  0.00  0.00    +0.000 N 
ATOM     20  C   UNL     1      49.401  10.906  11.511  0.00  0.00    +0.000 C 
ATOM     21  O   UNL     1      48.996  11.743  12.313  0.00  0.00    +0.000 OA
ATOM     22  H   UNL     1      49.301   8.951  10.896  0.00  0.00    +0.000 HD
BRANCH  20  23
ATOM     23  C   UNL     1      50.124  11.295  10.289  0.00  0.00    +0.000 A 
ATOM     24  C   UNL     1      49.562  12.208   9.407  0.00  0.00    +0.000 A 
ATOM     25  S   UNL     1      50.563  12.569   8.072  0.00  0.00    +0.000 S 
ATOM     26  C   UNL     1      51.761  11.485   8.604  0.00  0.00    +0.000 A 
ATOM     27  N   UNL     1      52.898  11.290   7.884  0.00  0.00    +0.000 NA
ATOM     28  C   UNL     1      53.712  10.418   8.393  0.00  0.00    +0.000 A 
ATOM     29  N   UNL     1      53.489   9.736   9.560  0.00  0.00    +0.000 N 
ATOM     30  C   UNL     1      52.379   9.937  10.344  0.00  0.00    +0.000 A 
ATOM     31  O   UNL     1      52.253   9.368  11.421  0.00  0.00    +0.000 OA
ATOM     32  C   UNL     1      51.414  10.882   9.799  0.00  0.00    +0.000 A 
ATOM     33  H   UNL     1      54.174   9.083   9.914  0.00  0.00    +0.000 HD
ENDBRANCH  20  23
ENDBRANCH  18  19
ENDBRANCH   4  18
TORSDOF 7
ENDMDL
