MODEL 1
REMARK VINA RESULT:    -8.544      0.000      0.000
REMARK INTER + INTRA:         -12.727
REMARK INTER:                 -11.541
REMARK INTRA:                  -1.186
REMARK UNBOUND:                -1.186
REMARK  Name = 
REMARK  6 active torsions:
REMARK  status: ('A' for Active; 'I' for Inactive)
REMARK    1  A    between atoms: C_2  and  C_4
REMARK    2  A    between atoms: C_7  and  O_8
REMARK    3  A    between atoms: O_8  and  C_9
REMARK    4  A    between atoms: C_9  and  C_10
REMARK    5  A    between atoms: C_10  and  C_11
REMARK    6  A    between atoms: C_15  and  C_16
REMARK                            x       y       z     vdW  Elec       q    Type
REMARK                         _______ _______ _______ _____ _____    ______ ____
ROOT
ATOM      1  C   UNL     1      43.181   4.178  11.399  0.00  0.00    +0.000 C 
ENDROOT
BRANCH   1   2
ATOM      2  O   UNL     1      43.603   4.655  10.120  0.00  0.00    +0.000 OA
BRANCH   2   6
ATOM      3  C   UNL     1      46.327   2.448   7.861  0.00  0.00    +0.000 A 
ATOM      4  C   UNL     1      45.485   1.763   8.744  0.00  0.00    +0.000 A 
ATOM      5  C   UNL     1      44.557   2.465   9.520  0.00  0.00    +0.000 A 
ATOM      6  C   UNL     1      44.465   3.855   9.423  0.00  0.00    +0.000 A 
ATOM      7  C   UNL     1      45.317   4.538   8.547  0.00  0.00    +0.000 A 
ATOM      8  C   UNL     1      46.248   3.841   7.773  0.00  0.00    +0.000 A 
BRANCH   3  10
ATOM      9  N   UNL     1      48.356   2.483   6.512  0.00  0.00    +0.000 N 
ATOM     10  C   UNL     1      47.328   1.739   7.025  0.00  0.00    +0.000 C 
ATOM     11  O   UNL     1      47.266   0.534   6.827  0.00  0.00    +0.000 OA
ATOM     12  H   UNL     1      49.087   1.966   6.042  0.00  0.00    +0.000 HD
ATOM     13  H   UNL     1      48.583   3.401   6.864  0.00  0.00    +0.000 HD
ENDBRANCH   3  10
ENDBRANCH   2   6
ENDBRANCH   1   2
BRANCH   1  14
ATOM     14  C   UNL     1      43.347   5.305  12.419  0.00  0.00    +0.000 C 
BRANCH  14  15
ATOM     15  C   UNL     1      44.797   5.496  12.783  0.00  0.00    +0.000 A 
ATOM     16  C   UNL     1      45.527   4.454  13.360  0.00  0.00    +0.000 A 
ATOM     17  C   UNL     1      46.880   4.624  13.639  0.00  0.00    +0.000 A 
ATOM     18  C   UNL     1      47.518   5.824  13.315  0.00  0.00    +0.000 A 
ATOM     19  C   UNL     1      46.829   6.877  12.688  0.00  0.00    +0.000 A 
ATOM     20  C   UNL     1      45.452   6.696  12.459  0.00  0.00    +0.000 A 
BRANCH  19  21
ATOM     21  C   UNL     1      47.536   8.085  12.197  0.00  0.00    +0.000 A 
ATOM     22  C   UNL     1      46.895   9.338  12.193  0.00  0.00    +0.000 A 
ATOM     23  C   UNL     1      47.570  10.506  11.824  0.00  0.00    +0.000 A 
ATOM     24  C   UNL     1      48.910  10.448  11.458  0.00  0.00    +0.000 A 
ATOM     25  C   UNL     1      49.565   9.221  11.435  0.00  0.00    +0.000 A 
ATOM     26  C   UNL     1      48.883   8.051  11.791  0.00  0.00    +0.000 A 
ENDBRANCH  19  21
ENDBRANCH  14  15
ENDBRANCH   1  14
TORSDOF 6
ENDMDL
MODEL 2
REMARK VINA RESULT:    -8.423      0.949      1.531
REMARK INTER + INTRA:         -12.563
REMARK INTER:                 -11.405
REMARK INTRA:                  -1.157
REMARK UNBOUND:                -1.186
REMARK  Name = 
REMARK  6 active torsions:
REMARK  status: ('A' for Active; 'I' for Inactive)
REMARK    1  A    between atoms: C_2  and  C_4
REMARK    2  A    between atoms: C_7  and  O_8
REMARK    3  A    between atoms: O_8  and  C_9
REMARK    4  A    between atoms: C_9  and  C_10
REMARK    5  A    between atoms: C_10  and  C_11
REMARK    6  A    between atoms: C_15  and  C_16
REMARK                            x       y       z     vdW  Elec       q    Type
REMARK                         _______ _______ _______ _____ _____    ______ ____
ROOT
ATOM      1  C   UNL     1      43.389   3.304  11.654  0.00  0.00    +0.000 C 
ENDROOT
BRANCH   1   2
ATOM      2  O   UNL     1      43.482   3.918  10.367  0.00  0.00    +0.000 OA
BRANCH   2   6
ATOM      3  C   UNL     1      46.405   2.652   7.676  0.00  0.00    +0.000 A 
ATOM      4  C   UNL     1      45.763   1.689   8.464  0.00  0.00    +0.000 A 
ATOM      5  C   UNL     1      44.777   2.072   9.379  0.00  0.00    +0.000 A 
ATOM      6  C   UNL     1      44.426   3.416   9.517  0.00  0.00    +0.000 A 
ATOM      7  C   UNL     1      45.078   4.377   8.735  0.00  0.00    +0.000 A 
ATOM      8  C   UNL     1      46.067   4.000   7.822  0.00  0.00    +0.000 A 
BRANCH   3  10
ATOM      9  N   UNL     1      47.572   3.063   5.577  0.00  0.00    +0.000 N 
ATOM     10  C   UNL     1      47.460   2.286   6.698  0.00  0.00    +0.000 C 
ATOM     11  O   UNL     1      48.227   1.353   6.894  0.00  0.00    +0.000 OA
ATOM     12  H   UNL     1      48.366   2.870   4.981  0.00  0.00    +0.000 HD
ATOM     13  H   UNL     1      47.147   3.976   5.511  0.00  0.00    +0.000 HD
ENDBRANCH   3  10
ENDBRANCH   2   6
ENDBRANCH   1   2
BRANCH   1  14
ATOM     14  C   UNL     1      43.285   4.402  12.713  0.00  0.00    +0.000 C 
BRANCH  14  15
ATOM     15  C   UNL     1      44.618   5.072  12.929  0.00  0.00    +0.000 A 
ATOM     16  C   UNL     1      45.752   4.316  13.235  0.00  0.00    +0.000 A 
ATOM     17  C   UNL     1      46.988   4.941  13.375  0.00  0.00    +0.000 A 
ATOM     18  C   UNL     1      47.103   6.319  13.180  0.00  0.00    +0.000 A 
ATOM     19  C   UNL     1      45.995   7.107  12.822  0.00  0.00    +0.000 A 
ATOM     20  C   UNL     1      44.750   6.457  12.731  0.00  0.00    +0.000 A 
BRANCH  19  21
ATOM     21  C   UNL     1      46.143   8.537  12.456  0.00  0.00    +0.000 A 
ATOM     22  C   UNL     1      47.420   9.116  12.332  0.00  0.00    +0.000 A 
ATOM     23  C   UNL     1      47.589  10.434  11.898  0.00  0.00    +0.000 A 
ATOM     24  C   UNL     1      46.480  11.204  11.568  0.00  0.00    +0.000 A 
ATOM     25  C   UNL     1      45.204  10.665  11.697  0.00  0.00    +0.000 A 
ATOM     26  C   UNL     1      45.037   9.349  12.145  0.00  0.00    +0.000 A 
ENDBRANCH  19  21
ENDBRANCH  14  15
ENDBRANCH   1  14
TORSDOF 6
ENDMDL
MODEL 3
REMARK VINA RESULT:    -8.359      1.926      3.717
REMARK INTER + INTRA:         -12.477
REMARK INTER:                 -11.382
REMARK INTRA:                  -1.095
REMARK UNBOUND:                -1.186
REMARK  Name = 
REMARK  6 active torsions:
REMARK  status: ('A' for Active; 'I' for Inactive)
REMARK    1  A    between atoms: C_2  and  C_4
REMARK    2  A    between atoms: C_7  and  O_8
REMARK    3  A    between atoms: O_8  and  C_9
REMARK    4  A    between atoms: C_9  and  C_10
REMARK    5  A    between atoms: C_10  and  C_11
REMARK    6  A    between atoms: C_15  and  C_16
REMARK                            x       y       z     vdW  Elec       q    Type
REMARK                         _______ _______ _______ _____ _____    ______ ____
ROOT
ATOM      1  C   UNL     1      43.606   3.255  11.608  0.00  0.00    +0.000 C 
ENDROOT
BRANCH   1   2
ATOM      2  O   UNL     1      43.456   3.623  10.236  0.00  0.00    +0.000 OA
BRANCH   2   6
ATOM      3  C   UNL     1      46.455   2.603   7.524  0.00  0.00    +0.000 A 
ATOM      4  C   UNL     1      45.906   1.592   8.321  0.00  0.00    +0.000 A 
ATOM      5  C   UNL     1      44.898   1.891   9.243  0.00  0.00    +0.000 A 
ATOM      6  C   UNL     1      44.433   3.201   9.379  0.00  0.00    +0.000 A 
ATOM      7  C   UNL     1      44.993   4.211   8.588  0.00  0.00    +0.000 A 
ATOM      8  C   UNL     1      46.003   3.917   7.668  0.00  0.00    +0.000 A 
BRANCH   3  10
ATOM      9  N   UNL     1      47.509   3.041   5.371  0.00  0.00    +0.000 N 
ATOM     10  C   UNL     1      47.529   2.326   6.538  0.00  0.00    +0.000 C 
ATOM     11  O   UNL     1      48.422   1.520   6.764  0.00  0.00    +0.000 OA
ATOM     12  H   UNL     1      48.309   2.922   4.764  0.00  0.00    +0.000 HD
ATOM     13  H   UNL     1      46.961   3.882   5.265  0.00  0.00    +0.000 HD
ENDBRANCH   3  10
ENDBRANCH   2   6
ENDBRANCH   1   2
BRANCH   1  14
ATOM     14  C   UNL     1      43.618   4.526  12.457  0.00  0.00    +0.000 C 
BRANCH  14  15
ATOM     15  C   UNL     1      45.026   5.017  12.675  0.00  0.00    +0.000 A 
ATOM     16  C   UNL     1      45.609   5.921  11.784  0.00  0.00    +0.000 A 
ATOM     17  C   UNL     1      46.888   6.412  12.028  0.00  0.00    +0.000 A 
ATOM     18  C   UNL     1      47.581   6.025  13.178  0.00  0.00    +0.000 A 
ATOM     19  C   UNL     1      47.008   5.156  14.124  0.00  0.00    +0.000 A 
ATOM     20  C   UNL     1      45.731   4.641  13.830  0.00  0.00    +0.000 A 
BRANCH  19  21
ATOM     21  C   UNL     1      47.670   4.873  15.420  0.00  0.00    +0.000 A 
ATOM     22  C   UNL     1      47.483   3.636  16.065  0.00  0.00    +0.000 A 
ATOM     23  C   UNL     1      48.169   3.309  17.239  0.00  0.00    +0.000 A 
ATOM     24  C   UNL     1      49.069   4.213  17.792  0.00  0.00    +0.000 A 
ATOM     25  C   UNL     1      49.262   5.451  17.187  0.00  0.00    +0.000 A 
ATOM     26  C   UNL     1      48.563   5.781  16.019  0.00  0.00    +0.000 A 
ENDBRANCH  19  21
ENDBRANCH  14  15
ENDBRANCH   1  14
TORSDOF 6
ENDMDL
MODEL 4
REMARK VINA RESULT:    -7.898      3.631      6.981
REMARK INTER + INTRA:         -11.854
REMARK INTER:                 -10.653
REMARK INTRA:                  -1.201
REMARK UNBOUND:                -1.186
REMARK  Name = 
REMARK  6 active torsions:
REMARK  status: ('A' for Active; 'I' for Inactive)
REMARK    1  A    between atoms: C_2  and  C_4
REMARK    2  A    between atoms: C_7  and  O_8
REMARK    3  A    between atoms: O_8  and  C_9
REMARK    4  A    between atoms: C_9  and  C_10
REMARK    5  A    between atoms: C_10  and  C_11
REMARK    6  A    between atoms: C_15  and  C_16
REMARK                            x       y       z     vdW  Elec       q    Type
REMARK                         _______ _______ _______ _____ _____    ______ ____
ROOT
ATOM      1  C   UNL     1      45.262   7.103  12.529  0.00  0.00    +0.000 C 
ENDROOT
BRANCH   1   2
ATOM      2  O   UNL     1      46.554   6.504  12.415  0.00  0.00    +0.000 OA
BRANCH   2   6
ATOM      3  C   UNL     1      47.697   3.959  15.515  0.00  0.00    +0.000 A 
ATOM      4  C   UNL     1      48.048   5.311  15.600  0.00  0.00    +0.000 A 
ATOM      5  C   UNL     1      47.684   6.198  14.581  0.00  0.00    +0.000 A 
ATOM      6  C   UNL     1      46.971   5.743  13.471  0.00  0.00    +0.000 A 
ATOM      7  C   UNL     1      46.631   4.387  13.385  0.00  0.00    +0.000 A 
ATOM      8  C   UNL     1      46.995   3.497  14.398  0.00  0.00    +0.000 A 
BRANCH   3  10
ATOM      9  N   UNL     1      47.271   2.930  17.682  0.00  0.00    +0.000 N 
ATOM     10  C   UNL     1      48.069   2.985  16.572  0.00  0.00    +0.000 C 
ATOM     11  O   UNL     1      49.026   2.233  16.449  0.00  0.00    +0.000 OA
ATOM     12  H   UNL     1      47.472   2.186  18.337  0.00  0.00    +0.000 HD
ATOM     13  H   UNL     1      46.346   3.333  17.700  0.00  0.00    +0.000 HD
ENDBRANCH   3  10
ENDBRANCH   2   6
ENDBRANCH   1   2
BRANCH   1  14
ATOM     14  C   UNL     1      44.484   6.836  11.240  0.00  0.00    +0.000 C 
BRANCH  14  15
ATOM     15  C   UNL     1      44.374   5.357  10.972  0.00  0.00    +0.000 A 
ATOM     16  C   UNL     1      43.444   4.578  11.664  0.00  0.00    +0.000 A 
ATOM     17  C   UNL     1      43.311   3.224  11.366  0.00  0.00    +0.000 A 
ATOM     18  C   UNL     1      44.085   2.649  10.355  0.00  0.00    +0.000 A 
ATOM     19  C   UNL     1      44.996   3.412   9.602  0.00  0.00    +0.000 A 
ATOM     20  C   UNL     1      45.142   4.767   9.954  0.00  0.00    +0.000 A 
BRANCH  19  21
ATOM     21  C   UNL     1      45.697   2.845   8.425  0.00  0.00    +0.000 A 
ATOM     22  C   UNL     1      46.013   3.657   7.319  0.00  0.00    +0.000 A 
ATOM     23  C   UNL     1      46.755   3.169   6.240  0.00  0.00    +0.000 A 
ATOM     24  C   UNL     1      47.209   1.855   6.245  0.00  0.00    +0.000 A 
ATOM     25  C   UNL     1      46.897   1.024   7.316  0.00  0.00    +0.000 A 
ATOM     26  C   UNL     1      46.142   1.510   8.389  0.00  0.00    +0.000 A 
ENDBRANCH  19  21
ENDBRANCH  14  15
ENDBRANCH   1  14
TORSDOF 6
ENDMDL
MODEL 5
REMARK VINA RESULT:    -7.833      1.402      2.109
REMARK INTER + INTRA:         -11.767
REMARK INTER:                 -10.844
REMARK INTRA:                  -0.922
REMARK UNBOUND:                -1.186
REMARK  Name = 
REMARK  6 active torsions:
REMARK  status: ('A' for Active; 'I' for Inactive)
REMARK    1  A    between atoms: C_2  and  C_4
REMARK    2  A    between atoms: C_7  and  O_8
REMARK    3  A    between atoms: O_8  and  C_9
REMARK    4  A    between atoms: C_9  and  C_10
REMARK    5  A    between atoms: C_10  and  C_11
REMARK    6  A    between atoms: C_15  and  C_16
REMARK                            x       y       z     vdW  Elec       q    Type
REMARK                         _______ _______ _______ _____ _____    ______ ____
ROOT
ATOM      1  C   UNL     1      43.485   2.941  11.663  0.00  0.00    +0.000 C 
ENDROOT
BRANCH   1   2
ATOM      2  O   UNL     1      43.482   3.602  10.396  0.00  0.00    +0.000 OA
BRANCH   2   6
ATOM      3  C   UNL     1      46.383   2.655   7.553  0.00  0.00    +0.000 A 
ATOM      4  C   UNL     1      45.898   1.632   8.376  0.00  0.00    +0.000 A 
ATOM      5  C   UNL     1      44.925   1.907   9.342  0.00  0.00    +0.000 A 
ATOM      6  C   UNL     1      44.431   3.204   9.496  0.00  0.00    +0.000 A 
ATOM      7  C   UNL     1      44.927   4.226   8.678  0.00  0.00    +0.000 A 
ATOM      8  C   UNL     1      45.902   3.957   7.714  0.00  0.00    +0.000 A 
BRANCH   3  10
ATOM      9  N   UNL     1      47.457   3.256   5.450  0.00  0.00    +0.000 N 
ATOM     10  C   UNL     1      47.419   2.404   6.520  0.00  0.00    +0.000 C 
ATOM     11  O   UNL     1      48.235   1.498   6.630  0.00  0.00    +0.000 OA
ATOM     12  H   UNL     1      48.237   3.140   4.817  0.00  0.00    +0.000 HD
ATOM     13  H   UNL     1      46.988   4.150   5.458  0.00  0.00    +0.000 HD
ENDBRANCH   3  10
ENDBRANCH   2   6
ENDBRANCH   1   2
BRANCH   1  14
ATOM     14  C   UNL     1      43.509   4.000  12.765  0.00  0.00    +0.000 C 
BRANCH  14  15
ATOM     15  C   UNL     1      44.120   5.285  12.268  0.00  0.00    +0.000 A 
ATOM     16  C   UNL     1      43.331   6.246  11.630  0.00  0.00    +0.000 A 
ATOM     17  C   UNL     1      43.895   7.453  11.228  0.00  0.00    +0.000 A 
ATOM     18  C   UNL     1      45.243   7.718  11.485  0.00  0.00    +0.000 A 
ATOM     19  C   UNL     1      46.056   6.797  12.169  0.00  0.00    +0.000 A 
ATOM     20  C   UNL     1      45.472   5.567  12.525  0.00  0.00    +0.000 A 
BRANCH  19  21
ATOM     21  C   UNL     1      47.437   7.141  12.587  0.00  0.00    +0.000 A 
ATOM     22  C   UNL     1      47.832   7.009  13.932  0.00  0.00    +0.000 A 
ATOM     23  C   UNL     1      49.151   7.237  14.334  0.00  0.00    +0.000 A 
ATOM     24  C   UNL     1      50.112   7.593  13.395  0.00  0.00    +0.000 A 
ATOM     25  C   UNL     1      49.748   7.748  12.062  0.00  0.00    +0.000 A 
ATOM     26  C   UNL     1      48.423   7.533  11.663  0.00  0.00    +0.000 A 
ENDBRANCH  19  21
ENDBRANCH  14  15
ENDBRANCH   1  14
TORSDOF 6
ENDMDL
MODEL 6
REMARK VINA RESULT:    -7.118      3.076      6.951
REMARK INTER + INTRA:         -10.801
REMARK INTER:                  -9.912
REMARK INTRA:                  -0.889
REMARK UNBOUND:                -1.186
REMARK  Name = 
REMARK  6 active torsions:
REMARK  status: ('A' for Active; 'I' for Inactive)
REMARK    1  A    between atoms: C_2  and  C_4
REMARK    2  A    between atoms: C_7  and  O_8
REMARK    3  A    between atoms: O_8  and  C_9
REMARK    4  A    between atoms: C_9  and  C_10
REMARK    5  A    between atoms: C_10  and  C_11
REMARK    6  A    between atoms: C_15  and  C_16
REMARK                            x       y       z     vdW  Elec       q    Type
REMARK                         _______ _______ _______ _____ _____    ______ ____
ROOT
ATOM      1  C   UNL     1      45.579   6.815  12.533  0.00  0.00    +0.000 C 
ENDROOT
BRANCH   1   2
ATOM      2  O   UNL     1      45.991   8.176  12.387  0.00  0.00    +0.000 OA
BRANCH   2   6
ATOM      3  C   UNL     1      50.067   8.545  11.585  0.00  0.00    +0.000 A 
ATOM      4  C   UNL     1      49.296   9.711  11.669  0.00  0.00    +0.000 A 
ATOM      5  C   UNL     1      47.926   9.631  11.936  0.00  0.00    +0.000 A 
ATOM      6  C   UNL     1      47.314   8.389  12.118  0.00  0.00    +0.000 A 
ATOM      7  C   UNL     1      48.086   7.225  12.022  0.00  0.00    +0.000 A 
ATOM      8  C   UNL     1      49.455   7.300  11.751  0.00  0.00    +0.000 A 
BRANCH   3  10
ATOM      9  N   UNL     1      52.358   8.003  12.210  0.00  0.00    +0.000 N 
ATOM     10  C   UNL     1      51.522   8.588  11.298  0.00  0.00    +0.000 C 
ATOM     11  O   UNL     1      51.964   9.090  10.273  0.00  0.00    +0.000 OA
ATOM     12  H   UNL     1      53.333   7.941  11.943  0.00  0.00    +0.000 HD
ATOM     13  H   UNL     1      52.023   7.362  12.913  0.00  0.00    +0.000 HD
ENDBRANCH   3  10
ENDBRANCH   2   6
ENDBRANCH   1   2
BRANCH   1  14
ATOM     14  C   UNL     1      44.374   6.569  11.625  0.00  0.00    +0.000 C 
BRANCH  14  15
ATOM     15  C   UNL     1      44.287   5.119  11.224  0.00  0.00    +0.000 A 
ATOM     16  C   UNL     1      43.369   4.266  11.840  0.00  0.00    +0.000 A 
ATOM     17  C   UNL     1      43.257   2.943  11.421  0.00  0.00    +0.000 A 
ATOM     18  C   UNL     1      44.042   2.474  10.364  0.00  0.00    +0.000 A 
ATOM     19  C   UNL     1      44.942   3.316   9.686  0.00  0.00    +0.000 A 
ATOM     20  C   UNL     1      45.066   4.635  10.160  0.00  0.00    +0.000 A 
BRANCH  19  21
ATOM     21  C   UNL     1      45.654   2.868   8.464  0.00  0.00    +0.000 A 
ATOM     22  C   UNL     1      45.892   3.764   7.405  0.00  0.00    +0.000 A 
ATOM     23  C   UNL     1      46.641   3.393   6.285  0.00  0.00    +0.000 A 
ATOM     24  C   UNL     1      47.181   2.115   6.202  0.00  0.00    +0.000 A 
ATOM     25  C   UNL     1      46.948   1.202   7.226  0.00  0.00    +0.000 A 
ATOM     26  C   UNL     1      46.185   1.571   8.340  0.00  0.00    +0.000 A 
ENDBRANCH  19  21
ENDBRANCH  14  15
ENDBRANCH   1  14
TORSDOF 6
ENDMDL
MODEL 7
REMARK VINA RESULT:    -6.972      3.944      7.453
REMARK INTER + INTRA:         -10.604
REMARK INTER:                  -9.369
REMARK INTRA:                  -1.235
REMARK UNBOUND:                -1.186
REMARK  Name = 
REMARK  6 active torsions:
REMARK  status: ('A' for Active; 'I' for Inactive)
REMARK    1  A    between atoms: C_2  and  C_4
REMARK    2  A    between atoms: C_7  and  O_8
REMARK    3  A    between atoms: O_8  and  C_9
REMARK    4  A    between atoms: C_9  and  C_10
REMARK    5  A    between atoms: C_10  and  C_11
REMARK    6  A    between atoms: C_15  and  C_16
REMARK                            x       y       z     vdW  Elec       q    Type
REMARK                         _______ _______ _______ _____ _____    ______ ____
ROOT
ATOM      1  C   UNL     1      49.539   7.305  13.027  0.00  0.00    +0.000 C 
ENDROOT
BRANCH   1   2
ATOM      2  O   UNL     1      49.022   7.592  14.328  0.00  0.00    +0.000 OA
BRANCH   2   6
ATOM      3  C   UNL     1      47.885   4.419  16.785  0.00  0.00    +0.000 A 
ATOM      4  C   UNL     1      47.332   4.499  15.501  0.00  0.00    +0.000 A 
ATOM      5  C   UNL     1      47.687   5.547  14.646  0.00  0.00    +0.000 A 
ATOM      6  C   UNL     1      48.592   6.524  15.064  0.00  0.00    +0.000 A 
ATOM      7  C   UNL     1      49.135   6.447  16.353  0.00  0.00    +0.000 A 
ATOM      8  C   UNL     1      48.780   5.404  17.213  0.00  0.00    +0.000 A 
BRANCH   3  10
ATOM      9  N   UNL     1      48.364   3.118  18.788  0.00  0.00    +0.000 N 
ATOM     10  C   UNL     1      47.529   3.326  17.723  0.00  0.00    +0.000 C 
ATOM     11  O   UNL     1      46.515   2.657  17.582  0.00  0.00    +0.000 OA
ATOM     12  H   UNL     1      48.047   2.448  19.477  0.00  0.00    +0.000 HD
ATOM     13  H   UNL     1      49.044   3.804  19.080  0.00  0.00    +0.000 HD
ENDBRANCH   3  10
ENDBRANCH   2   6
ENDBRANCH   1   2
BRANCH   1  14
ATOM     14  C   UNL     1      48.815   8.185  12.008  0.00  0.00    +0.000 C 
BRANCH  14  15
ATOM     15  C   UNL     1      47.358   7.815  11.912  0.00  0.00    +0.000 A 
ATOM     16  C   UNL     1      46.370   8.700  12.350  0.00  0.00    +0.000 A 
ATOM     17  C   UNL     1      45.026   8.371  12.203  0.00  0.00    +0.000 A 
ATOM     18  C   UNL     1      44.661   7.168  11.591  0.00  0.00    +0.000 A 
ATOM     19  C   UNL     1      45.625   6.274  11.093  0.00  0.00    +0.000 A 
ATOM     20  C   UNL     1      46.977   6.611  11.295  0.00  0.00    +0.000 A 
BRANCH  19  21
ATOM     21  C   UNL     1      45.242   5.080  10.302  0.00  0.00    +0.000 A 
ATOM     22  C   UNL     1      45.671   4.936   8.969  0.00  0.00    +0.000 A 
ATOM     23  C   UNL     1      45.403   3.778   8.233  0.00  0.00    +0.000 A 
ATOM     24  C   UNL     1      44.703   2.729   8.819  0.00  0.00    +0.000 A 
ATOM     25  C   UNL     1      44.251   2.849  10.128  0.00  0.00    +0.000 A 
ATOM     26  C   UNL     1      44.509   4.016  10.859  0.00  0.00    +0.000 A 
ENDBRANCH  19  21
ENDBRANCH  14  15
ENDBRANCH   1  14
TORSDOF 6
ENDMDL
MODEL 8
REMARK VINA RESULT:    -6.968      4.763      8.225
REMARK INTER + INTRA:         -10.598
REMARK INTER:                 -10.070
REMARK INTRA:                  -0.528
REMARK UNBOUND:                -1.186
REMARK  Name = 
REMARK  6 active torsions:
REMARK  status: ('A' for Active; 'I' for Inactive)
REMARK    1  A    between atoms: C_2  and  C_4
REMARK    2  A    between atoms: C_7  and  O_8
REMARK    3  A    between atoms: O_8  and  C_9
REMARK    4  A    between atoms: C_9  and  C_10
REMARK    5  A    between atoms: C_10  and  C_11
REMARK    6  A    between atoms: C_15  and  C_16
REMARK                            x       y       z     vdW  Elec       q    Type
REMARK                         _______ _______ _______ _____ _____    ______ ____
ROOT
ATOM      1  C   UNL     1      47.069   4.271  13.809  0.00  0.00    +0.000 C 
ENDROOT
BRANCH   1   2
ATOM      2  O   UNL     1      47.371   3.188  14.691  0.00  0.00    +0.000 OA
BRANCH   2   6
ATOM      3  C   UNL     1      48.461   4.467  18.508  0.00  0.00    +0.000 A 
ATOM      4  C   UNL     1      48.157   3.113  18.320  0.00  0.00    +0.000 A 
ATOM      5  C   UNL     1      47.787   2.643  17.056  0.00  0.00    +0.000 A 
ATOM      6  C   UNL     1      47.714   3.520  15.971  0.00  0.00    +0.000 A 
ATOM      7  C   UNL     1      48.008   4.875  16.166  0.00  0.00    +0.000 A 
ATOM      8  C   UNL     1      48.375   5.349  17.428  0.00  0.00    +0.000 A 
BRANCH   3  10
ATOM      9  N   UNL     1      47.873   5.104  20.785  0.00  0.00    +0.000 N 
ATOM     10  C   UNL     1      48.853   5.004  19.835  0.00  0.00    +0.000 C 
ATOM     11  O   UNL     1      50.009   5.313  20.091  0.00  0.00    +0.000 OA
ATOM     12  H   UNL     1      48.179   5.363  21.714  0.00  0.00    +0.000 HD
ATOM     13  H   UNL     1      46.990   4.622  20.700  0.00  0.00    +0.000 HD
ENDBRANCH   3  10
ENDBRANCH   2   6
ENDBRANCH   1   2
BRANCH   1  14
ATOM     14  C   UNL     1      45.616   4.692  14.031  0.00  0.00    +0.000 C 
BRANCH  14  15
ATOM     15  C   UNL     1      44.839   4.654  12.741  0.00  0.00    +0.000 A 
ATOM     16  C   UNL     1      43.639   5.358  12.614  0.00  0.00    +0.000 A 
ATOM     17  C   UNL     1      42.960   5.363  11.399  0.00  0.00    +0.000 A 
ATOM     18  C   UNL     1      43.491   4.688  10.296  0.00  0.00    +0.000 A 
ATOM     19  C   UNL     1      44.721   4.010  10.371  0.00  0.00    +0.000 A 
ATOM     20  C   UNL     1      45.363   3.984  11.623  0.00  0.00    +0.000 A 
BRANCH  19  21
ATOM     21  C   UNL     1      45.364   3.433   9.166  0.00  0.00    +0.000 A 
ATOM     22  C   UNL     1      45.868   4.270   8.152  0.00  0.00    +0.000 A 
ATOM     23  C   UNL     1      46.561   3.756   7.053  0.00  0.00    +0.000 A 
ATOM     24  C   UNL     1      46.776   2.387   6.946  0.00  0.00    +0.000 A 
ATOM     25  C   UNL     1      46.275   1.532   7.923  0.00  0.00    +0.000 A 
ATOM     26  C   UNL     1      45.569   2.049   9.016  0.00  0.00    +0.000 A 
ENDBRANCH  19  21
ENDBRANCH  14  15
ENDBRANCH   1  14
TORSDOF 6
ENDMDL
MODEL 9
REMARK VINA RESULT:    -6.736      3.269      7.060
REMARK INTER + INTRA:         -10.285
REMARK INTER:                  -9.113
REMARK INTRA:                  -1.172
REMARK UNBOUND:                -1.186
REMARK  Name = 
REMARK  6 active torsions:
REMARK  status: ('A' for Active; 'I' for Inactive)
REMARK    1  A    between atoms: C_2  and  C_4
REMARK    2  A    between atoms: C_7  and  O_8
REMARK    3  A    between atoms: O_8  and  C_9
REMARK    4  A    between atoms: C_9  and  C_10
REMARK    5  A    between atoms: C_10  and  C_11
REMARK    6  A    between atoms: C_15  and  C_16
REMARK                            x       y       z     vdW  Elec       q    Type
REMARK                         _______ _______ _______ _____ _____    ______ ____
ROOT
ATOM      1  C   UNL     1      47.110   4.343  13.811  0.00  0.00    +0.000 C 
ENDROOT
BRANCH   1   2
ATOM      2  O   UNL     1      47.914   5.377  14.381  0.00  0.00    +0.000 OA
BRANCH   2   6
ATOM      3  C   UNL     1      48.028   9.147  12.601  0.00  0.00    +0.000 A 
ATOM      4  C   UNL     1      47.806   8.032  11.785  0.00  0.00    +0.000 A 
ATOM      5  C   UNL     1      47.761   6.749  12.342  0.00  0.00    +0.000 A 
ATOM      6  C   UNL     1      47.939   6.570  13.715  0.00  0.00    +0.000 A 
ATOM      7  C   UNL     1      48.172   7.688  14.526  0.00  0.00    +0.000 A 
ATOM      8  C   UNL     1      48.222   8.970  13.974  0.00  0.00    +0.000 A 
BRANCH   3  10
ATOM      9  N   UNL     1      47.092  11.389  12.410  0.00  0.00    +0.000 N 
ATOM     10  C   UNL     1      48.088  10.523  12.047  0.00  0.00    +0.000 C 
ATOM     11  O   UNL     1      49.005  10.889  11.325  0.00  0.00    +0.000 OA
ATOM     12  H   UNL     1      47.211  12.350  12.116  0.00  0.00    +0.000 HD
ATOM     13  H   UNL     1      46.483  11.210  13.194  0.00  0.00    +0.000 HD
ENDBRANCH   3  10
ENDBRANCH   2   6
ENDBRANCH   1   2
BRANCH   1  14
ATOM     14  C   UNL     1      45.640   4.661  14.084  0.00  0.00    +0.000 C 
BRANCH  14  15
ATOM     15  C   UNL     1      44.831   4.615  12.813  0.00  0.00    +0.000 A 
ATOM     16  C   UNL     1      43.626   5.313  12.713  0.00  0.00    +0.000 A 
ATOM     17  C   UNL     1      42.917   5.309  11.515  0.00  0.00    +0.000 A 
ATOM     18  C   UNL     1      43.424   4.633  10.402  0.00  0.00    +0.000 A 
ATOM     19  C   UNL     1      44.658   3.960  10.449  0.00  0.00    +0.000 A 
ATOM     20  C   UNL     1      45.331   3.943  11.685  0.00  0.00    +0.000 A 
BRANCH  19  21
ATOM     21  C   UNL     1      45.275   3.382   9.231  0.00  0.00    +0.000 A 
ATOM     22  C   UNL     1      45.774   4.218   8.214  0.00  0.00    +0.000 A 
ATOM     23  C   UNL     1      46.443   3.701   7.101  0.00  0.00    +0.000 A 
ATOM     24  C   UNL     1      46.637   2.329   6.983  0.00  0.00    +0.000 A 
ATOM     25  C   UNL     1      46.140   1.476   7.963  0.00  0.00    +0.000 A 
ATOM     26  C   UNL     1      45.458   1.996   9.070  0.00  0.00    +0.000 A 
ENDBRANCH  19  21
ENDBRANCH  14  15
ENDBRANCH   1  14
TORSDOF 6
ENDMDL
