MODEL 1
REMARK VINA RESULT:    -8.456      0.000      0.000
REMARK INTER + INTRA:         -10.905
REMARK INTER:                  -9.939
REMARK INTRA:                  -0.967
REMARK UNBOUND:                -0.967
REMARK  Name = 
REMARK  5 active torsions:
REMARK  status: ('A' for Active; 'I' for Inactive)
REMARK    1  A    between atoms: C_1  and  C_2
REMARK    2  A    between atoms: C_4  and  C_5
REMARK    3  A    between atoms: C_8  and  N_9
REMARK    4  A    between atoms: C_10  and  C_11
REMARK    5  A    between atoms: C_15  and  C_16
REMARK                            x       y       z     vdW  Elec       q    Type
REMARK                         _______ _______ _______ _____ _____    ______ ____
ROOT
ATOM      1  N   UNL     1      44.043   4.536   9.683  0.00  0.00    +0.000 NA
ATOM      2  C   UNL     1      44.078   4.972  10.873  0.00  0.00    +0.000 C 
ATOM      3  C   UNL     1      42.687   4.791  11.509  0.00  0.00    +0.000 C 
ATOM      4  C   UNL     1      43.113   6.153  11.095  0.00  0.00    +0.000 C 
ENDROOT
BRANCH   1  12
ATOM      5  C   UNL     1      44.288   1.671   9.604  0.00  0.00    +0.000 C 
ATOM      6  C   UNL     1      45.156   2.591   8.795  0.00  0.00    +0.000 A 
ATOM      7  C   UNL     1      46.096   2.019   7.921  0.00  0.00    +0.000 A 
ATOM      8  C   UNL     1      46.908   2.832   7.144  0.00  0.00    +0.000 A 
ATOM      9  C   UNL     1      47.901   2.249   6.192  0.00  0.00    +0.000 C 
ATOM     10  C   UNL     1      46.751   4.201   7.302  0.00  0.00    +0.000 A 
ATOM     11  N   UNL     1      45.872   4.788   8.155  0.00  0.00    +0.000 NA
ATOM     12  C   UNL     1      45.035   3.992   8.850  0.00  0.00    +0.000 A 
ENDBRANCH   1  12
BRANCH   2  13
ATOM     13  C   UNL     1      45.329   5.115  11.783  0.00  0.00    +0.000 A 
ATOM     14  C   UNL     1      45.678   4.139  12.745  0.00  0.00    +0.000 A 
ATOM     15  C   UNL     1      46.668   4.352  13.708  0.00  0.00    +0.000 A 
ATOM     16  C   UNL     1      47.434   5.510  13.669  0.00  0.00    +0.000 A 
ATOM     17  C   UNL     1      47.222   6.467  12.667  0.00  0.00    +0.000 A 
ATOM     18  C   UNL     1      46.102   6.289  11.825  0.00  0.00    +0.000 A 
BRANCH  17  19
ATOM     19  C   UNL     1      48.184   7.557  12.390  0.00  0.00    +0.000 A 
ATOM     20  C   UNL     1      49.517   7.310  12.065  0.00  0.00    +0.000 A 
ATOM     21  C   UNL     1      50.314   8.348  11.603  0.00  0.00    +0.000 A 
ATOM     22  C   UNL     1      49.767   9.614  11.464  0.00  0.00    +0.000 A 
ATOM     23  C   UNL     1      48.447   9.795  11.829  0.00  0.00    +0.000 A 
ATOM     24  N   UNL     1      47.655   8.810  12.295  0.00  0.00    +0.000 NA
ENDBRANCH  17  19
ENDBRANCH   2  13
TORSDOF 3
ENDMDL
MODEL 2
REMARK VINA RESULT:    -8.355      1.712      3.309
REMARK INTER + INTRA:         -10.787
REMARK INTER:                  -9.980
REMARK INTRA:                  -0.807
REMARK UNBOUND:                -0.967
REMARK  Name = 
REMARK  5 active torsions:
REMARK  status: ('A' for Active; 'I' for Inactive)
REMARK    1  A    between atoms: C_1  and  C_2
REMARK    2  A    between atoms: C_4  and  C_5
REMARK    3  A    between atoms: C_8  and  N_9
REMARK    4  A    between atoms: C_10  and  C_11
REMARK    5  A    between atoms: C_15  and  C_16
REMARK                            x       y       z     vdW  Elec       q    Type
REMARK                         _______ _______ _______ _____ _____    ______ ____
ROOT
ATOM      1  N   UNL     1      44.027   4.521  10.048  0.00  0.00    +0.000 NA
ATOM      2  C   UNL     1      44.132   5.151  11.143  0.00  0.00    +0.000 C 
ATOM      3  C   UNL     1      42.899   4.845  12.014  0.00  0.00    +0.000 C 
ATOM      4  C   UNL     1      42.995   6.170  11.348  0.00  0.00    +0.000 C 
ENDROOT
BRANCH   1  12
ATOM      5  C   UNL     1      44.257   1.664   9.804  0.00  0.00    +0.000 C 
ATOM      6  C   UNL     1      45.100   2.625   9.017  0.00  0.00    +0.000 A 
ATOM      7  C   UNL     1      46.007   2.100   8.081  0.00  0.00    +0.000 A 
ATOM      8  C   UNL     1      46.794   2.953   7.321  0.00  0.00    +0.000 A 
ATOM      9  C   UNL     1      47.751   2.421   6.305  0.00  0.00    +0.000 C 
ATOM     10  C   UNL     1      46.648   4.312   7.559  0.00  0.00    +0.000 A 
ATOM     11  N   UNL     1      45.801   4.853   8.473  0.00  0.00    +0.000 NA
ATOM     12  C   UNL     1      44.986   4.022   9.152  0.00  0.00    +0.000 A 
ENDBRANCH   1  12
BRANCH   2  13
ATOM     13  C   UNL     1      45.441   5.658  11.811  0.00  0.00    +0.000 A 
ATOM     14  C   UNL     1      46.253   6.653  11.219  0.00  0.00    +0.000 A 
ATOM     15  C   UNL     1      47.530   6.963  11.695  0.00  0.00    +0.000 A 
ATOM     16  C   UNL     1      47.997   6.370  12.861  0.00  0.00    +0.000 A 
ATOM     17  C   UNL     1      47.194   5.463  13.566  0.00  0.00    +0.000 A 
ATOM     18  C   UNL     1      45.988   5.052  12.956  0.00  0.00    +0.000 A 
BRANCH  17  19
ATOM     19  C   UNL     1      47.502   5.034  14.949  0.00  0.00    +0.000 A 
ATOM     20  C   UNL     1      47.001   3.852  15.492  0.00  0.00    +0.000 A 
ATOM     21  C   UNL     1      47.494   3.391  16.705  0.00  0.00    +0.000 A 
ATOM     22  C   UNL     1      48.486   4.113  17.352  0.00  0.00    +0.000 A 
ATOM     23  C   UNL     1      48.918   5.289  16.772  0.00  0.00    +0.000 A 
ATOM     24  N   UNL     1      48.447   5.768  15.605  0.00  0.00    +0.000 NA
ENDBRANCH  17  19
ENDBRANCH   2  13
TORSDOF 3
ENDMDL
MODEL 3
REMARK VINA RESULT:    -6.800      2.630      7.735
REMARK INTER + INTRA:          -8.959
REMARK INTER:                  -7.837
REMARK INTRA:                  -1.121
REMARK UNBOUND:                -0.967
REMARK  Name = 
REMARK  5 active torsions:
REMARK  status: ('A' for Active; 'I' for Inactive)
REMARK    1  A    between atoms: C_1  and  C_2
REMARK    2  A    between atoms: C_4  and  C_5
REMARK    3  A    between atoms: C_8  and  N_9
REMARK    4  A    between atoms: C_10  and  C_11
REMARK    5  A    between atoms: C_15  and  C_16
REMARK                            x       y       z     vdW  Elec       q    Type
REMARK                         _______ _______ _______ _____ _____    ______ ____
ROOT
ATOM      1  N   UNL     1      49.866   7.797  13.716  0.00  0.00    +0.000 NA
ATOM      2  C   UNL     1      49.268   7.899  12.603  0.00  0.00    +0.000 C 
ATOM      3  C   UNL     1      50.275   7.621  11.471  0.00  0.00    +0.000 C 
ATOM      4  C   UNL     1      49.849   9.023  11.724  0.00  0.00    +0.000 C 
ENDROOT
BRANCH   1  12
ATOM      5  C   UNL     1      49.290   9.936  15.553  0.00  0.00    +0.000 C 
ATOM      6  C   UNL     1      49.119   8.485  15.903  0.00  0.00    +0.000 A 
ATOM      7  C   UNL     1      48.605   8.165  17.170  0.00  0.00    +0.000 A 
ATOM      8  C   UNL     1      48.416   6.838  17.529  0.00  0.00    +0.000 A 
ATOM      9  C   UNL     1      47.852   6.471  18.863  0.00  0.00    +0.000 C 
ATOM     10  C   UNL     1      48.781   5.883  16.593  0.00  0.00    +0.000 A 
ATOM     11  N   UNL     1      49.305   6.155  15.369  0.00  0.00    +0.000 NA
ATOM     12  C   UNL     1      49.414   7.447  15.000  0.00  0.00    +0.000 A 
ENDBRANCH   1  12
BRANCH   2  13
ATOM     13  C   UNL     1      47.745   7.736  12.339  0.00  0.00    +0.000 A 
ATOM     14  C   UNL     1      46.790   8.649  12.842  0.00  0.00    +0.000 A 
ATOM     15  C   UNL     1      45.415   8.402  12.795  0.00  0.00    +0.000 A 
ATOM     16  C   UNL     1      44.936   7.281  12.130  0.00  0.00    +0.000 A 
ATOM     17  C   UNL     1      45.823   6.395  11.502  0.00  0.00    +0.000 A 
ATOM     18  C   UNL     1      47.204   6.592  11.724  0.00  0.00    +0.000 A 
BRANCH  17  19
ATOM     19  C   UNL     1      45.373   5.368  10.537  0.00  0.00    +0.000 A 
ATOM     20  C   UNL     1      45.860   5.306   9.233  0.00  0.00    +0.000 A 
ATOM     21  C   UNL     1      45.573   4.200   8.444  0.00  0.00    +0.000 A 
ATOM     22  C   UNL     1      44.812   3.169   8.973  0.00  0.00    +0.000 A 
ATOM     23  C   UNL     1      44.339   3.306  10.263  0.00  0.00    +0.000 A 
ATOM     24  N   UNL     1      44.588   4.374  11.045  0.00  0.00    +0.000 NA
ENDBRANCH  17  19
ENDBRANCH   2  13
TORSDOF 3
ENDMDL
MODEL 4
REMARK VINA RESULT:    -6.127      3.163      6.110
REMARK INTER + INTRA:          -8.169
REMARK INTER:                  -7.259
REMARK INTRA:                  -0.910
REMARK UNBOUND:                -0.967
REMARK  Name = 
REMARK  5 active torsions:
REMARK  status: ('A' for Active; 'I' for Inactive)
REMARK    1  A    between atoms: C_1  and  C_2
REMARK    2  A    between atoms: C_4  and  C_5
REMARK    3  A    between atoms: C_8  and  N_9
REMARK    4  A    between atoms: C_10  and  C_11
REMARK    5  A    between atoms: C_15  and  C_16
REMARK                            x       y       z     vdW  Elec       q    Type
REMARK                         _______ _______ _______ _____ _____    ______ ____
ROOT
ATOM      1  N   UNL     1      47.443   7.483  11.774  0.00  0.00    +0.000 NA
ATOM      2  C   UNL     1      48.198   8.130  12.559  0.00  0.00    +0.000 C 
ATOM      3  C   UNL     1      48.594   9.458  11.886  0.00  0.00    +0.000 C 
ATOM      4  C   UNL     1      49.600   8.366  11.964  0.00  0.00    +0.000 C 
ENDROOT
BRANCH   1  12
ATOM      5  C   UNL     1      44.722   8.330  11.373  0.00  0.00    +0.000 C 
ATOM      6  C   UNL     1      45.094   6.940  11.804  0.00  0.00    +0.000 A 
ATOM      7  C   UNL     1      44.064   5.999  11.968  0.00  0.00    +0.000 A 
ATOM      8  C   UNL     1      44.364   4.699  12.349  0.00  0.00    +0.000 A 
ATOM      9  C   UNL     1      43.290   3.674  12.510  0.00  0.00    +0.000 C 
ATOM     10  C   UNL     1      45.701   4.410  12.575  0.00  0.00    +0.000 A 
ATOM     11  N   UNL     1      46.720   5.301  12.451  0.00  0.00    +0.000 NA
ATOM     12  C   UNL     1      46.428   6.540  12.007  0.00  0.00    +0.000 A 
ENDBRANCH   1  12
BRANCH   2  13
ATOM     13  C   UNL     1      48.281   7.994  14.105  0.00  0.00    +0.000 A 
ATOM     14  C   UNL     1      48.052   9.088  14.971  0.00  0.00    +0.000 A 
ATOM     15  C   UNL     1      48.330   9.035  16.340  0.00  0.00    +0.000 A 
ATOM     16  C   UNL     1      48.736   7.838  16.917  0.00  0.00    +0.000 A 
ATOM     17  C   UNL     1      48.867   6.682  16.136  0.00  0.00    +0.000 A 
ATOM     18  C   UNL     1      48.744   6.826  14.737  0.00  0.00    +0.000 A 
BRANCH  17  19
ATOM     19  C   UNL     1      48.998   5.332  16.728  0.00  0.00    +0.000 A 
ATOM     20  C   UNL     1      47.940   4.424  16.755  0.00  0.00    +0.000 A 
ATOM     21  C   UNL     1      48.177   3.105  17.118  0.00  0.00    +0.000 A 
ATOM     22  C   UNL     1      49.466   2.711  17.440  0.00  0.00    +0.000 A 
ATOM     23  C   UNL     1      50.463   3.668  17.418  0.00  0.00    +0.000 A 
ATOM     24  N   UNL     1      50.260   4.957  17.085  0.00  0.00    +0.000 NA
ENDBRANCH  17  19
ENDBRANCH   2  13
TORSDOF 3
ENDMDL
MODEL 5
REMARK VINA RESULT:    -5.876      3.957      7.911
REMARK INTER + INTRA:          -7.873
REMARK INTER:                  -6.724
REMARK INTRA:                  -1.149
REMARK UNBOUND:                -0.967
REMARK  Name = 
REMARK  5 active torsions:
REMARK  status: ('A' for Active; 'I' for Inactive)
REMARK    1  A    between atoms: C_1  and  C_2
REMARK    2  A    between atoms: C_4  and  C_5
REMARK    3  A    between atoms: C_8  and  N_9
REMARK    4  A    between atoms: C_10  and  C_11
REMARK    5  A    between atoms: C_15  and  C_16
REMARK                            x       y       z     vdW  Elec       q    Type
REMARK                         _______ _______ _______ _____ _____    ______ ____
ROOT
ATOM      1  N   UNL     1      49.569   7.026  17.616  0.00  0.00    +0.000 NA
ATOM      2  C   UNL     1      49.302   7.850  16.690  0.00  0.00    +0.000 C 
ATOM      3  C   UNL     1      49.591   9.276  17.195  0.00  0.00    +0.000 C 
ATOM      4  C   UNL     1      48.178   8.829  17.080  0.00  0.00    +0.000 C 
ENDROOT
BRANCH   1  12
ATOM      5  C   UNL     1      47.516   5.012  17.683  0.00  0.00    +0.000 C 
ATOM      6  C   UNL     1      48.981   4.689  17.614  0.00  0.00    +0.000 A 
ATOM      7  C   UNL     1      49.359   3.338  17.526  0.00  0.00    +0.000 A 
ATOM      8  C   UNL     1      50.701   2.996  17.444  0.00  0.00    +0.000 A 
ATOM      9  C   UNL     1      51.128   1.569  17.330  0.00  0.00    +0.000 C 
ATOM     10  C   UNL     1      51.613   4.040  17.479  0.00  0.00    +0.000 A 
ATOM     11  N   UNL     1      51.284   5.354  17.590  0.00  0.00    +0.000 NA
ATOM     12  C   UNL     1      49.977   5.682  17.592  0.00  0.00    +0.000 A 
ENDBRANCH   1  12
BRANCH   2  13
ATOM     13  C   UNL     1      49.266   7.565  15.163  0.00  0.00    +0.000 A 
ATOM     14  C   UNL     1      50.294   7.995  14.291  0.00  0.00    +0.000 A 
ATOM     15  C   UNL     1      50.174   7.935  12.900  0.00  0.00    +0.000 A 
ATOM     16  C   UNL     1      49.064   7.327  12.326  0.00  0.00    +0.000 A 
ATOM     17  C   UNL     1      48.064   6.771  13.134  0.00  0.00    +0.000 A 
ATOM     18  C   UNL     1      48.144   7.008  14.524  0.00  0.00    +0.000 A 
BRANCH  17  19
ATOM     19  C   UNL     1      47.026   5.859  12.603  0.00  0.00    +0.000 A 
ATOM     20  C   UNL     1      46.547   4.771  13.330  0.00  0.00    +0.000 A 
ATOM     21  C   UNL     1      45.427   4.085  12.880  0.00  0.00    +0.000 A 
ATOM     22  C   UNL     1      44.799   4.500  11.716  0.00  0.00    +0.000 A 
ATOM     23  C   UNL     1      45.342   5.569  11.030  0.00  0.00    +0.000 A 
ATOM     24  N   UNL     1      46.435   6.244  11.435  0.00  0.00    +0.000 NA
ENDBRANCH  17  19
ENDBRANCH   2  13
TORSDOF 3
ENDMDL
MODEL 6
REMARK VINA RESULT:    -5.840      4.244      8.746
REMARK INTER + INTRA:          -7.831
REMARK INTER:                  -6.950
REMARK INTRA:                  -0.880
REMARK UNBOUND:                -0.967
REMARK  Name = 
REMARK  5 active torsions:
REMARK  status: ('A' for Active; 'I' for Inactive)
REMARK    1  A    between atoms: C_1  and  C_2
REMARK    2  A    between atoms: C_4  and  C_5
REMARK    3  A    between atoms: C_8  and  N_9
REMARK    4  A    between atoms: C_10  and  C_11
REMARK    5  A    between atoms: C_15  and  C_16
REMARK                            x       y       z     vdW  Elec       q    Type
REMARK                         _______ _______ _______ _____ _____    ______ ____
ROOT
ATOM      1  N   UNL     1      48.298   4.777  18.043  0.00  0.00    +0.000 NA
ATOM      2  C   UNL     1      47.962   4.244  16.943  0.00  0.00    +0.000 C 
ATOM      3  C   UNL     1      47.262   2.903  17.233  0.00  0.00    +0.000 C 
ATOM      4  C   UNL     1      48.654   2.887  16.712  0.00  0.00    +0.000 C 
ENDROOT
BRANCH   1  12
ATOM      5  C   UNL     1      50.979   5.821  18.018  0.00  0.00    +0.000 C 
ATOM      6  C   UNL     1      49.782   6.641  18.407  0.00  0.00    +0.000 A 
ATOM      7  C   UNL     1      49.981   7.996  18.723  0.00  0.00    +0.000 A 
ATOM      8  C   UNL     1      48.901   8.794  19.072  0.00  0.00    +0.000 A 
ATOM      9  C   UNL     1      49.082  10.242  19.393  0.00  0.00    +0.000 C 
ATOM     10  C   UNL     1      47.659   8.177  19.111  0.00  0.00    +0.000 A 
ATOM     11  N   UNL     1      47.434   6.866  18.838  0.00  0.00    +0.000 NA
ATOM     12  C   UNL     1      48.476   6.117  18.426  0.00  0.00    +0.000 A 
ENDBRANCH   1  12
BRANCH   2  13
ATOM     13  C   UNL     1      47.716   4.966  15.589  0.00  0.00    +0.000 A 
ATOM     14  C   UNL     1      48.492   6.072  15.172  0.00  0.00    +0.000 A 
ATOM     15  C   UNL     1      48.149   6.858  14.068  0.00  0.00    +0.000 A 
ATOM     16  C   UNL     1      47.078   6.491  13.264  0.00  0.00    +0.000 A 
ATOM     17  C   UNL     1      46.338   5.336  13.550  0.00  0.00    +0.000 A 
ATOM     18  C   UNL     1      46.612   4.674  14.768  0.00  0.00    +0.000 A 
BRANCH  17  19
ATOM     19  C   UNL     1      45.395   4.733  12.582  0.00  0.00    +0.000 A 
ATOM     20  C   UNL     1      45.360   5.113  11.241  0.00  0.00    +0.000 A 
ATOM     21  C   UNL     1      44.617   4.366  10.336  0.00  0.00    +0.000 A 
ATOM     22  C   UNL     1      43.928   3.249  10.782  0.00  0.00    +0.000 A 
ATOM     23  C   UNL     1      43.985   2.945  12.128  0.00  0.00    +0.000 A 
ATOM     24  N   UNL     1      44.684   3.659  13.031  0.00  0.00    +0.000 NA
ENDBRANCH  17  19
ENDBRANCH   2  13
TORSDOF 3
ENDMDL
MODEL 7
REMARK VINA RESULT:    -5.777      3.531      7.031
REMARK INTER + INTRA:          -7.757
REMARK INTER:                  -6.641
REMARK INTRA:                  -1.116
REMARK UNBOUND:                -0.967
REMARK  Name = 
REMARK  5 active torsions:
REMARK  status: ('A' for Active; 'I' for Inactive)
REMARK    1  A    between atoms: C_1  and  C_2
REMARK    2  A    between atoms: C_4  and  C_5
REMARK    3  A    between atoms: C_8  and  N_9
REMARK    4  A    between atoms: C_10  and  C_11
REMARK    5  A    between atoms: C_15  and  C_16
REMARK                            x       y       z     vdW  Elec       q    Type
REMARK                         _______ _______ _______ _____ _____    ______ ____
ROOT
ATOM      1  N   UNL     1      48.380   9.602  13.567  0.00  0.00    +0.000 NA
ATOM      2  C   UNL     1      48.818   9.744  14.747  0.00  0.00    +0.000 C 
ATOM      3  C   UNL     1      49.178  11.225  14.970  0.00  0.00    +0.000 C 
ATOM      4  C   UNL     1      50.276  10.242  14.778  0.00  0.00    +0.000 C 
ENDROOT
BRANCH   1  12
ATOM      5  C   UNL     1      49.482   7.492  11.950  0.00  0.00    +0.000 C 
ATOM      6  C   UNL     1      48.011   7.640  12.215  0.00  0.00    +0.000 A 
ATOM      7  C   UNL     1      47.141   6.670  11.689  0.00  0.00    +0.000 A 
ATOM      8  C   UNL     1      45.777   6.759  11.923  0.00  0.00    +0.000 A 
ATOM      9  C   UNL     1      44.833   5.730  11.392  0.00  0.00    +0.000 C 
ATOM     10  C   UNL     1      45.343   7.848  12.665  0.00  0.00    +0.000 A 
ATOM     11  N   UNL     1      46.151   8.817  13.166  0.00  0.00    +0.000 NA
ATOM     12  C   UNL     1      47.482   8.682  12.999  0.00  0.00    +0.000 A 
ENDBRANCH   1  12
BRANCH   2  13
ATOM     13  C   UNL     1      48.533   8.827  15.970  0.00  0.00    +0.000 A 
ATOM     14  C   UNL     1      47.971   9.323  17.169  0.00  0.00    +0.000 A 
ATOM     15  C   UNL     1      47.907   8.563  18.340  0.00  0.00    +0.000 A 
ATOM     16  C   UNL     1      48.297   7.229  18.322  0.00  0.00    +0.000 A 
ATOM     17  C   UNL     1      48.752   6.639  17.135  0.00  0.00    +0.000 A 
ATOM     18  C   UNL     1      48.961   7.488  16.026  0.00  0.00    +0.000 A 
BRANCH  17  19
ATOM     19  C   UNL     1      48.892   5.175  16.977  0.00  0.00    +0.000 A 
ATOM     20  C   UNL     1      50.011   4.479  17.431  0.00  0.00    +0.000 A 
ATOM     21  C   UNL     1      49.993   3.091  17.455  0.00  0.00    +0.000 A 
ATOM     22  C   UNL     1      48.855   2.420  17.035  0.00  0.00    +0.000 A 
ATOM     23  C   UNL     1      47.792   3.170  16.572  0.00  0.00    +0.000 A 
ATOM     24  N   UNL     1      47.787   4.516  16.522  0.00  0.00    +0.000 NA
ENDBRANCH  17  19
ENDBRANCH   2  13
TORSDOF 3
ENDMDL
MODEL 8
REMARK VINA RESULT:    -5.753      2.377      4.373
REMARK INTER + INTRA:          -7.729
REMARK INTER:                  -6.874
REMARK INTRA:                  -0.854
REMARK UNBOUND:                -0.967
REMARK  Name = 
REMARK  5 active torsions:
REMARK  status: ('A' for Active; 'I' for Inactive)
REMARK    1  A    between atoms: C_1  and  C_2
REMARK    2  A    between atoms: C_4  and  C_5
REMARK    3  A    between atoms: C_8  and  N_9
REMARK    4  A    between atoms: C_10  and  C_11
REMARK    5  A    between atoms: C_15  and  C_16
REMARK                            x       y       z     vdW  Elec       q    Type
REMARK                         _______ _______ _______ _____ _____    ______ ____
ROOT
ATOM      1  N   UNL     1      44.488   7.421  11.100  0.00  0.00    +0.000 NA
ATOM      2  C   UNL     1      45.261   8.145  11.796  0.00  0.00    +0.000 C 
ATOM      3  C   UNL     1      44.423   9.216  12.519  0.00  0.00    +0.000 C 
ATOM      4  C   UNL     1      45.246   9.620  11.349  0.00  0.00    +0.000 C 
ENDROOT
BRANCH   1  12
ATOM      5  C   UNL     1      42.798   5.498  12.413  0.00  0.00    +0.000 C 
ATOM      6  C   UNL     1      43.745   5.137  11.306  0.00  0.00    +0.000 A 
ATOM      7  C   UNL     1      43.766   3.805  10.859  0.00  0.00    +0.000 A 
ATOM      8  C   UNL     1      44.615   3.431   9.827  0.00  0.00    +0.000 A 
ATOM      9  C   UNL     1      44.642   2.026   9.320  0.00  0.00    +0.000 C 
ATOM     10  C   UNL     1      45.431   4.422   9.303  0.00  0.00    +0.000 A 
ATOM     11  N   UNL     1      45.456   5.713   9.728  0.00  0.00    +0.000 NA
ATOM     12  C   UNL     1      44.575   6.084  10.678  0.00  0.00    +0.000 A 
ENDBRANCH   1  12
BRANCH   2  13
ATOM     13  C   UNL     1      46.662   7.760  12.347  0.00  0.00    +0.000 A 
ATOM     14  C   UNL     1      47.860   8.206  11.742  0.00  0.00    +0.000 A 
ATOM     15  C   UNL     1      49.114   7.700  12.093  0.00  0.00    +0.000 A 
ATOM     16  C   UNL     1      49.229   6.810  13.153  0.00  0.00    +0.000 A 
ATOM     17  C   UNL     1      48.095   6.417  13.876  0.00  0.00    +0.000 A 
ATOM     18  C   UNL     1      46.835   6.818  13.377  0.00  0.00    +0.000 A 
BRANCH  17  19
ATOM     19  C   UNL     1      48.182   5.724  15.181  0.00  0.00    +0.000 A 
ATOM     20  C   UNL     1      48.780   6.308  16.296  0.00  0.00    +0.000 A 
ATOM     21  C   UNL     1      48.640   5.711  17.542  0.00  0.00    +0.000 A 
ATOM     22  C   UNL     1      47.898   4.546  17.655  0.00  0.00    +0.000 A 
ATOM     23  C   UNL     1      47.355   4.006  16.506  0.00  0.00    +0.000 A 
ATOM     24  N   UNL     1      47.487   4.555  15.283  0.00  0.00    +0.000 NA
ENDBRANCH  17  19
ENDBRANCH   2  13
TORSDOF 3
ENDMDL
MODEL 9
REMARK VINA RESULT:    -5.728      2.860      8.013
REMARK INTER + INTRA:          -7.700
REMARK INTER:                  -6.752
REMARK INTRA:                  -0.948
REMARK UNBOUND:                -0.967
REMARK  Name = 
REMARK  5 active torsions:
REMARK  status: ('A' for Active; 'I' for Inactive)
REMARK    1  A    between atoms: C_1  and  C_2
REMARK    2  A    between atoms: C_4  and  C_5
REMARK    3  A    between atoms: C_8  and  N_9
REMARK    4  A    between atoms: C_10  and  C_11
REMARK    5  A    between atoms: C_15  and  C_16
REMARK                            x       y       z     vdW  Elec       q    Type
REMARK                         _______ _______ _______ _____ _____    ______ ____
ROOT
ATOM      1  N   UNL     1      49.784   8.809  13.722  0.00  0.00    +0.000 NA
ATOM      2  C   UNL     1      49.270   8.429  12.627  0.00  0.00    +0.000 C 
ATOM      3  C   UNL     1      50.333   7.665  11.817  0.00  0.00    +0.000 C 
ATOM      4  C   UNL     1      49.973   9.046  11.402  0.00  0.00    +0.000 C 
ENDROOT
BRANCH   1  12
ATOM      5  C   UNL     1      49.203   6.543  15.397  0.00  0.00    +0.000 C 
ATOM      6  C   UNL     1      48.950   7.962  15.819  0.00  0.00    +0.000 A 
ATOM      7  C   UNL     1      48.453   8.190  17.113  0.00  0.00    +0.000 A 
ATOM      8  C   UNL     1      48.219   9.487  17.549  0.00  0.00    +0.000 A 
ATOM      9  C   UNL     1      47.711   9.758  18.928  0.00  0.00    +0.000 C 
ATOM     10  C   UNL     1      48.476  10.504  16.642  0.00  0.00    +0.000 A 
ATOM     11  N   UNL     1      48.932  10.318  15.376  0.00  0.00    +0.000 NA
ATOM     12  C   UNL     1      49.228   9.062  14.987  0.00  0.00    +0.000 A 
ENDBRANCH   1  12
BRANCH   2  13
ATOM     13  C   UNL     1      47.762   8.202  12.330  0.00  0.00    +0.000 A 
ATOM     14  C   UNL     1      46.785   9.191  12.585  0.00  0.00    +0.000 A 
ATOM     15  C   UNL     1      45.413   8.928  12.525  0.00  0.00    +0.000 A 
ATOM     16  C   UNL     1      44.965   7.689  12.086  0.00  0.00    +0.000 A 
ATOM     17  C   UNL     1      45.880   6.700  11.700  0.00  0.00    +0.000 A 
ATOM     18  C   UNL     1      47.249   6.950  11.942  0.00  0.00    +0.000 A 
BRANCH  17  19
ATOM     19  C   UNL     1      45.476   5.489  10.951  0.00  0.00    +0.000 A 
ATOM     20  C   UNL     1      44.633   4.522  11.495  0.00  0.00    +0.000 A 
ATOM     21  C   UNL     1      44.112   3.527  10.678  0.00  0.00    +0.000 A 
ATOM     22  C   UNL     1      44.435   3.519   9.330  0.00  0.00    +0.000 A 
ATOM     23  C   UNL     1      45.297   4.491   8.862  0.00  0.00    +0.000 A 
ATOM     24  N   UNL     1      45.829   5.458   9.633  0.00  0.00    +0.000 NA
ENDBRANCH  17  19
ENDBRANCH   2  13
TORSDOF 3
ENDMDL
