MODEL 1
REMARK VINA RESULT:    -8.539      0.000      0.000
REMARK INTER + INTRA:         -12.726
REMARK INTER:                 -11.534
REMARK INTRA:                  -1.192
REMARK UNBOUND:                -1.192
REMARK  Name = 
REMARK  6 active torsions:
REMARK  status: ('A' for Active; 'I' for Inactive)
REMARK    1  A    between atoms: C_2  and  C_4
REMARK    2  A    between atoms: C_7  and  O_8
REMARK    3  A    between atoms: O_8  and  C_9
REMARK    4  A    between atoms: C_9  and  C_10
REMARK    5  A    between atoms: C_10  and  C_11
REMARK    6  A    between atoms: C_15  and  C_16
REMARK                            x       y       z     vdW  Elec       q    Type
REMARK                         _______ _______ _______ _____ _____    ______ ____
ROOT
ATOM      1  C   UNL     1      43.334   3.828  11.388  0.00  0.00    +0.000 C 
ENDROOT
BRANCH   1   2
ATOM      2  O   UNL     1      43.615   4.501  10.158  0.00  0.00    +0.000 OA
BRANCH   2   6
ATOM      3  C   UNL     1      46.396   2.471   7.802  0.00  0.00    +0.000 A 
ATOM      4  C   UNL     1      46.303   3.861   7.673  0.00  0.00    +0.000 A 
ATOM      5  C   UNL     1      45.380   4.578   8.443  0.00  0.00    +0.000 A 
ATOM      6  C   UNL     1      44.545   3.912   9.344  0.00  0.00    +0.000 A 
ATOM      7  C   UNL     1      44.627   2.522   9.454  0.00  0.00    +0.000 A 
ATOM      8  C   UNL     1      45.543   1.800   8.683  0.00  0.00    +0.000 A 
BRANCH   3  10
ATOM      9  N   UNL     1      48.467   2.349   6.533  0.00  0.00    +0.000 N 
ATOM     10  C   UNL     1      47.371   1.680   7.005  0.00  0.00    +0.000 C 
ATOM     11  O   UNL     1      47.226   0.484   6.812  0.00  0.00    +0.000 OA
ATOM     12  H   UNL     1      49.177   1.783   6.085  0.00  0.00    +0.000 HD
ATOM     13  H   UNL     1      48.746   3.252   6.889  0.00  0.00    +0.000 HD
ENDBRANCH   3  10
ENDBRANCH   2   6
ENDBRANCH   1   2
BRANCH   1  14
ATOM     14  C   UNL     1      43.364   4.842  12.531  0.00  0.00    +0.000 C 
BRANCH  14  15
ATOM     15  C   UNL     1      44.785   5.193  12.890  0.00  0.00    +0.000 A 
ATOM     16  C   UNL     1      45.653   4.236  13.419  0.00  0.00    +0.000 A 
ATOM     17  C   UNL     1      46.986   4.561  13.662  0.00  0.00    +0.000 A 
ATOM     18  C   UNL     1      47.464   5.834  13.347  0.00  0.00    +0.000 A 
ATOM     19  C   UNL     1      46.634   6.806  12.763  0.00  0.00    +0.000 A 
ATOM     20  C   UNL     1      45.281   6.469  12.581  0.00  0.00    +0.000 A 
BRANCH  19  21
ATOM     21  C   UNL     1      47.171   8.079  12.228  0.00  0.00    +0.000 A 
ATOM     22  C   UNL     1      46.378   9.241  12.210  0.00  0.00    +0.000 A 
ATOM     23  C   UNL     1      46.910  10.483  11.861  0.00  0.00    +0.000 A 
ATOM     24  C   UNL     1      48.253  10.592  11.520  0.00  0.00    +0.000 A 
ATOM     25  C   UNL     1      49.054   9.456  11.492  0.00  0.00    +0.000 A 
ATOM     26  C   UNL     1      48.516   8.210  11.830  0.00  0.00    +0.000 A 
ENDBRANCH  19  21
ENDBRANCH  14  15
ENDBRANCH   1  14
TORSDOF 6
ENDMDL
MODEL 2
REMARK VINA RESULT:    -8.369      1.940      3.910
REMARK INTER + INTRA:         -12.497
REMARK INTER:                 -11.349
REMARK INTRA:                  -1.147
REMARK UNBOUND:                -1.192
REMARK  Name = 
REMARK  6 active torsions:
REMARK  status: ('A' for Active; 'I' for Inactive)
REMARK    1  A    between atoms: C_2  and  C_4
REMARK    2  A    between atoms: C_7  and  O_8
REMARK    3  A    between atoms: O_8  and  C_9
REMARK    4  A    between atoms: C_9  and  C_10
REMARK    5  A    between atoms: C_10  and  C_11
REMARK    6  A    between atoms: C_15  and  C_16
REMARK                            x       y       z     vdW  Elec       q    Type
REMARK                         _______ _______ _______ _____ _____    ______ ____
ROOT
ATOM      1  C   UNL     1      43.520   4.958  10.792  0.00  0.00    +0.000 C 
ENDROOT
BRANCH   1   2
ATOM      2  O   UNL     1      43.391   3.635  10.265  0.00  0.00    +0.000 OA
BRANCH   2   6
ATOM      3  C   UNL     1      46.439   2.617   7.603  0.00  0.00    +0.000 A 
ATOM      4  C   UNL     1      45.872   1.604   8.385  0.00  0.00    +0.000 A 
ATOM      5  C   UNL     1      44.850   1.906   9.292  0.00  0.00    +0.000 A 
ATOM      6  C   UNL     1      44.390   3.218   9.425  0.00  0.00    +0.000 A 
ATOM      7  C   UNL     1      44.973   4.230   8.657  0.00  0.00    +0.000 A 
ATOM      8  C   UNL     1      45.999   3.934   7.754  0.00  0.00    +0.000 A 
BRANCH   3  10
ATOM      9  N   UNL     1      47.524   3.071   5.475  0.00  0.00    +0.000 N 
ATOM     10  C   UNL     1      47.520   2.329   6.625  0.00  0.00    +0.000 C 
ATOM     11  O   UNL     1      48.388   1.501   6.848  0.00  0.00    +0.000 OA
ATOM     12  H   UNL     1      48.322   2.944   4.865  0.00  0.00    +0.000 HD
ATOM     13  H   UNL     1      46.993   3.924   5.379  0.00  0.00    +0.000 HD
ENDBRANCH   3  10
ENDBRANCH   2   6
ENDBRANCH   1   2
BRANCH   1  14
ATOM     14  C   UNL     1      43.801   4.874  12.293  0.00  0.00    +0.000 C 
BRANCH  14  15
ATOM     15  C   UNL     1      45.231   5.247  12.585  0.00  0.00    +0.000 A 
ATOM     16  C   UNL     1      45.925   6.141  11.767  0.00  0.00    +0.000 A 
ATOM     17  C   UNL     1      47.217   6.539  12.105  0.00  0.00    +0.000 A 
ATOM     18  C   UNL     1      47.808   6.069  13.280  0.00  0.00    +0.000 A 
ATOM     19  C   UNL     1      47.120   5.211  14.156  0.00  0.00    +0.000 A 
ATOM     20  C   UNL     1      45.840   4.783  13.760  0.00  0.00    +0.000 A 
BRANCH  19  21
ATOM     21  C   UNL     1      47.644   4.877  15.500  0.00  0.00    +0.000 A 
ATOM     22  C   UNL     1      47.367   3.628  16.088  0.00  0.00    +0.000 A 
ATOM     23  C   UNL     1      47.978   3.230  17.278  0.00  0.00    +0.000 A 
ATOM     24  C   UNL     1      48.883   4.074  17.911  0.00  0.00    +0.000 A 
ATOM     25  C   UNL     1      49.150   5.328  17.374  0.00  0.00    +0.000 A 
ATOM     26  C   UNL     1      48.528   5.731  16.188  0.00  0.00    +0.000 A 
ENDBRANCH  19  21
ENDBRANCH  14  15
ENDBRANCH   1  14
TORSDOF 6
ENDMDL
MODEL 3
REMARK VINA RESULT:    -7.967      1.468      2.208
REMARK INTER + INTRA:         -11.954
REMARK INTER:                 -10.722
REMARK INTRA:                  -1.231
REMARK UNBOUND:                -1.192
REMARK  Name = 
REMARK  6 active torsions:
REMARK  status: ('A' for Active; 'I' for Inactive)
REMARK    1  A    between atoms: C_2  and  C_4
REMARK    2  A    between atoms: C_7  and  O_8
REMARK    3  A    between atoms: O_8  and  C_9
REMARK    4  A    between atoms: C_9  and  C_10
REMARK    5  A    between atoms: C_10  and  C_11
REMARK    6  A    between atoms: C_15  and  C_16
REMARK                            x       y       z     vdW  Elec       q    Type
REMARK                         _______ _______ _______ _____ _____    ______ ____
ROOT
ATOM      1  C   UNL     1      43.868   2.766  11.814  0.00  0.00    +0.000 C 
ENDROOT
BRANCH   1   2
ATOM      2  O   UNL     1      43.460   3.133  10.494  0.00  0.00    +0.000 OA
BRANCH   2   6
ATOM      3  C   UNL     1      46.414   2.652   7.587  0.00  0.00    +0.000 A 
ATOM      4  C   UNL     1      45.944   3.943   7.852  0.00  0.00    +0.000 A 
ATOM      5  C   UNL     1      44.951   4.145   8.816  0.00  0.00    +0.000 A 
ATOM      6  C   UNL     1      44.421   3.062   9.522  0.00  0.00    +0.000 A 
ATOM      7  C   UNL     1      44.879   1.772   9.240  0.00  0.00    +0.000 A 
ATOM      8  C   UNL     1      45.867   1.564   8.273  0.00  0.00    +0.000 A 
BRANCH   3  10
ATOM      9  N   UNL     1      47.389   3.112   5.407  0.00  0.00    +0.000 N 
ATOM     10  C   UNL     1      47.474   2.403   6.575  0.00  0.00    +0.000 C 
ATOM     11  O   UNL     1      48.398   1.635   6.784  0.00  0.00    +0.000 OA
ATOM     12  H   UNL     1      48.170   3.017   4.770  0.00  0.00    +0.000 HD
ATOM     13  H   UNL     1      46.804   3.930   5.311  0.00  0.00    +0.000 HD
ENDBRANCH   3  10
ENDBRANCH   2   6
ENDBRANCH   1   2
BRANCH   1  14
ATOM     14  C   UNL     1      43.566   3.921  12.770  0.00  0.00    +0.000 C 
BRANCH  14  15
ATOM     15  C   UNL     1      44.124   5.213  12.230  0.00  0.00    +0.000 A 
ATOM     16  C   UNL     1      43.298   6.154  11.612  0.00  0.00    +0.000 A 
ATOM     17  C   UNL     1      43.820   7.378  11.198  0.00  0.00    +0.000 A 
ATOM     18  C   UNL     1      45.164   7.679  11.432  0.00  0.00    +0.000 A 
ATOM     19  C   UNL     1      46.012   6.779  12.100  0.00  0.00    +0.000 A 
ATOM     20  C   UNL     1      45.472   5.531  12.455  0.00  0.00    +0.000 A 
BRANCH  19  21
ATOM     21  C   UNL     1      47.372   7.166  12.543  0.00  0.00    +0.000 A 
ATOM     22  C   UNL     1      47.787   6.933  13.868  0.00  0.00    +0.000 A 
ATOM     23  C   UNL     1      49.108   7.140  14.266  0.00  0.00    +0.000 A 
ATOM     24  C   UNL     1      50.049   7.587  13.346  0.00  0.00    +0.000 A 
ATOM     25  C   UNL     1      49.662   7.861  12.039  0.00  0.00    +0.000 A 
ATOM     26  C   UNL     1      48.334   7.665  11.644  0.00  0.00    +0.000 A 
ENDBRANCH  19  21
ENDBRANCH  14  15
ENDBRANCH   1  14
TORSDOF 6
ENDMDL
MODEL 4
REMARK VINA RESULT:    -7.809      3.483      7.098
REMARK INTER + INTRA:         -11.741
REMARK INTER:                 -10.524
REMARK INTRA:                  -1.217
REMARK UNBOUND:                -1.192
REMARK  Name = 
REMARK  6 active torsions:
REMARK  status: ('A' for Active; 'I' for Inactive)
REMARK    1  A    between atoms: C_2  and  C_4
REMARK    2  A    between atoms: C_7  and  O_8
REMARK    3  A    between atoms: O_8  and  C_9
REMARK    4  A    between atoms: C_9  and  C_10
REMARK    5  A    between atoms: C_10  and  C_11
REMARK    6  A    between atoms: C_15  and  C_16
REMARK                            x       y       z     vdW  Elec       q    Type
REMARK                         _______ _______ _______ _____ _____    ______ ____
ROOT
ATOM      1  C   UNL     1      45.781   7.698  12.564  0.00  0.00    +0.000 C 
ENDROOT
BRANCH   1   2
ATOM      2  O   UNL     1      47.072   7.089  12.641  0.00  0.00    +0.000 OA
BRANCH   2   6
ATOM      3  C   UNL     1      47.548   4.438  15.827  0.00  0.00    +0.000 A 
ATOM      4  C   UNL     1      48.288   5.625  15.833  0.00  0.00    +0.000 A 
ATOM      5  C   UNL     1      48.159   6.538  14.781  0.00  0.00    +0.000 A 
ATOM      6  C   UNL     1      47.293   6.272  13.717  0.00  0.00    +0.000 A 
ATOM      7  C   UNL     1      46.572   5.075  13.706  0.00  0.00    +0.000 A 
ATOM      8  C   UNL     1      46.702   4.157  14.752  0.00  0.00    +0.000 A 
BRANCH   3  10
ATOM      9  N   UNL     1      48.917   3.147  17.369  0.00  0.00    +0.000 N 
ATOM     10  C   UNL     1      47.655   3.450  16.933  0.00  0.00    +0.000 C 
ATOM     11  O   UNL     1      46.669   2.960  17.457  0.00  0.00    +0.000 OA
ATOM     12  H   UNL     1      48.976   2.558  18.190  0.00  0.00    +0.000 HD
ATOM     13  H   UNL     1      49.719   3.719  17.144  0.00  0.00    +0.000 HD
ENDBRANCH   3  10
ENDBRANCH   2   6
ENDBRANCH   1   2
BRANCH   1  14
ATOM     14  C   UNL     1      45.211   7.487  11.161  0.00  0.00    +0.000 C 
BRANCH  14  15
ATOM     15  C   UNL     1      44.771   6.057  10.978  0.00  0.00    +0.000 A 
ATOM     16  C   UNL     1      43.620   5.571  11.601  0.00  0.00    +0.000 A 
ATOM     17  C   UNL     1      43.185   4.271  11.348  0.00  0.00    +0.000 A 
ATOM     18  C   UNL     1      43.882   3.464  10.447  0.00  0.00    +0.000 A 
ATOM     19  C   UNL     1      45.014   3.937   9.761  0.00  0.00    +0.000 A 
ATOM     20  C   UNL     1      45.461   5.232  10.078  0.00  0.00    +0.000 A 
BRANCH  19  21
ATOM     21  C   UNL     1      45.634   3.176   8.651  0.00  0.00    +0.000 A 
ATOM     22  C   UNL     1      46.180   3.846   7.540  0.00  0.00    +0.000 A 
ATOM     23  C   UNL     1      46.907   3.165   6.563  0.00  0.00    +0.000 A 
ATOM     24  C   UNL     1      47.106   1.794   6.673  0.00  0.00    +0.000 A 
ATOM     25  C   UNL     1      46.548   1.098   7.740  0.00  0.00    +0.000 A 
ATOM     26  C   UNL     1      45.809   1.780   8.713  0.00  0.00    +0.000 A 
ENDBRANCH  19  21
ENDBRANCH  14  15
ENDBRANCH   1  14
TORSDOF 6
ENDMDL
MODEL 5
REMARK VINA RESULT:    -7.175      1.190      2.349
REMARK INTER + INTRA:         -10.884
REMARK INTER:                 -10.065
REMARK INTRA:                  -0.819
REMARK UNBOUND:                -1.192
REMARK  Name = 
REMARK  6 active torsions:
REMARK  status: ('A' for Active; 'I' for Inactive)
REMARK    1  A    between atoms: C_2  and  C_4
REMARK    2  A    between atoms: C_7  and  O_8
REMARK    3  A    between atoms: O_8  and  C_9
REMARK    4  A    between atoms: C_9  and  C_10
REMARK    5  A    between atoms: C_10  and  C_11
REMARK    6  A    between atoms: C_15  and  C_16
REMARK                            x       y       z     vdW  Elec       q    Type
REMARK                         _______ _______ _______ _____ _____    ______ ____
ROOT
ATOM      1  C   UNL     1      43.995   4.431  11.552  0.00  0.00    +0.000 C 
ENDROOT
BRANCH   1   2
ATOM      2  O   UNL     1      43.777   4.488  10.140  0.00  0.00    +0.000 OA
BRANCH   2   6
ATOM      3  C   UNL     1      46.598   2.691   7.645  0.00  0.00    +0.000 A 
ATOM      4  C   UNL     1      45.824   1.871   8.474  0.00  0.00    +0.000 A 
ATOM      5  C   UNL     1      44.870   2.436   9.327  0.00  0.00    +0.000 A 
ATOM      6  C   UNL     1      44.684   3.820   9.360  0.00  0.00    +0.000 A 
ATOM      7  C   UNL     1      45.473   4.637   8.546  0.00  0.00    +0.000 A 
ATOM      8  C   UNL     1      46.432   4.078   7.696  0.00  0.00    +0.000 A 
BRANCH   3  10
ATOM      9  N   UNL     1      48.011   2.916   5.678  0.00  0.00    +0.000 N 
ATOM     10  C   UNL     1      47.614   2.123   6.721  0.00  0.00    +0.000 C 
ATOM     11  O   UNL     1      48.105   1.021   6.901  0.00  0.00    +0.000 OA
ATOM     12  H   UNL     1      48.778   2.566   5.118  0.00  0.00    +0.000 HD
ATOM     13  H   UNL     1      47.828   3.909   5.653  0.00  0.00    +0.000 HD
ENDBRANCH   3  10
ENDBRANCH   2   6
ENDBRANCH   1   2
BRANCH   1  14
ATOM     14  C   UNL     1      45.483   4.639  11.837  0.00  0.00    +0.000 C 
BRANCH  14  15
ATOM     15  C   UNL     1      45.784   6.102  12.033  0.00  0.00    +0.000 A 
ATOM     16  C   UNL     1      44.800   6.988  12.476  0.00  0.00    +0.000 A 
ATOM     17  C   UNL     1      45.123   8.320  12.733  0.00  0.00    +0.000 A 
ATOM     18  C   UNL     1      46.439   8.762  12.578  0.00  0.00    +0.000 A 
ATOM     19  C   UNL     1      47.466   7.886  12.186  0.00  0.00    +0.000 A 
ATOM     20  C   UNL     1      47.100   6.564  11.880  0.00  0.00    +0.000 A 
BRANCH  19  21
ATOM     21  C   UNL     1      48.893   8.284  12.225  0.00  0.00    +0.000 A 
ATOM     22  C   UNL     1      49.419   9.161  11.258  0.00  0.00    +0.000 A 
ATOM     23  C   UNL     1      50.713   9.673  11.364  0.00  0.00    +0.000 A 
ATOM     24  C   UNL     1      51.514   9.320  12.443  0.00  0.00    +0.000 A 
ATOM     25  C   UNL     1      51.035   8.427  13.396  0.00  0.00    +0.000 A 
ATOM     26  C   UNL     1      49.743   7.904  13.281  0.00  0.00    +0.000 A 
ENDBRANCH  19  21
ENDBRANCH  14  15
ENDBRANCH   1  14
TORSDOF 6
ENDMDL
MODEL 6
REMARK VINA RESULT:    -7.129      4.645      7.885
REMARK INTER + INTRA:         -10.821
REMARK INTER:                 -10.126
REMARK INTRA:                  -0.695
REMARK UNBOUND:                -1.192
REMARK  Name = 
REMARK  6 active torsions:
REMARK  status: ('A' for Active; 'I' for Inactive)
REMARK    1  A    between atoms: C_2  and  C_4
REMARK    2  A    between atoms: C_7  and  O_8
REMARK    3  A    between atoms: O_8  and  C_9
REMARK    4  A    between atoms: C_9  and  C_10
REMARK    5  A    between atoms: C_10  and  C_11
REMARK    6  A    between atoms: C_15  and  C_16
REMARK                            x       y       z     vdW  Elec       q    Type
REMARK                         _______ _______ _______ _____ _____    ______ ____
ROOT
ATOM      1  C   UNL     1      46.883   4.142  14.320  0.00  0.00    +0.000 C 
ENDROOT
BRANCH   1   2
ATOM      2  O   UNL     1      46.866   3.958  15.738  0.00  0.00    +0.000 OA
BRANCH   2   6
ATOM      3  C   UNL     1      50.521   2.991  17.502  0.00  0.00    +0.000 A 
ATOM      4  C   UNL     1      50.086   4.319  17.558  0.00  0.00    +0.000 A 
ATOM      5  C   UNL     1      48.868   4.684  16.975  0.00  0.00    +0.000 A 
ATOM      6  C   UNL     1      48.078   3.727  16.332  0.00  0.00    +0.000 A 
ATOM      7  C   UNL     1      48.526   2.406  16.262  0.00  0.00    +0.000 A 
ATOM      8  C   UNL     1      49.746   2.037  16.837  0.00  0.00    +0.000 A 
BRANCH   3  10
ATOM      9  N   UNL     1      52.068   1.224  18.137  0.00  0.00    +0.000 N 
ATOM     10  C   UNL     1      51.806   2.568  18.118  0.00  0.00    +0.000 C 
ATOM     11  O   UNL     1      52.611   3.376  18.551  0.00  0.00    +0.000 OA
ATOM     12  H   UNL     1      52.989   0.954  18.460  0.00  0.00    +0.000 HD
ATOM     13  H   UNL     1      51.561   0.566  17.564  0.00  0.00    +0.000 HD
ENDBRANCH   3  10
ENDBRANCH   2   6
ENDBRANCH   1   2
BRANCH   1  14
ATOM     14  C   UNL     1      45.994   5.333  13.960  0.00  0.00    +0.000 C 
BRANCH  14  15
ATOM     15  C   UNL     1      45.022   4.956  12.871  0.00  0.00    +0.000 A 
ATOM     16  C   UNL     1      43.693   5.383  12.911  0.00  0.00    +0.000 A 
ATOM     17  C   UNL     1      42.835   5.096  11.851  0.00  0.00    +0.000 A 
ATOM     18  C   UNL     1      43.311   4.409  10.732  0.00  0.00    +0.000 A 
ATOM     19  C   UNL     1      44.656   4.011  10.633  0.00  0.00    +0.000 A 
ATOM     20  C   UNL     1      45.484   4.265  11.741  0.00  0.00    +0.000 A 
BRANCH  19  21
ATOM     21  C   UNL     1      45.225   3.477   9.374  0.00  0.00    +0.000 A 
ATOM     22  C   UNL     1      45.754   4.347   8.401  0.00  0.00    +0.000 A 
ATOM     23  C   UNL     1      46.436   3.863   7.284  0.00  0.00    +0.000 A 
ATOM     24  C   UNL     1      46.606   2.494   7.112  0.00  0.00    +0.000 A 
ATOM     25  C   UNL     1      46.064   1.609   8.037  0.00  0.00    +0.000 A 
ATOM     26  C   UNL     1      45.369   2.095   9.149  0.00  0.00    +0.000 A 
ENDBRANCH  19  21
ENDBRANCH  14  15
ENDBRANCH   1  14
TORSDOF 6
ENDMDL
MODEL 7
REMARK VINA RESULT:    -6.793      3.976      7.489
REMARK INTER + INTRA:         -10.367
REMARK INTER:                  -9.155
REMARK INTRA:                  -1.212
REMARK UNBOUND:                -1.192
REMARK  Name = 
REMARK  6 active torsions:
REMARK  status: ('A' for Active; 'I' for Inactive)
REMARK    1  A    between atoms: C_2  and  C_4
REMARK    2  A    between atoms: C_7  and  O_8
REMARK    3  A    between atoms: O_8  and  C_9
REMARK    4  A    between atoms: C_9  and  C_10
REMARK    5  A    between atoms: C_10  and  C_11
REMARK    6  A    between atoms: C_15  and  C_16
REMARK                            x       y       z     vdW  Elec       q    Type
REMARK                         _______ _______ _______ _____ _____    ______ ____
ROOT
ATOM      1  C   UNL     1      49.452   7.220  12.835  0.00  0.00    +0.000 C 
ENDROOT
BRANCH   1   2
ATOM      2  O   UNL     1      49.314   7.513  14.227  0.00  0.00    +0.000 OA
BRANCH   2   6
ATOM      3  C   UNL     1      47.893   4.535  16.781  0.00  0.00    +0.000 A 
ATOM      4  C   UNL     1      47.306   4.665  15.518  0.00  0.00    +0.000 A 
ATOM      5  C   UNL     1      47.751   5.654  14.634  0.00  0.00    +0.000 A 
ATOM      6  C   UNL     1      48.784   6.519  15.005  0.00  0.00    +0.000 A 
ATOM      7  C   UNL     1      49.355   6.398  16.276  0.00  0.00    +0.000 A 
ATOM      8  C   UNL     1      48.908   5.416  17.165  0.00  0.00    +0.000 A 
BRANCH   3  10
ATOM      9  N   UNL     1      48.099   3.443  18.945  0.00  0.00    +0.000 N 
ATOM     10  C   UNL     1      47.449   3.491  17.741  0.00  0.00    +0.000 C 
ATOM     11  O   UNL     1      46.524   2.736  17.490  0.00  0.00    +0.000 OA
ATOM     12  H   UNL     1      47.720   2.802  19.631  0.00  0.00    +0.000 HD
ATOM     13  H   UNL     1      48.672   4.204  19.281  0.00  0.00    +0.000 HD
ENDBRANCH   3  10
ENDBRANCH   2   6
ENDBRANCH   1   2
BRANCH   1  14
ATOM     14  C   UNL     1      48.661   8.249  12.026  0.00  0.00    +0.000 C 
BRANCH  14  15
ATOM     15  C   UNL     1      47.222   7.824  11.894  0.00  0.00    +0.000 A 
ATOM     16  C   UNL     1      46.180   8.683  12.250  0.00  0.00    +0.000 A 
ATOM     17  C   UNL     1      44.857   8.301  12.038  0.00  0.00    +0.000 A 
ATOM     18  C   UNL     1      44.571   7.073  11.439  0.00  0.00    +0.000 A 
ATOM     19  C   UNL     1      45.594   6.206  11.017  0.00  0.00    +0.000 A 
ATOM     20  C   UNL     1      46.917   6.592  11.295  0.00  0.00    +0.000 A 
BRANCH  19  21
ATOM     21  C   UNL     1      45.316   5.007  10.193  0.00  0.00    +0.000 A 
ATOM     22  C   UNL     1      45.754   4.939   8.857  0.00  0.00    +0.000 A 
ATOM     23  C   UNL     1      45.645   3.764   8.112  0.00  0.00    +0.000 A 
ATOM     24  C   UNL     1      45.094   2.625   8.688  0.00  0.00    +0.000 A 
ATOM     25  C   UNL     1      44.620   2.671   9.994  0.00  0.00    +0.000 A 
ATOM     26  C   UNL     1      44.718   3.853  10.735  0.00  0.00    +0.000 A 
ENDBRANCH  19  21
ENDBRANCH  14  15
ENDBRANCH   1  14
TORSDOF 6
ENDMDL
MODEL 8
REMARK VINA RESULT:    -6.767      3.217      6.992
REMARK INTER + INTRA:         -10.332
REMARK INTER:                  -9.275
REMARK INTRA:                  -1.058
REMARK UNBOUND:                -1.192
REMARK  Name = 
REMARK  6 active torsions:
REMARK  status: ('A' for Active; 'I' for Inactive)
REMARK    1  A    between atoms: C_2  and  C_4
REMARK    2  A    between atoms: C_7  and  O_8
REMARK    3  A    between atoms: O_8  and  C_9
REMARK    4  A    between atoms: C_9  and  C_10
REMARK    5  A    between atoms: C_10  and  C_11
REMARK    6  A    between atoms: C_15  and  C_16
REMARK                            x       y       z     vdW  Elec       q    Type
REMARK                         _______ _______ _______ _____ _____    ______ ____
ROOT
ATOM      1  C   UNL     1      47.333   4.909  13.605  0.00  0.00    +0.000 C 
ENDROOT
BRANCH   1   2
ATOM      2  O   UNL     1      48.057   5.978  14.218  0.00  0.00    +0.000 OA
BRANCH   2   6
ATOM      3  C   UNL     1      48.555   9.425  11.921  0.00  0.00    +0.000 A 
ATOM      4  C   UNL     1      47.500   9.384  12.839  0.00  0.00    +0.000 A 
ATOM      5  C   UNL     1      47.297   8.244  13.625  0.00  0.00    +0.000 A 
ATOM      6  C   UNL     1      48.145   7.140  13.499  0.00  0.00    +0.000 A 
ATOM      7  C   UNL     1      49.185   7.179  12.567  0.00  0.00    +0.000 A 
ATOM      8  C   UNL     1      49.388   8.313  11.775  0.00  0.00    +0.000 A 
BRANCH   3  10
ATOM      9  N   UNL     1      47.739  11.457  10.862  0.00  0.00    +0.000 N 
ATOM     10  C   UNL     1      48.803  10.623  11.076  0.00  0.00    +0.000 C 
ATOM     11  O   UNL     1      49.908  10.876  10.625  0.00  0.00    +0.000 OA
ATOM     12  H   UNL     1      47.941  12.322  10.377  0.00  0.00    +0.000 HD
ATOM     13  H   UNL     1      46.901  11.420  11.423  0.00  0.00    +0.000 HD
ENDBRANCH   3  10
ENDBRANCH   2   6
ENDBRANCH   1   2
BRANCH   1  14
ATOM     14  C   UNL     1      45.871   4.977  14.046  0.00  0.00    +0.000 C 
BRANCH  14  15
ATOM     15  C   UNL     1      44.953   4.787  12.867  0.00  0.00    +0.000 A 
ATOM     16  C   UNL     1      43.696   5.395  12.825  0.00  0.00    +0.000 A 
ATOM     17  C   UNL     1      42.900   5.277  11.687  0.00  0.00    +0.000 A 
ATOM     18  C   UNL     1      43.372   4.578  10.574  0.00  0.00    +0.000 A 
ATOM     19  C   UNL     1      44.653   3.999  10.559  0.00  0.00    +0.000 A 
ATOM     20  C   UNL     1      45.410   4.087  11.740  0.00  0.00    +0.000 A 
BRANCH  19  21
ATOM     21  C   UNL     1      45.249   3.444   9.321  0.00  0.00    +0.000 A 
ATOM     22  C   UNL     1      45.781   4.298   8.337  0.00  0.00    +0.000 A 
ATOM     23  C   UNL     1      46.487   3.798   7.242  0.00  0.00    +0.000 A 
ATOM     24  C   UNL     1      46.678   2.428   7.104  0.00  0.00    +0.000 A 
ATOM     25  C   UNL     1      46.132   1.557   8.041  0.00  0.00    +0.000 A 
ATOM     26  C   UNL     1      45.414   2.059   9.131  0.00  0.00    +0.000 A 
ENDBRANCH  19  21
ENDBRANCH  14  15
ENDBRANCH   1  14
TORSDOF 6
ENDMDL
MODEL 9
REMARK VINA RESULT:    -6.656      3.222      6.887
REMARK INTER + INTRA:         -10.183
REMARK INTER:                  -9.254
REMARK INTRA:                  -0.929
REMARK UNBOUND:                -1.192
REMARK  Name = 
REMARK  6 active torsions:
REMARK  status: ('A' for Active; 'I' for Inactive)
REMARK    1  A    between atoms: C_2  and  C_4
REMARK    2  A    between atoms: C_7  and  O_8
REMARK    3  A    between atoms: O_8  and  C_9
REMARK    4  A    between atoms: C_9  and  C_10
REMARK    5  A    between atoms: C_10  and  C_11
REMARK    6  A    between atoms: C_15  and  C_16
REMARK                            x       y       z     vdW  Elec       q    Type
REMARK                         _______ _______ _______ _____ _____    ______ ____
ROOT
ATOM      1  C   UNL     1      45.190   7.237  11.375  0.00  0.00    +0.000 C 
ENDROOT
BRANCH   1   2
ATOM      2  O   UNL     1      45.712   8.126  12.365  0.00  0.00    +0.000 OA
BRANCH   2   6
ATOM      3  C   UNL     1      49.856   8.566  12.143  0.00  0.00    +0.000 A 
ATOM      4  C   UNL     1      49.104   9.609  12.696  0.00  0.00    +0.000 A 
ATOM      5  C   UNL     1      47.712   9.501  12.784  0.00  0.00    +0.000 A 
ATOM      6  C   UNL     1      47.062   8.354  12.322  0.00  0.00    +0.000 A 
ATOM      7  C   UNL     1      47.815   7.324  11.753  0.00  0.00    +0.000 A 
ATOM      8  C   UNL     1      49.206   7.429  11.656  0.00  0.00    +0.000 A 
BRANCH   3  10
ATOM      9  N   UNL     1      52.056   8.091  13.066  0.00  0.00    +0.000 N 
ATOM     10  C   UNL     1      51.336   8.645  12.041  0.00  0.00    +0.000 C 
ATOM     11  O   UNL     1      51.891   9.142  11.075  0.00  0.00    +0.000 OA
ATOM     12  H   UNL     1      53.059   8.054  12.938  0.00  0.00    +0.000 HD
ATOM     13  H   UNL     1      51.645   7.453  13.733  0.00  0.00    +0.000 HD
ENDBRANCH   3  10
ENDBRANCH   2   6
ENDBRANCH   1   2
BRANCH   1  14
ATOM     14  C   UNL     1      43.996   6.482  11.961  0.00  0.00    +0.000 C 
BRANCH  14  15
ATOM     15  C   UNL     1      44.064   5.022  11.596  0.00  0.00    +0.000 A 
ATOM     16  C   UNL     1      43.251   4.081  12.230  0.00  0.00    +0.000 A 
ATOM     17  C   UNL     1      43.268   2.750  11.816  0.00  0.00    +0.000 A 
ATOM     18  C   UNL     1      44.073   2.362  10.744  0.00  0.00    +0.000 A 
ATOM     19  C   UNL     1      44.864   3.292  10.046  0.00  0.00    +0.000 A 
ATOM     20  C   UNL     1      44.869   4.615  10.521  0.00  0.00    +0.000 A 
BRANCH  19  21
ATOM     21  C   UNL     1      45.554   2.942   8.782  0.00  0.00    +0.000 A 
ATOM     22  C   UNL     1      45.917   3.945   7.863  0.00  0.00    +0.000 A 
ATOM     23  C   UNL     1      46.704   3.661   6.746  0.00  0.00    +0.000 A 
ATOM     24  C   UNL     1      47.149   2.363   6.521  0.00  0.00    +0.000 A 
ATOM     25  C   UNL     1      46.776   1.344   7.392  0.00  0.00    +0.000 A 
ATOM     26  C   UNL     1      45.976   1.628   8.503  0.00  0.00    +0.000 A 
ENDBRANCH  19  21
ENDBRANCH  14  15
ENDBRANCH   1  14
TORSDOF 6
ENDMDL
