MODEL 1
REMARK VINA RESULT:    -8.733      0.000      0.000
REMARK INTER + INTRA:         -11.983
REMARK INTER:                 -11.286
REMARK INTRA:                  -0.696
REMARK UNBOUND:                -0.696
REMARK  Name = 
REMARK  5 active torsions:
REMARK  status: ('A' for Active; 'I' for Inactive)
REMARK    1  A    between atoms: C_2  and  C_19
REMARK    2  A    between atoms: N_3  and  C_4
REMARK    3  A    between atoms: C_4  and  C_5
REMARK    4  A    between atoms: C_8  and  C_9
REMARK    5  A    between atoms: C_9  and  N_10
REMARK                            x       y       z     vdW  Elec       q    Type
REMARK                         _______ _______ _______ _____ _____    ______ ____
ROOT
ATOM      1  C   UNL     1      46.969   7.220  13.101  0.00  0.00    +0.000 C 
ENDROOT
BRANCH   1   2
ATOM      2  C   UNL     1      46.233   6.186  12.288  0.00  0.00    +0.000 A 
ATOM      3  C   UNL     1      45.917   6.440  10.947  0.00  0.00    +0.000 A 
ATOM      4  C   UNL     1      45.261   5.477  10.175  0.00  0.00    +0.000 A 
ATOM      5  C   UNL     1      44.887   4.249  10.734  0.00  0.00    +0.000 A 
ATOM      6  C   UNL     1      45.192   3.999  12.080  0.00  0.00    +0.000 A 
ATOM      7  C   UNL     1      45.848   4.963  12.853  0.00  0.00    +0.000 A 
BRANCH   5   8
ATOM      8  C   UNL     1      44.146   3.219   9.908  0.00  0.00    +0.000 C 
BRANCH   8   9
ATOM      9  N   UNL     1      45.001   2.067   9.636  0.00  0.00    +0.000 N 
ATOM     10  C   UNL     1      45.703   2.176   8.421  0.00  0.00    +0.000 A 
ATOM     11  C   UNL     1      46.565   1.145   8.053  0.00  0.00    +0.000 A 
ATOM     12  C   UNL     1      47.267   1.228   6.850  0.00  0.00    +0.000 A 
ATOM     13  C   UNL     1      47.093   2.342   6.039  0.00  0.00    +0.000 A 
ATOM     14  C   UNL     1      46.233   3.329   6.480  0.00  0.00    +0.000 A 
ATOM     15  N   UNL     1      45.550   3.268   7.642  0.00  0.00    +0.000 NA
ATOM     16  H   UNL     1      44.473   1.201   9.635  0.00  0.00    +0.000 HD
ENDBRANCH   8   9
ENDBRANCH   5   8
ENDBRANCH   1   2
BRANCH   1  19
ATOM     17  O   UNL     1      49.586   6.894  14.083  0.00  0.00    +0.000 OA
ATOM     18  C   UNL     1      48.637   6.635  14.819  0.00  0.00    +0.000 C 
ATOM     19  N   UNL     1      47.334   6.726  14.403  0.00  0.00    +0.000 N 
ATOM     20  H   UNL     1      46.589   6.668  15.087  0.00  0.00    +0.000 HD
BRANCH  18  21
ATOM     21  C   UNL     1      48.849   6.151  16.189  0.00  0.00    +0.000 A 
ATOM     22  C   UNL     1      49.520   6.945  17.108  0.00  0.00    +0.000 A 
ATOM     23  S   UNL     1      49.658   6.234  18.653  0.00  0.00    +0.000 S 
ATOM     24  C   UNL     1      48.789   4.856  18.156  0.00  0.00    +0.000 A 
ATOM     25  N   UNL     1      48.507   3.852  19.029  0.00  0.00    +0.000 NA
ATOM     26  C   UNL     1      47.799   2.897  18.529  0.00  0.00    +0.000 A 
ATOM     27  N   UNL     1      47.365   2.841  17.231  0.00  0.00    +0.000 N 
ATOM     28  C   UNL     1      47.708   3.784  16.291  0.00  0.00    +0.000 A 
ATOM     29  O   UNL     1      47.446   3.620  15.105  0.00  0.00    +0.000 OA
ATOM     30  C   UNL     1      48.439   4.919  16.820  0.00  0.00    +0.000 A 
ATOM     31  H   UNL     1      46.852   2.043  16.888  0.00  0.00    +0.000 HD
ENDBRANCH  18  21
ENDBRANCH   1  19
TORSDOF 5
ENDMDL
MODEL 2
REMARK VINA RESULT:    -8.359      1.586      2.359
REMARK INTER + INTRA:         -11.499
REMARK INTER:                 -10.872
REMARK INTRA:                  -0.627
REMARK UNBOUND:                -0.696
REMARK  Name = 
REMARK  5 active torsions:
REMARK  status: ('A' for Active; 'I' for Inactive)
REMARK    1  A    between atoms: C_2  and  C_19
REMARK    2  A    between atoms: N_3  and  C_4
REMARK    3  A    between atoms: C_4  and  C_5
REMARK    4  A    between atoms: C_8  and  C_9
REMARK    5  A    between atoms: C_9  and  N_10
REMARK                            x       y       z     vdW  Elec       q    Type
REMARK                         _______ _______ _______ _____ _____    ______ ____
ROOT
ATOM      1  C   UNL     1      47.256   6.558  13.556  0.00  0.00    +0.000 C 
ENDROOT
BRANCH   1   2
ATOM      2  C   UNL     1      46.453   5.704  12.609  0.00  0.00    +0.000 A 
ATOM      3  C   UNL     1      46.102   4.395  12.968  0.00  0.00    +0.000 A 
ATOM      4  C   UNL     1      45.333   3.603  12.111  0.00  0.00    +0.000 A 
ATOM      5  C   UNL     1      44.917   4.095  10.868  0.00  0.00    +0.000 A 
ATOM      6  C   UNL     1      45.278   5.400  10.502  0.00  0.00    +0.000 A 
ATOM      7  C   UNL     1      46.049   6.192  11.359  0.00  0.00    +0.000 A 
BRANCH   5   8
ATOM      8  C   UNL     1      44.112   3.225   9.925  0.00  0.00    +0.000 C 
BRANCH   8   9
ATOM      9  N   UNL     1      44.849   2.007   9.596  0.00  0.00    +0.000 N 
ATOM     10  C   UNL     1      45.643   2.139   8.442  0.00  0.00    +0.000 A 
ATOM     11  C   UNL     1      46.407   1.049   8.029  0.00  0.00    +0.000 A 
ATOM     12  C   UNL     1      47.198   1.153   6.884  0.00  0.00    +0.000 A 
ATOM     13  C   UNL     1      47.210   2.347   6.175  0.00  0.00    +0.000 A 
ATOM     14  C   UNL     1      46.439   3.387   6.656  0.00  0.00    +0.000 A 
ATOM     15  N   UNL     1      45.671   3.305   7.763  0.00  0.00    +0.000 NA
ATOM     16  H   UNL     1      44.227   1.214   9.479  0.00  0.00    +0.000 HD
ENDBRANCH   8   9
ENDBRANCH   5   8
ENDBRANCH   1   2
BRANCH   1  19
ATOM     17  O   UNL     1      49.560   6.547  15.172  0.00  0.00    +0.000 OA
ATOM     18  C   UNL     1      48.532   6.027  15.597  0.00  0.00    +0.000 C 
ATOM     19  N   UNL     1      47.381   5.953  14.856  0.00  0.00    +0.000 N 
ATOM     20  H   UNL     1      46.518   5.673  15.307  0.00  0.00    +0.000 HD
BRANCH  18  21
ATOM     21  C   UNL     1      48.492   5.397  16.923  0.00  0.00    +0.000 A 
ATOM     22  C   UNL     1      48.594   4.017  17.037  0.00  0.00    +0.000 A 
ATOM     23  S   UNL     1      48.548   3.460  18.649  0.00  0.00    +0.000 S 
ATOM     24  C   UNL     1      48.430   5.048  19.251  0.00  0.00    +0.000 A 
ATOM     25  N   UNL     1      48.397   5.290  20.590  0.00  0.00    +0.000 NA
ATOM     26  C   UNL     1      48.358   6.541  20.902  0.00  0.00    +0.000 A 
ATOM     27  N   UNL     1      48.329   7.573  20.003  0.00  0.00    +0.000 N 
ATOM     28  C   UNL     1      48.264   7.372  18.644  0.00  0.00    +0.000 A 
ATOM     29  O   UNL     1      48.070   8.306  17.874  0.00  0.00    +0.000 OA
ATOM     30  C   UNL     1      48.381   5.985  18.236  0.00  0.00    +0.000 A 
ATOM     31  H   UNL     1      48.254   8.531  20.310  0.00  0.00    +0.000 HD
ENDBRANCH  18  21
ENDBRANCH   1  19
TORSDOF 5
ENDMDL
MODEL 3
REMARK VINA RESULT:    -7.981      2.420      4.259
REMARK INTER + INTRA:         -11.010
REMARK INTER:                 -10.024
REMARK INTRA:                  -0.987
REMARK UNBOUND:                -0.696
REMARK  Name = 
REMARK  5 active torsions:
REMARK  status: ('A' for Active; 'I' for Inactive)
REMARK    1  A    between atoms: C_2  and  C_19
REMARK    2  A    between atoms: N_3  and  C_4
REMARK    3  A    between atoms: C_4  and  C_5
REMARK    4  A    between atoms: C_8  and  C_9
REMARK    5  A    between atoms: C_9  and  N_10
REMARK                            x       y       z     vdW  Elec       q    Type
REMARK                         _______ _______ _______ _____ _____    ______ ____
ROOT
ATOM      1  C   UNL     1      46.981   5.069  14.532  0.00  0.00    +0.000 C 
ENDROOT
BRANCH   1   2
ATOM      2  C   UNL     1      46.263   4.795  13.235  0.00  0.00    +0.000 A 
ATOM      3  C   UNL     1      45.796   3.505  12.950  0.00  0.00    +0.000 A 
ATOM      4  C   UNL     1      45.103   3.245  11.764  0.00  0.00    +0.000 A 
ATOM      5  C   UNL     1      44.882   4.264  10.829  0.00  0.00    +0.000 A 
ATOM      6  C   UNL     1      45.360   5.552  11.109  0.00  0.00    +0.000 A 
ATOM      7  C   UNL     1      46.055   5.813  12.295  0.00  0.00    +0.000 A 
BRANCH   5   8
ATOM      8  C   UNL     1      44.161   3.974   9.529  0.00  0.00    +0.000 C 
BRANCH   8   9
ATOM      9  N   UNL     1      44.981   4.374   8.388  0.00  0.00    +0.000 N 
ATOM     10  C   UNL     1      45.771   3.324   7.885  0.00  0.00    +0.000 A 
ATOM     11  C   UNL     1      46.591   3.573   6.785  0.00  0.00    +0.000 A 
ATOM     12  C   UNL     1      47.388   2.551   6.271  0.00  0.00    +0.000 A 
ATOM     13  C   UNL     1      47.350   1.297   6.867  0.00  0.00    +0.000 A 
ATOM     14  C   UNL     1      46.500   1.123   7.943  0.00  0.00    +0.000 A 
ATOM     15  N   UNL     1      45.720   2.100   8.450  0.00  0.00    +0.000 NA
ATOM     16  H   UNL     1      45.582   5.159   8.616  0.00  0.00    +0.000 HD
ENDBRANCH   8   9
ENDBRANCH   5   8
ENDBRANCH   1   2
BRANCH   1  19
ATOM     17  O   UNL     1      49.318   5.755  15.942  0.00  0.00    +0.000 OA
ATOM     18  C   UNL     1      48.794   6.594  15.215  0.00  0.00    +0.000 C 
ATOM     19  N   UNL     1      47.632   6.354  14.528  0.00  0.00    +0.000 N 
ATOM     20  H   UNL     1      47.332   7.008  13.815  0.00  0.00    +0.000 HD
BRANCH  18  21
ATOM     21  C   UNL     1      49.359   7.943  15.081  0.00  0.00    +0.000 A 
ATOM     22  C   UNL     1      49.555   8.727  16.209  0.00  0.00    +0.000 A 
ATOM     23  S   UNL     1      50.236  10.254  15.870  0.00  0.00    +0.000 S 
ATOM     24  C   UNL     1      50.331   9.902  14.207  0.00  0.00    +0.000 A 
ATOM     25  N   UNL     1      50.875  10.791  13.332  0.00  0.00    +0.000 NA
ATOM     26  C   UNL     1      50.928  10.371  12.114  0.00  0.00    +0.000 A 
ATOM     27  N   UNL     1      50.470   9.154  11.683  0.00  0.00    +0.000 N 
ATOM     28  C   UNL     1      49.828   8.266  12.514  0.00  0.00    +0.000 A 
ATOM     29  O   UNL     1      49.282   7.264  12.068  0.00  0.00    +0.000 OA
ATOM     30  C   UNL     1      49.809   8.657  13.910  0.00  0.00    +0.000 A 
ATOM     31  H   UNL     1      50.500   8.902  10.707  0.00  0.00    +0.000 HD
ENDBRANCH  18  21
ENDBRANCH   1  19
TORSDOF 5
ENDMDL
MODEL 4
REMARK VINA RESULT:    -7.868      2.665      3.941
REMARK INTER + INTRA:         -10.864
REMARK INTER:                 -10.171
REMARK INTRA:                  -0.693
REMARK UNBOUND:                -0.696
REMARK  Name = 
REMARK  5 active torsions:
REMARK  status: ('A' for Active; 'I' for Inactive)
REMARK    1  A    between atoms: C_2  and  C_19
REMARK    2  A    between atoms: N_3  and  C_4
REMARK    3  A    between atoms: C_4  and  C_5
REMARK    4  A    between atoms: C_8  and  C_9
REMARK    5  A    between atoms: C_9  and  N_10
REMARK                            x       y       z     vdW  Elec       q    Type
REMARK                         _______ _______ _______ _____ _____    ______ ____
ROOT
ATOM      1  C   UNL     1      47.281   5.048  14.562  0.00  0.00    +0.000 C 
ENDROOT
BRANCH   1   2
ATOM      2  C   UNL     1      46.489   4.804  13.303  0.00  0.00    +0.000 A 
ATOM      3  C   UNL     1      45.912   3.549  13.069  0.00  0.00    +0.000 A 
ATOM      4  C   UNL     1      45.151   3.318  11.919  0.00  0.00    +0.000 A 
ATOM      5  C   UNL     1      44.970   4.331  10.969  0.00  0.00    +0.000 A 
ATOM      6  C   UNL     1      45.558   5.583  11.197  0.00  0.00    +0.000 A 
ATOM      7  C   UNL     1      46.321   5.814  12.347  0.00  0.00    +0.000 A 
BRANCH   5   8
ATOM      8  C   UNL     1      44.174   4.071   9.707  0.00  0.00    +0.000 C 
BRANCH   8   9
ATOM      9  N   UNL     1      44.938   4.471   8.528  0.00  0.00    +0.000 N 
ATOM     10  C   UNL     1      45.695   3.419   7.981  0.00  0.00    +0.000 A 
ATOM     11  C   UNL     1      46.460   3.668   6.842  0.00  0.00    +0.000 A 
ATOM     12  C   UNL     1      47.224   2.643   6.284  0.00  0.00    +0.000 A 
ATOM     13  C   UNL     1      47.209   1.387   6.876  0.00  0.00    +0.000 A 
ATOM     14  C   UNL     1      46.414   1.214   7.993  0.00  0.00    +0.000 A 
ATOM     15  N   UNL     1      45.665   2.192   8.543  0.00  0.00    +0.000 NA
ATOM     16  H   UNL     1      45.554   5.251   8.728  0.00  0.00    +0.000 HD
ENDBRANCH   8   9
ENDBRANCH   5   8
ENDBRANCH   1   2
BRANCH   1  19
ATOM     17  O   UNL     1      49.584   6.059  15.824  0.00  0.00    +0.000 OA
ATOM     18  C   UNL     1      48.788   6.846  15.320  0.00  0.00    +0.000 C 
ATOM     19  N   UNL     1      47.623   6.438  14.725  0.00  0.00    +0.000 N 
ATOM     20  H   UNL     1      47.086   7.100  14.177  0.00  0.00    +0.000 HD
BRANCH  18  21
ATOM     21  C   UNL     1      49.014   8.296  15.375  0.00  0.00    +0.000 A 
ATOM     22  C   UNL     1      49.620   8.944  14.307  0.00  0.00    +0.000 A 
ATOM     23  S   UNL     1      49.787  10.626  14.535  0.00  0.00    +0.000 S 
ATOM     24  C   UNL     1      49.017  10.552  16.052  0.00  0.00    +0.000 A 
ATOM     25  N   UNL     1      48.791  11.679  16.780  0.00  0.00    +0.000 NA
ATOM     26  C   UNL     1      48.154  11.479  17.883  0.00  0.00    +0.000 A 
ATOM     27  N   UNL     1      47.740  10.256  18.338  0.00  0.00    +0.000 N 
ATOM     28  C   UNL     1      48.031   9.082  17.684  0.00  0.00    +0.000 A 
ATOM     29  O   UNL     1      47.795   7.995  18.198  0.00  0.00    +0.000 OA
ATOM     30  C   UNL     1      48.680   9.258  16.398  0.00  0.00    +0.000 A 
ATOM     31  H   UNL     1      47.285  10.160  19.233  0.00  0.00    +0.000 HD
ENDBRANCH  18  21
ENDBRANCH   1  19
TORSDOF 5
ENDMDL
MODEL 5
REMARK VINA RESULT:    -7.842      3.148      5.239
REMARK INTER + INTRA:         -10.830
REMARK INTER:                 -10.262
REMARK INTRA:                  -0.569
REMARK UNBOUND:                -0.696
REMARK  Name = 
REMARK  5 active torsions:
REMARK  status: ('A' for Active; 'I' for Inactive)
REMARK    1  A    between atoms: C_2  and  C_19
REMARK    2  A    between atoms: N_3  and  C_4
REMARK    3  A    between atoms: C_4  and  C_5
REMARK    4  A    between atoms: C_8  and  C_9
REMARK    5  A    between atoms: C_9  and  N_10
REMARK                            x       y       z     vdW  Elec       q    Type
REMARK                         _______ _______ _______ _____ _____    ______ ____
ROOT
ATOM      1  C   UNL     1      47.348   6.030  13.993  0.00  0.00    +0.000 C 
ENDROOT
BRANCH   1   2
ATOM      2  C   UNL     1      46.524   5.294  12.967  0.00  0.00    +0.000 A 
ATOM      3  C   UNL     1      46.139   3.967  13.196  0.00  0.00    +0.000 A 
ATOM      4  C   UNL     1      45.351   3.283  12.266  0.00  0.00    +0.000 A 
ATOM      5  C   UNL     1      44.950   3.905  11.077  0.00  0.00    +0.000 A 
ATOM      6  C   UNL     1      45.346   5.230  10.842  0.00  0.00    +0.000 A 
ATOM      7  C   UNL     1      46.136   5.914  11.772  0.00  0.00    +0.000 A 
BRANCH   5   8
ATOM      8  C   UNL     1      44.125   3.154  10.054  0.00  0.00    +0.000 C 
BRANCH   8   9
ATOM      9  N   UNL     1      44.821   1.944   9.622  0.00  0.00    +0.000 N 
ATOM     10  C   UNL     1      45.640   2.153   8.497  0.00  0.00    +0.000 A 
ATOM     11  C   UNL     1      46.370   1.077   7.993  0.00  0.00    +0.000 A 
ATOM     12  C   UNL     1      47.185   1.258   6.876  0.00  0.00    +0.000 A 
ATOM     13  C   UNL     1      47.255   2.512   6.283  0.00  0.00    +0.000 A 
ATOM     14  C   UNL     1      46.515   3.532   6.850  0.00  0.00    +0.000 A 
ATOM     15  N   UNL     1      45.725   3.376   7.932  0.00  0.00    +0.000 NA
ATOM     16  H   UNL     1      44.172   1.191   9.421  0.00  0.00    +0.000 HD
ENDBRANCH   8   9
ENDBRANCH   5   8
ENDBRANCH   1   2
BRANCH   1  19
ATOM     17  O   UNL     1      49.342   7.306  12.471  0.00  0.00    +0.000 OA
ATOM     18  C   UNL     1      48.418   7.977  12.923  0.00  0.00    +0.000 C 
ATOM     19  N   UNL     1      47.432   7.439  13.709  0.00  0.00    +0.000 N 
ATOM     20  H   UNL     1      46.607   7.989  13.916  0.00  0.00    +0.000 HD
BRANCH  18  21
ATOM     21  C   UNL     1      48.346   9.425  12.692  0.00  0.00    +0.000 A 
ATOM     22  C   UNL     1      49.497  10.197  12.772  0.00  0.00    +0.000 A 
ATOM     23  S   UNL     1      49.232  11.852  12.457  0.00  0.00    +0.000 S 
ATOM     24  C   UNL     1      47.576  11.587  12.162  0.00  0.00    +0.000 A 
ATOM     25  N   UNL     1      46.757  12.607  11.788  0.00  0.00    +0.000 NA
ATOM     26  C   UNL     1      45.541  12.251  11.549  0.00  0.00    +0.000 A 
ATOM     27  N   UNL     1      45.061  10.974  11.668  0.00  0.00    +0.000 N 
ATOM     28  C   UNL     1      45.827   9.933  12.134  0.00  0.00    +0.000 A 
ATOM     29  O   UNL     1      45.328   8.843  12.389  0.00  0.00    +0.000 OA
ATOM     30  C   UNL     1      47.223  10.263  12.346  0.00  0.00    +0.000 A 
ATOM     31  H   UNL     1      44.086  10.767  11.509  0.00  0.00    +0.000 HD
ENDBRANCH  18  21
ENDBRANCH   1  19
TORSDOF 5
ENDMDL
MODEL 6
REMARK VINA RESULT:    -7.262      4.814      7.443
REMARK INTER + INTRA:         -10.082
REMARK INTER:                  -9.191
REMARK INTRA:                  -0.890
REMARK UNBOUND:                -0.696
REMARK  Name = 
REMARK  5 active torsions:
REMARK  status: ('A' for Active; 'I' for Inactive)
REMARK    1  A    between atoms: C_2  and  C_19
REMARK    2  A    between atoms: N_3  and  C_4
REMARK    3  A    between atoms: C_4  and  C_5
REMARK    4  A    between atoms: C_8  and  C_9
REMARK    5  A    between atoms: C_9  and  N_10
REMARK                            x       y       z     vdW  Elec       q    Type
REMARK                         _______ _______ _______ _____ _____    ______ ____
ROOT
ATOM      1  C   UNL     1      46.524   8.344  12.897  0.00  0.00    +0.000 C 
ENDROOT
BRANCH   1   2
ATOM      2  C   UNL     1      47.933   8.487  12.380  0.00  0.00    +0.000 A 
ATOM      3  C   UNL     1      48.751   7.357  12.246  0.00  0.00    +0.000 A 
ATOM      4  C   UNL     1      50.049   7.473  11.741  0.00  0.00    +0.000 A 
ATOM      5  C   UNL     1      50.564   8.724  11.380  0.00  0.00    +0.000 A 
ATOM      6  C   UNL     1      49.751   9.857  11.526  0.00  0.00    +0.000 A 
ATOM      7  C   UNL     1      48.452   9.742  12.033  0.00  0.00    +0.000 A 
BRANCH   5   8
ATOM      8  C   UNL     1      51.982   8.855  10.866  0.00  0.00    +0.000 C 
BRANCH   8   9
ATOM      9  N   UNL     1      52.682   7.576  10.959  0.00  0.00    +0.000 N 
ATOM     10  C   UNL     1      52.941   6.998   9.703  0.00  0.00    +0.000 A 
ATOM     11  C   UNL     1      53.617   5.779   9.655  0.00  0.00    +0.000 A 
ATOM     12  C   UNL     1      53.881   5.184   8.422  0.00  0.00    +0.000 A 
ATOM     13  C   UNL     1      53.465   5.818   7.259  0.00  0.00    +0.000 A 
ATOM     14  C   UNL     1      52.815   7.031   7.387  0.00  0.00    +0.000 A 
ATOM     15  N   UNL     1      52.555   7.624   8.571  0.00  0.00    +0.000 NA
ATOM     16  H   UNL     1      52.170   6.910  11.529  0.00  0.00    +0.000 HD
ENDBRANCH   8   9
ENDBRANCH   5   8
ENDBRANCH   1   2
BRANCH   1  19
ATOM     17  O   UNL     1      44.491   7.681  11.068  0.00  0.00    +0.000 OA
ATOM     18  C   UNL     1      45.024   6.784  11.716  0.00  0.00    +0.000 C 
ATOM     19  N   UNL     1      45.991   7.028  12.656  0.00  0.00    +0.000 N 
ATOM     20  H   UNL     1      46.518   6.252  13.039  0.00  0.00    +0.000 HD
BRANCH  18  21
ATOM     21  C   UNL     1      44.612   5.384  11.558  0.00  0.00    +0.000 A 
ATOM     22  C   UNL     1      43.917   4.747  12.577  0.00  0.00    +0.000 A 
ATOM     23  S   UNL     1      43.503   3.132  12.216  0.00  0.00    +0.000 S 
ATOM     24  C   UNL     1      44.202   3.242  10.667  0.00  0.00    +0.000 A 
ATOM     25  N   UNL     1      44.152   2.195   9.799  0.00  0.00    +0.000 NA
ATOM     26  C   UNL     1      44.676   2.438   8.646  0.00  0.00    +0.000 A 
ATOM     27  N   UNL     1      45.264   3.621   8.285  0.00  0.00    +0.000 N 
ATOM     28  C   UNL     1      45.421   4.669   9.160  0.00  0.00    +0.000 A 
ATOM     29  O   UNL     1      46.097   5.647   8.862  0.00  0.00    +0.000 OA
ATOM     30  C   UNL     1      44.782   4.477  10.447  0.00  0.00    +0.000 A 
ATOM     31  H   UNL     1      45.696   3.733   7.380  0.00  0.00    +0.000 HD
ENDBRANCH  18  21
ENDBRANCH   1  19
TORSDOF 5
ENDMDL
MODEL 7
REMARK VINA RESULT:    -7.216      4.000      5.855
REMARK INTER + INTRA:         -10.021
REMARK INTER:                  -9.331
REMARK INTRA:                  -0.690
REMARK UNBOUND:                -0.696
REMARK  Name = 
REMARK  5 active torsions:
REMARK  status: ('A' for Active; 'I' for Inactive)
REMARK    1  A    between atoms: C_2  and  C_19
REMARK    2  A    between atoms: N_3  and  C_4
REMARK    3  A    between atoms: C_4  and  C_5
REMARK    4  A    between atoms: C_8  and  C_9
REMARK    5  A    between atoms: C_9  and  N_10
REMARK                            x       y       z     vdW  Elec       q    Type
REMARK                         _______ _______ _______ _____ _____    ______ ____
ROOT
ATOM      1  C   UNL     1      46.355   4.079  14.290  0.00  0.00    +0.000 C 
ENDROOT
BRANCH   1   2
ATOM      2  C   UNL     1      45.913   5.279  13.492  0.00  0.00    +0.000 A 
ATOM      3  C   UNL     1      46.790   6.355  13.296  0.00  0.00    +0.000 A 
ATOM      4  C   UNL     1      46.402   7.460  12.534  0.00  0.00    +0.000 A 
ATOM      5  C   UNL     1      45.122   7.524  11.970  0.00  0.00    +0.000 A 
ATOM      6  C   UNL     1      44.240   6.453  12.176  0.00  0.00    +0.000 A 
ATOM      7  C   UNL     1      44.627   5.347  12.940  0.00  0.00    +0.000 A 
BRANCH   5   8
ATOM      8  C   UNL     1      44.689   8.736  11.173  0.00  0.00    +0.000 C 
BRANCH   8   9
ATOM      9  N   UNL     1      43.242   8.730  10.973  0.00  0.00    +0.000 N 
ATOM     10  C   UNL     1      42.703  10.020  10.819  0.00  0.00    +0.000 A 
ATOM     11  C   UNL     1      41.331  10.149  10.608  0.00  0.00    +0.000 A 
ATOM     12  C   UNL     1      40.771  11.418  10.458  0.00  0.00    +0.000 A 
ATOM     13  C   UNL     1      41.595  12.535  10.522  0.00  0.00    +0.000 A 
ATOM     14  C   UNL     1      42.946  12.324  10.718  0.00  0.00    +0.000 A 
ATOM     15  N   UNL     1      43.505  11.104  10.861  0.00  0.00    +0.000 NA
ATOM     16  H   UNL     1      42.762   8.260  11.733  0.00  0.00    +0.000 HD
ENDBRANCH   8   9
ENDBRANCH   5   8
ENDBRANCH   1   2
BRANCH   1  19
ATOM     17  O   UNL     1      46.578   3.302  16.985  0.00  0.00    +0.000 OA
ATOM     18  C   UNL     1      47.493   3.940  16.472  0.00  0.00    +0.000 C 
ATOM     19  N   UNL     1      47.443   4.392  15.179  0.00  0.00    +0.000 N 
ATOM     20  H   UNL     1      48.284   4.761  14.749  0.00  0.00    +0.000 HD
BRANCH  18  21
ATOM     21  C   UNL     1      48.688   4.308  17.243  0.00  0.00    +0.000 A 
ATOM     22  C   UNL     1      48.732   5.522  17.914  0.00  0.00    +0.000 A 
ATOM     23  S   UNL     1      50.185   5.776  18.771  0.00  0.00    +0.000 S 
ATOM     24  C   UNL     1      50.788   4.253  18.307  0.00  0.00    +0.000 A 
ATOM     25  N   UNL     1      51.998   3.814  18.747  0.00  0.00    +0.000 NA
ATOM     26  C   UNL     1      52.304   2.623  18.358  0.00  0.00    +0.000 A 
ATOM     27  N   UNL     1      51.524   1.837  17.553  0.00  0.00    +0.000 N 
ATOM     28  C   UNL     1      50.341   2.277  17.007  0.00  0.00    +0.000 A 
ATOM     29  O   UNL     1      49.750   1.617  16.159  0.00  0.00    +0.000 OA
ATOM     30  C   UNL     1      49.913   3.581  17.474  0.00  0.00    +0.000 A 
ATOM     31  H   UNL     1      51.840   0.929  17.246  0.00  0.00    +0.000 HD
ENDBRANCH  18  21
ENDBRANCH   1  19
TORSDOF 5
ENDMDL
MODEL 8
REMARK VINA RESULT:    -7.208      3.589      8.295
REMARK INTER + INTRA:         -10.012
REMARK INTER:                  -9.069
REMARK INTRA:                  -0.943
REMARK UNBOUND:                -0.696
REMARK  Name = 
REMARK  5 active torsions:
REMARK  status: ('A' for Active; 'I' for Inactive)
REMARK    1  A    between atoms: C_2  and  C_19
REMARK    2  A    between atoms: N_3  and  C_4
REMARK    3  A    between atoms: C_4  and  C_5
REMARK    4  A    between atoms: C_8  and  C_9
REMARK    5  A    between atoms: C_9  and  N_10
REMARK                            x       y       z     vdW  Elec       q    Type
REMARK                         _______ _______ _______ _____ _____    ______ ____
ROOT
ATOM      1  C   UNL     1      48.375   7.733  14.423  0.00  0.00    +0.000 C 
ENDROOT
BRANCH   1   2
ATOM      2  C   UNL     1      48.928   6.804  15.473  0.00  0.00    +0.000 A 
ATOM      3  C   UNL     1      48.130   5.777  15.995  0.00  0.00    +0.000 A 
ATOM      4  C   UNL     1      48.642   4.892  16.948  0.00  0.00    +0.000 A 
ATOM      5  C   UNL     1      49.954   5.029  17.416  0.00  0.00    +0.000 A 
ATOM      6  C   UNL     1      50.749   6.065  16.904  0.00  0.00    +0.000 A 
ATOM      7  C   UNL     1      50.237   6.952  15.951  0.00  0.00    +0.000 A 
BRANCH   5   8
ATOM      8  C   UNL     1      50.497   4.092  18.474  0.00  0.00    +0.000 C 
BRANCH   8   9
ATOM      9  N   UNL     1      50.620   2.736  17.944  0.00  0.00    +0.000 N 
ATOM     10  C   UNL     1      51.954   2.293  17.873  0.00  0.00    +0.000 A 
ATOM     11  C   UNL     1      52.206   1.007  17.395  0.00  0.00    +0.000 A 
ATOM     12  C   UNL     1      53.520   0.547  17.310  0.00  0.00    +0.000 A 
ATOM     13  C   UNL     1      54.558   1.381  17.705  0.00  0.00    +0.000 A 
ATOM     14  C   UNL     1      54.227   2.635  18.182  0.00  0.00    +0.000 A 
ATOM     15  N   UNL     1      52.962   3.095  18.275  0.00  0.00    +0.000 NA
ATOM     16  H   UNL     1      50.196   2.653  17.026  0.00  0.00    +0.000 HD
ENDBRANCH   8   9
ENDBRANCH   5   8
ENDBRANCH   1   2
BRANCH   1  19
ATOM     17  O   UNL     1      47.921   6.881  11.780  0.00  0.00    +0.000 OA
ATOM     18  C   UNL     1      47.000   6.822  12.590  0.00  0.00    +0.000 C 
ATOM     19  N   UNL     1      47.127   7.257  13.884  0.00  0.00    +0.000 N 
ATOM     20  H   UNL     1      46.403   7.033  14.556  0.00  0.00    +0.000 HD
BRANCH  18  21
ATOM     21  C   UNL     1      45.675   6.327  12.199  0.00  0.00    +0.000 A 
ATOM     22  C   UNL     1      44.754   7.193  11.623  0.00  0.00    +0.000 A 
ATOM     23  S   UNL     1      43.276   6.445  11.216  0.00  0.00    +0.000 S 
ATOM     24  C   UNL     1      43.831   4.929  11.757  0.00  0.00    +0.000 A 
ATOM     25  N   UNL     1      43.053   3.818  11.649  0.00  0.00    +0.000 NA
ATOM     26  C   UNL     1      43.621   2.732  12.052  0.00  0.00    +0.000 A 
ATOM     27  N   UNL     1      44.885   2.655  12.572  0.00  0.00    +0.000 N 
ATOM     28  C   UNL     1      45.668   3.765  12.788  0.00  0.00    +0.000 A 
ATOM     29  O   UNL     1      46.723   3.685  13.407  0.00  0.00    +0.000 OA
ATOM     30  C   UNL     1      45.107   5.003  12.282  0.00  0.00    +0.000 A 
ATOM     31  H   UNL     1      45.257   1.781  12.912  0.00  0.00    +0.000 HD
ENDBRANCH  18  21
ENDBRANCH   1  19
TORSDOF 5
ENDMDL
MODEL 9
REMARK VINA RESULT:    -6.943      2.555      3.504
REMARK INTER + INTRA:          -9.669
REMARK INTER:                  -8.797
REMARK INTRA:                  -0.872
REMARK UNBOUND:                -0.696
REMARK  Name = 
REMARK  5 active torsions:
REMARK  status: ('A' for Active; 'I' for Inactive)
REMARK    1  A    between atoms: C_2  and  C_19
REMARK    2  A    between atoms: N_3  and  C_4
REMARK    3  A    between atoms: C_4  and  C_5
REMARK    4  A    between atoms: C_8  and  C_9
REMARK    5  A    between atoms: C_9  and  N_10
REMARK                            x       y       z     vdW  Elec       q    Type
REMARK                         _______ _______ _______ _____ _____    ______ ____
ROOT
ATOM      1  C   UNL     1      48.736   7.200  14.514  0.00  0.00    +0.000 C 
ENDROOT
BRANCH   1   2
ATOM      2  C   UNL     1      47.610   6.758  13.614  0.00  0.00    +0.000 A 
ATOM      3  C   UNL     1      46.974   7.685  12.778  0.00  0.00    +0.000 A 
ATOM      4  C   UNL     1      45.949   7.282  11.917  0.00  0.00    +0.000 A 
ATOM      5  C   UNL     1      45.523   5.948  11.892  0.00  0.00    +0.000 A 
ATOM      6  C   UNL     1      46.150   5.023  12.739  0.00  0.00    +0.000 A 
ATOM      7  C   UNL     1      47.176   5.426  13.601  0.00  0.00    +0.000 A 
BRANCH   5   8
ATOM      8  C   UNL     1      44.389   5.518  10.986  0.00  0.00    +0.000 C 
BRANCH   8   9
ATOM      9  N   UNL     1      44.397   4.068  10.806  0.00  0.00    +0.000 N 
ATOM     10  C   UNL     1      45.052   3.664   9.629  0.00  0.00    +0.000 A 
ATOM     11  C   UNL     1      45.140   2.301   9.348  0.00  0.00    +0.000 A 
ATOM     12  C   UNL     1      45.780   1.875   8.183  0.00  0.00    +0.000 A 
ATOM     13  C   UNL     1      46.320   2.821   7.322  0.00  0.00    +0.000 A 
ATOM     14  C   UNL     1      46.206   4.151   7.677  0.00  0.00    +0.000 A 
ATOM     15  N   UNL     1      45.595   4.581   8.801  0.00  0.00    +0.000 NA
ATOM     16  H   UNL     1      43.458   3.685  10.809  0.00  0.00    +0.000 HD
ENDBRANCH   8   9
ENDBRANCH   5   8
ENDBRANCH   1   2
BRANCH   1  19
ATOM     17  O   UNL     1      49.602   5.458  16.547  0.00  0.00    +0.000 OA
ATOM     18  C   UNL     1      48.839   6.376  16.835  0.00  0.00    +0.000 C 
ATOM     19  N   UNL     1      48.338   7.241  15.897  0.00  0.00    +0.000 N 
ATOM     20  H   UNL     1      47.854   8.077  16.202  0.00  0.00    +0.000 HD
BRANCH  18  21
ATOM     21  C   UNL     1      48.369   6.568  18.212  0.00  0.00    +0.000 A 
ATOM     22  C   UNL     1      47.903   5.484  18.944  0.00  0.00    +0.000 A 
ATOM     23  S   UNL     1      47.416   5.887  20.528  0.00  0.00    +0.000 S 
ATOM     24  C   UNL     1      47.850   7.518  20.304  0.00  0.00    +0.000 A 
ATOM     25  N   UNL     1      47.727   8.422  21.315  0.00  0.00    +0.000 NA
ATOM     26  C   UNL     1      48.141   9.607  21.020  0.00  0.00    +0.000 A 
ATOM     27  N   UNL     1      48.647   9.980  19.803  0.00  0.00    +0.000 N 
ATOM     28  C   UNL     1      48.699   9.126  18.727  0.00  0.00    +0.000 A 
ATOM     29  O   UNL     1      48.998   9.532  17.610  0.00  0.00    +0.000 OA
ATOM     30  C   UNL     1      48.317   7.760  19.026  0.00  0.00    +0.000 A 
ATOM     31  H   UNL     1      48.913  10.936  19.620  0.00  0.00    +0.000 HD
ENDBRANCH  18  21
ENDBRANCH   1  19
TORSDOF 5
ENDMDL
