MODEL 1
REMARK VINA RESULT:    -8.634      0.000      0.000
REMARK INTER + INTRA:         -13.463
REMARK INTER:                 -12.419
REMARK INTRA:                  -1.043
REMARK UNBOUND:                -1.043
REMARK  Name = 
REMARK  8 active torsions:
REMARK  status: ('A' for Active; 'I' for Inactive)
REMARK    1  A    between atoms: N_1  and  C_2
REMARK    2  A    between atoms: C_2  and  C_3
REMARK    3  A    between atoms: C_2  and  C_10
REMARK    4  A    between atoms: C_3  and  C_4
REMARK    5  A    between atoms: C_10  and  C_11
REMARK    6  A    between atoms: C_14  and  C_15
REMARK    7  A    between atoms: C_15  and  N_16
REMARK    8  A    between atoms: C_17  and  C_19
REMARK                            x       y       z     vdW  Elec       q    Type
REMARK                         _______ _______ _______ _____ _____    ______ ____
ROOT
ATOM      1  C   UNL     1      44.730   5.393  10.845  0.00  0.00    +0.000 A 
ATOM      2  C   UNL     1      45.963   5.888  10.402  0.00  0.00    +0.000 A 
ATOM      3  C   UNL     1      46.709   6.764  11.197  0.00  0.00    +0.000 A 
ATOM      4  C   UNL     1      46.236   7.171  12.451  0.00  0.00    +0.000 A 
ATOM      5  C   UNL     1      44.976   6.725  12.869  0.00  0.00    +0.000 A 
ATOM      6  C   UNL     1      44.234   5.842  12.077  0.00  0.00    +0.000 A 
ENDROOT
BRANCH   1   7
ATOM      7  C   UNL     1      43.943   4.405  10.010  0.00  0.00    +0.000 C 
BRANCH   7   8
ATOM      8  C   UNL     1      44.153   2.914  10.389  0.00  0.00    +0.000 C 
BRANCH   8   9
ATOM      9  N   UNL     1      45.367   2.768  11.214  0.00  0.00    +0.000 NA
ATOM     10  H   UNL     1      46.176   3.135  10.717  0.00  0.00    +0.000 HD
ATOM     11  H   UNL     1      45.558   1.790  11.416  0.00  0.00    +0.000 HD
ENDBRANCH   8   9
BRANCH   8  12
ATOM     12  C   UNL     1      44.240   2.022   9.127  0.00  0.00    +0.000 C 
BRANCH  12  13
ATOM     13  C   UNL     1      45.450   2.260   8.246  0.00  0.00    +0.000 A 
ATOM     14  C   UNL     1      45.690   3.508   7.654  0.00  0.00    +0.000 A 
ATOM     15  C   UNL     1      46.822   3.709   6.860  0.00  0.00    +0.000 A 
ATOM     16  C   UNL     1      47.727   2.669   6.654  0.00  0.00    +0.000 A 
ATOM     17  C   UNL     1      47.501   1.426   7.240  0.00  0.00    +0.000 A 
ATOM     18  C   UNL     1      46.369   1.223   8.031  0.00  0.00    +0.000 A 
ENDBRANCH  12  13
ENDBRANCH   8  12
ENDBRANCH   7   8
ENDBRANCH   1   7
BRANCH   4  19
ATOM     19  C   UNL     1      47.049   8.101  13.315  0.00  0.00    +0.000 C 
BRANCH  19  20
ATOM     20  N   UNL     1      47.490   7.442  14.519  0.00  0.00    +0.000 N 
ATOM     21  C   UNL     1      48.721   6.841  14.593  0.00  0.00    +0.000 C 
ATOM     22  O   UNL     1      49.519   6.875  13.662  0.00  0.00    +0.000 OA
ATOM     23  H   UNL     1      46.775   7.214  15.206  0.00  0.00    +0.000 HD
BRANCH  21  24
ATOM     24  C   UNL     1      49.062   6.205  15.875  0.00  0.00    +0.000 A 
ATOM     25  C   UNL     1      50.132   6.691  16.617  0.00  0.00    +0.000 A 
ATOM     26  S   UNL     1      50.365   5.876  18.095  0.00  0.00    +0.000 S 
ATOM     27  C   UNL     1      49.079   4.808  17.774  0.00  0.00    +0.000 A 
ATOM     28  N   UNL     1      48.755   3.822  18.650  0.00  0.00    +0.000 NA
ATOM     29  C   UNL     1      47.777   3.069  18.268  0.00  0.00    +0.000 A 
ATOM     30  N   UNL     1      47.092   3.217  17.091  0.00  0.00    +0.000 N 
ATOM     31  C   UNL     1      47.368   4.216  16.187  0.00  0.00    +0.000 A 
ATOM     32  O   UNL     1      46.709   4.344  15.161  0.00  0.00    +0.000 OA
ATOM     33  C   UNL     1      48.467   5.085  16.562  0.00  0.00    +0.000 A 
ATOM     34  H   UNL     1      46.330   2.600  16.854  0.00  0.00    +0.000 HD
ENDBRANCH  21  24
ENDBRANCH  19  20
ENDBRANCH   4  19
TORSDOF 8
ENDMDL
MODEL 2
REMARK VINA RESULT:    -8.381      2.078      2.543
REMARK INTER + INTRA:         -13.100
REMARK INTER:                 -12.193
REMARK INTRA:                  -0.906
REMARK UNBOUND:                -1.043
REMARK  Name = 
REMARK  8 active torsions:
REMARK  status: ('A' for Active; 'I' for Inactive)
REMARK    1  A    between atoms: N_1  and  C_2
REMARK    2  A    between atoms: C_2  and  C_3
REMARK    3  A    between atoms: C_2  and  C_10
REMARK    4  A    between atoms: C_3  and  C_4
REMARK    5  A    between atoms: C_10  and  C_11
REMARK    6  A    between atoms: C_14  and  C_15
REMARK    7  A    between atoms: C_15  and  N_16
REMARK    8  A    between atoms: C_17  and  C_19
REMARK                            x       y       z     vdW  Elec       q    Type
REMARK                         _______ _______ _______ _____ _____    ______ ____
ROOT
ATOM      1  C   UNL     1      45.672   4.767  12.236  0.00  0.00    +0.000 A 
ATOM      2  C   UNL     1      46.148   5.957  11.672  0.00  0.00    +0.000 A 
ATOM      3  C   UNL     1      47.153   6.695  12.305  0.00  0.00    +0.000 A 
ATOM      4  C   UNL     1      47.700   6.265  13.520  0.00  0.00    +0.000 A 
ATOM      5  C   UNL     1      47.183   5.107  14.115  0.00  0.00    +0.000 A 
ATOM      6  C   UNL     1      46.184   4.364  13.477  0.00  0.00    +0.000 A 
ENDROOT
BRANCH   1   7
ATOM      7  C   UNL     1      44.620   3.937  11.529  0.00  0.00    +0.000 C 
BRANCH   7   8
ATOM      8  C   UNL     1      44.692   3.974   9.978  0.00  0.00    +0.000 C 
BRANCH   8   9
ATOM      9  N   UNL     1      43.525   4.695   9.435  0.00  0.00    +0.000 NA
ATOM     10  H   UNL     1      43.055   4.128   8.732  0.00  0.00    +0.000 HD
ATOM     11  H   UNL     1      43.807   5.561   8.984  0.00  0.00    +0.000 HD
ENDBRANCH   8   9
BRANCH   8  12
ATOM     12  C   UNL     1      44.772   2.544   9.388  0.00  0.00    +0.000 C 
BRANCH  12  13
ATOM     13  C   UNL     1      45.756   2.366   8.249  0.00  0.00    +0.000 A 
ATOM     14  C   UNL     1      46.399   1.142   8.024  0.00  0.00    +0.000 A 
ATOM     15  C   UNL     1      47.290   0.995   6.957  0.00  0.00    +0.000 A 
ATOM     16  C   UNL     1      47.541   2.067   6.102  0.00  0.00    +0.000 A 
ATOM     17  C   UNL     1      46.904   3.288   6.314  0.00  0.00    +0.000 A 
ATOM     18  C   UNL     1      46.017   3.436   7.381  0.00  0.00    +0.000 A 
ENDBRANCH  12  13
ENDBRANCH   8  12
ENDBRANCH   7   8
ENDBRANCH   1   7
BRANCH   4  19
ATOM     19  C   UNL     1      48.796   7.051  14.193  0.00  0.00    +0.000 C 
BRANCH  19  20
ATOM     20  N   UNL     1      48.535   7.209  15.601  0.00  0.00    +0.000 N 
ATOM     21  C   UNL     1      49.364   6.661  16.547  0.00  0.00    +0.000 C 
ATOM     22  O   UNL     1      50.387   6.054  16.242  0.00  0.00    +0.000 OA
ATOM     23  H   UNL     1      47.599   7.508  15.864  0.00  0.00    +0.000 HD
BRANCH  21  24
ATOM     24  C   UNL     1      48.999   6.894  17.952  0.00  0.00    +0.000 A 
ATOM     25  C   UNL     1      48.828   8.195  18.410  0.00  0.00    +0.000 A 
ATOM     26  S   UNL     1      48.362   8.289  20.046  0.00  0.00    +0.000 S 
ATOM     27  C   UNL     1      48.423   6.596  20.219  0.00  0.00    +0.000 A 
ATOM     28  N   UNL     1      48.148   6.007  21.411  0.00  0.00    +0.000 NA
ATOM     29  C   UNL     1      48.258   4.719  21.408  0.00  0.00    +0.000 A 
ATOM     30  N   UNL     1      48.612   3.970  20.317  0.00  0.00    +0.000 N 
ATOM     31  C   UNL     1      48.872   4.521  19.084  0.00  0.00    +0.000 A 
ATOM     32  O   UNL     1      49.148   3.818  18.119  0.00  0.00    +0.000 OA
ATOM     33  C   UNL     1      48.774   5.967  19.036  0.00  0.00    +0.000 A 
ATOM     34  H   UNL     1      48.671   2.964  20.376  0.00  0.00    +0.000 HD
ENDBRANCH  21  24
ENDBRANCH  19  20
ENDBRANCH   4  19
TORSDOF 8
ENDMDL
MODEL 3
REMARK VINA RESULT:    -8.221      2.505      3.124
REMARK INTER + INTRA:         -12.868
REMARK INTER:                 -11.870
REMARK INTRA:                  -0.998
REMARK UNBOUND:                -1.043
REMARK  Name = 
REMARK  8 active torsions:
REMARK  status: ('A' for Active; 'I' for Inactive)
REMARK    1  A    between atoms: N_1  and  C_2
REMARK    2  A    between atoms: C_2  and  C_3
REMARK    3  A    between atoms: C_2  and  C_10
REMARK    4  A    between atoms: C_3  and  C_4
REMARK    5  A    between atoms: C_10  and  C_11
REMARK    6  A    between atoms: C_14  and  C_15
REMARK    7  A    between atoms: C_15  and  N_16
REMARK    8  A    between atoms: C_17  and  C_19
REMARK                            x       y       z     vdW  Elec       q    Type
REMARK                         _______ _______ _______ _____ _____    ______ ____
ROOT
ATOM      1  C   UNL     1      45.538   4.793  12.187  0.00  0.00    +0.000 A 
ATOM      2  C   UNL     1      46.011   4.243  13.385  0.00  0.00    +0.000 A 
ATOM      3  C   UNL     1      46.975   4.912  14.147  0.00  0.00    +0.000 A 
ATOM      4  C   UNL     1      47.493   6.142  13.725  0.00  0.00    +0.000 A 
ATOM      5  C   UNL     1      47.066   6.663  12.497  0.00  0.00    +0.000 A 
ATOM      6  C   UNL     1      46.096   5.999  11.740  0.00  0.00    +0.000 A 
ENDROOT
BRANCH   1   7
ATOM      7  C   UNL     1      44.457   4.098  11.386  0.00  0.00    +0.000 C 
BRANCH   7   8
ATOM      8  C   UNL     1      44.704   4.056   9.853  0.00  0.00    +0.000 C 
BRANCH   8   9
ATOM      9  N   UNL     1      43.588   4.710   9.143  0.00  0.00    +0.000 NA
ATOM     10  H   UNL     1      43.598   4.454   8.159  0.00  0.00    +0.000 HD
ATOM     11  H   UNL     1      43.667   5.722   9.192  0.00  0.00    +0.000 HD
ENDBRANCH   8   9
BRANCH   8  12
ATOM     12  C   UNL     1      44.888   2.601   9.356  0.00  0.00    +0.000 C 
BRANCH  12  13
ATOM     13  C   UNL     1      45.849   2.427   8.197  0.00  0.00    +0.000 A 
ATOM     14  C   UNL     1      46.506   1.210   7.969  0.00  0.00    +0.000 A 
ATOM     15  C   UNL     1      47.374   1.068   6.884  0.00  0.00    +0.000 A 
ATOM     16  C   UNL     1      47.591   2.135   6.014  0.00  0.00    +0.000 A 
ATOM     17  C   UNL     1      46.941   3.348   6.230  0.00  0.00    +0.000 A 
ATOM     18  C   UNL     1      46.075   3.493   7.314  0.00  0.00    +0.000 A 
ENDBRANCH  12  13
ENDBRANCH   8  12
ENDBRANCH   7   8
ENDBRANCH   1   7
BRANCH   4  19
ATOM     19  C   UNL     1      48.519   6.871  14.554  0.00  0.00    +0.000 C 
BRANCH  19  20
ATOM     20  N   UNL     1      48.311   6.641  15.961  0.00  0.00    +0.000 N 
ATOM     21  C   UNL     1      49.298   6.109  16.752  0.00  0.00    +0.000 C 
ATOM     22  O   UNL     1      50.414   5.850  16.312  0.00  0.00    +0.000 OA
ATOM     23  H   UNL     1      47.348   6.640  16.289  0.00  0.00    +0.000 HD
BRANCH  21  24
ATOM     24  C   UNL     1      48.971   5.926  18.174  0.00  0.00    +0.000 A 
ATOM     25  C   UNL     1      49.227   4.704  18.785  0.00  0.00    +0.000 A 
ATOM     26  S   UNL     1      48.834   4.673  20.442  0.00  0.00    +0.000 S 
ATOM     27  C   UNL     1      48.257   6.274  20.394  0.00  0.00    +0.000 A 
ATOM     28  N   UNL     1      47.744   6.864  21.504  0.00  0.00    +0.000 NA
ATOM     29  C   UNL     1      47.319   8.070  21.319  0.00  0.00    +0.000 A 
ATOM     30  N   UNL     1      47.366   8.739  20.124  0.00  0.00    +0.000 N 
ATOM     31  C   UNL     1      47.901   8.191  18.982  0.00  0.00    +0.000 A 
ATOM     32  O   UNL     1      47.963   8.831  17.938  0.00  0.00    +0.000 OA
ATOM     33  C   UNL     1      48.383   6.831  19.132  0.00  0.00    +0.000 A 
ATOM     34  H   UNL     1      47.026   9.686  20.046  0.00  0.00    +0.000 HD
ENDBRANCH  21  24
ENDBRANCH  19  20
ENDBRANCH   4  19
TORSDOF 8
ENDMDL
MODEL 4
REMARK VINA RESULT:    -8.206      2.261      2.639
REMARK INTER + INTRA:         -12.848
REMARK INTER:                 -11.840
REMARK INTRA:                  -1.008
REMARK UNBOUND:                -1.043
REMARK  Name = 
REMARK  8 active torsions:
REMARK  status: ('A' for Active; 'I' for Inactive)
REMARK    1  A    between atoms: N_1  and  C_2
REMARK    2  A    between atoms: C_2  and  C_3
REMARK    3  A    between atoms: C_2  and  C_10
REMARK    4  A    between atoms: C_3  and  C_4
REMARK    5  A    between atoms: C_10  and  C_11
REMARK    6  A    between atoms: C_14  and  C_15
REMARK    7  A    between atoms: C_15  and  N_16
REMARK    8  A    between atoms: C_17  and  C_19
REMARK                            x       y       z     vdW  Elec       q    Type
REMARK                         _______ _______ _______ _____ _____    ______ ____
ROOT
ATOM      1  C   UNL     1      45.719   4.564  12.551  0.00  0.00    +0.000 A 
ATOM      2  C   UNL     1      46.228   4.088  13.765  0.00  0.00    +0.000 A 
ATOM      3  C   UNL     1      47.112   4.863  14.523  0.00  0.00    +0.000 A 
ATOM      4  C   UNL     1      47.514   6.129  14.079  0.00  0.00    +0.000 A 
ATOM      5  C   UNL     1      47.054   6.580  12.835  0.00  0.00    +0.000 A 
ATOM      6  C   UNL     1      46.163   5.809  12.082  0.00  0.00    +0.000 A 
ENDROOT
BRANCH   1   7
ATOM      7  C   UNL     1      44.722   3.750  11.753  0.00  0.00    +0.000 C 
BRANCH   7   8
ATOM      8  C   UNL     1      44.679   4.072  10.234  0.00  0.00    +0.000 C 
BRANCH   8   9
ATOM      9  N   UNL     1      43.597   5.034   9.952  0.00  0.00    +0.000 NA
ATOM     10  H   UNL     1      43.469   5.136   8.948  0.00  0.00    +0.000 HD
ATOM     11  H   UNL     1      43.820   5.955  10.322  0.00  0.00    +0.000 HD
ENDBRANCH   8   9
BRANCH   8  12
ATOM     12  C   UNL     1      44.498   2.785   9.394  0.00  0.00    +0.000 C 
BRANCH  12  13
ATOM     13  C   UNL     1      45.529   2.568   8.305  0.00  0.00    +0.000 A 
ATOM     14  C   UNL     1      45.841   3.577   7.383  0.00  0.00    +0.000 A 
ATOM     15  C   UNL     1      46.808   3.360   6.398  0.00  0.00    +0.000 A 
ATOM     16  C   UNL     1      47.475   2.139   6.327  0.00  0.00    +0.000 A 
ATOM     17  C   UNL     1      47.175   1.130   7.240  0.00  0.00    +0.000 A 
ATOM     18  C   UNL     1      46.208   1.344   8.223  0.00  0.00    +0.000 A 
ENDBRANCH  12  13
ENDBRANCH   8  12
ENDBRANCH   7   8
ENDBRANCH   1   7
BRANCH   4  19
ATOM     19  C   UNL     1      48.453   6.972  14.903  0.00  0.00    +0.000 C 
BRANCH  19  20
ATOM     20  N   UNL     1      49.501   6.170  15.484  0.00  0.00    +0.000 N 
ATOM     21  C   UNL     1      49.721   6.155  16.838  0.00  0.00    +0.000 C 
ATOM     22  O   UNL     1      49.011   6.782  17.619  0.00  0.00    +0.000 OA
ATOM     23  H   UNL     1      50.221   5.829  14.852  0.00  0.00    +0.000 HD
BRANCH  21  24
ATOM     24  C   UNL     1      50.814   5.295  17.314  0.00  0.00    +0.000 A 
ATOM     25  C   UNL     1      51.967   5.873  17.831  0.00  0.00    +0.000 A 
ATOM     26  S   UNL     1      53.114   4.739  18.380  0.00  0.00    +0.000 S 
ATOM     27  C   UNL     1      52.137   3.432  17.897  0.00  0.00    +0.000 A 
ATOM     28  N   UNL     1      52.553   2.150  18.066  0.00  0.00    +0.000 NA
ATOM     29  C   UNL     1      51.725   1.258  17.631  0.00  0.00    +0.000 A 
ATOM     30  N   UNL     1      50.516   1.535  17.049  0.00  0.00    +0.000 N 
ATOM     31  C   UNL     1      50.042   2.815  16.883  0.00  0.00    +0.000 A 
ATOM     32  O   UNL     1      48.938   3.026  16.393  0.00  0.00    +0.000 OA
ATOM     33  C   UNL     1      50.940   3.857  17.344  0.00  0.00    +0.000 A 
ATOM     34  H   UNL     1      49.908   0.792  16.738  0.00  0.00    +0.000 HD
ENDBRANCH  21  24
ENDBRANCH  19  20
ENDBRANCH   4  19
TORSDOF 8
ENDMDL
MODEL 5
REMARK VINA RESULT:    -7.700      3.492      4.592
REMARK INTER + INTRA:         -12.120
REMARK INTER:                 -10.532
REMARK INTRA:                  -1.588
REMARK UNBOUND:                -1.043
REMARK  Name = 
REMARK  8 active torsions:
REMARK  status: ('A' for Active; 'I' for Inactive)
REMARK    1  A    between atoms: N_1  and  C_2
REMARK    2  A    between atoms: C_2  and  C_3
REMARK    3  A    between atoms: C_2  and  C_10
REMARK    4  A    between atoms: C_3  and  C_4
REMARK    5  A    between atoms: C_10  and  C_11
REMARK    6  A    between atoms: C_14  and  C_15
REMARK    7  A    between atoms: C_15  and  N_16
REMARK    8  A    between atoms: C_17  and  C_19
REMARK                            x       y       z     vdW  Elec       q    Type
REMARK                         _______ _______ _______ _____ _____    ______ ____
ROOT
ATOM      1  C   UNL     1      45.536   4.761  11.854  0.00  0.00    +0.000 A 
ATOM      2  C   UNL     1      46.382   5.108  12.914  0.00  0.00    +0.000 A 
ATOM      3  C   UNL     1      46.597   6.449  13.248  0.00  0.00    +0.000 A 
ATOM      4  C   UNL     1      45.977   7.475  12.523  0.00  0.00    +0.000 A 
ATOM      5  C   UNL     1      45.179   7.131  11.425  0.00  0.00    +0.000 A 
ATOM      6  C   UNL     1      44.957   5.789  11.097  0.00  0.00    +0.000 A 
ENDROOT
BRANCH   1   7
ATOM      7  C   UNL     1      45.261   3.309  11.522  0.00  0.00    +0.000 C 
BRANCH   7   8
ATOM      8  C   UNL     1      44.024   3.068  10.614  0.00  0.00    +0.000 C 
BRANCH   8   9
ATOM      9  N   UNL     1      42.856   2.703  11.438  0.00  0.00    +0.000 NA
ATOM     10  H   UNL     1      43.030   2.927  12.415  0.00  0.00    +0.000 HD
ATOM     11  H   UNL     1      42.671   1.704  11.387  0.00  0.00    +0.000 HD
ENDBRANCH   8   9
BRANCH   8  12
ATOM     12  C   UNL     1      44.311   1.974   9.557  0.00  0.00    +0.000 C 
BRANCH  12  13
ATOM     13  C   UNL     1      45.403   2.304   8.560  0.00  0.00    +0.000 A 
ATOM     14  C   UNL     1      45.575   3.605   8.069  0.00  0.00    +0.000 A 
ATOM     15  C   UNL     1      46.600   3.889   7.162  0.00  0.00    +0.000 A 
ATOM     16  C   UNL     1      47.465   2.880   6.743  0.00  0.00    +0.000 A 
ATOM     17  C   UNL     1      47.305   1.584   7.227  0.00  0.00    +0.000 A 
ATOM     18  C   UNL     1      46.281   1.297   8.130  0.00  0.00    +0.000 A 
ENDBRANCH  12  13
ENDBRANCH   8  12
ENDBRANCH   7   8
ENDBRANCH   1   7
BRANCH   4  19
ATOM     19  C   UNL     1      46.194   8.920  12.893  0.00  0.00    +0.000 C 
BRANCH  19  20
ATOM     20  N   UNL     1      47.552   9.326  12.635  0.00  0.00    +0.000 N 
ATOM     21  C   UNL     1      48.429   9.576  13.660  0.00  0.00    +0.000 C 
ATOM     22  O   UNL     1      48.116   9.422  14.836  0.00  0.00    +0.000 OA
ATOM     23  H   UNL     1      47.759   9.667  11.700  0.00  0.00    +0.000 HD
BRANCH  21  24
ATOM     24  C   UNL     1      49.790   9.978  13.273  0.00  0.00    +0.000 A 
ATOM     25  C   UNL     1      50.283  11.211  13.683  0.00  0.00    +0.000 A 
ATOM     26  S   UNL     1      51.888  11.503  13.191  0.00  0.00    +0.000 S 
ATOM     27  C   UNL     1      51.966  10.016  12.367  0.00  0.00    +0.000 A 
ATOM     28  N   UNL     1      53.087   9.650  11.693  0.00  0.00    +0.000 NA
ATOM     29  C   UNL     1      53.000   8.510  11.091  0.00  0.00    +0.000 A 
ATOM     30  N   UNL     1      51.893   7.702  11.108  0.00  0.00    +0.000 N 
ATOM     31  C   UNL     1      50.747   8.019  11.799  0.00  0.00    +0.000 A 
ATOM     32  O   UNL     1      49.789   7.255  11.826  0.00  0.00    +0.000 OA
ATOM     33  C   UNL     1      50.788   9.297  12.484  0.00  0.00    +0.000 A 
ATOM     34  H   UNL     1      51.891   6.816  10.625  0.00  0.00    +0.000 HD
ENDBRANCH  21  24
ENDBRANCH  19  20
ENDBRANCH   4  19
TORSDOF 8
ENDMDL
MODEL 6
REMARK VINA RESULT:    -7.638      2.825      3.278
REMARK INTER + INTRA:         -12.030
REMARK INTER:                 -11.084
REMARK INTRA:                  -0.945
REMARK UNBOUND:                -1.043
REMARK  Name = 
REMARK  8 active torsions:
REMARK  status: ('A' for Active; 'I' for Inactive)
REMARK    1  A    between atoms: N_1  and  C_2
REMARK    2  A    between atoms: C_2  and  C_3
REMARK    3  A    between atoms: C_2  and  C_10
REMARK    4  A    between atoms: C_3  and  C_4
REMARK    5  A    between atoms: C_10  and  C_11
REMARK    6  A    between atoms: C_14  and  C_15
REMARK    7  A    between atoms: C_15  and  N_16
REMARK    8  A    between atoms: C_17  and  C_19
REMARK                            x       y       z     vdW  Elec       q    Type
REMARK                         _______ _______ _______ _____ _____    ______ ____
ROOT
ATOM      1  C   UNL     1      46.005   4.649  12.457  0.00  0.00    +0.000 A 
ATOM      2  C   UNL     1      46.726   4.592  13.656  0.00  0.00    +0.000 A 
ATOM      3  C   UNL     1      47.393   5.721  14.144  0.00  0.00    +0.000 A 
ATOM      4  C   UNL     1      47.361   6.931  13.439  0.00  0.00    +0.000 A 
ATOM      5  C   UNL     1      46.691   6.973  12.210  0.00  0.00    +0.000 A 
ATOM      6  C   UNL     1      46.017   5.846  11.727  0.00  0.00    +0.000 A 
ENDROOT
BRANCH   1   7
ATOM      7  C   UNL     1      45.239   3.444  11.952  0.00  0.00    +0.000 C 
BRANCH   7   8
ATOM      8  C   UNL     1      43.793   3.742  11.471  0.00  0.00    +0.000 C 
BRANCH   8   9
ATOM      9  N   UNL     1      42.934   2.563  11.694  0.00  0.00    +0.000 NA
ATOM     10  H   UNL     1      42.791   2.061  10.821  0.00  0.00    +0.000 HD
ATOM     11  H   UNL     1      42.017   2.838  12.036  0.00  0.00    +0.000 HD
ENDBRANCH   8   9
BRANCH   8  12
ATOM     12  C   UNL     1      43.774   4.157   9.980  0.00  0.00    +0.000 C 
BRANCH  12  13
ATOM     13  C   UNL     1      44.832   3.507   9.111  0.00  0.00    +0.000 A 
ATOM     14  C   UNL     1      45.001   2.116   9.082  0.00  0.00    +0.000 A 
ATOM     15  C   UNL     1      45.972   1.538   8.260  0.00  0.00    +0.000 A 
ATOM     16  C   UNL     1      46.779   2.342   7.457  0.00  0.00    +0.000 A 
ATOM     17  C   UNL     1      46.618   3.726   7.476  0.00  0.00    +0.000 A 
ATOM     18  C   UNL     1      45.650   4.305   8.298  0.00  0.00    +0.000 A 
ENDBRANCH  12  13
ENDBRANCH   8  12
ENDBRANCH   7   8
ENDBRANCH   1   7
BRANCH   4  19
ATOM     19  C   UNL     1      48.065   8.152  13.973  0.00  0.00    +0.000 C 
BRANCH  19  20
ATOM     20  N   UNL     1      47.779   8.349  15.372  0.00  0.00    +0.000 N 
ATOM     21  C   UNL     1      48.390   9.344  16.092  0.00  0.00    +0.000 C 
ATOM     22  O   UNL     1      49.168  10.138  15.573  0.00  0.00    +0.000 OA
ATOM     23  H   UNL     1      47.320   7.583  15.859  0.00  0.00    +0.000 HD
BRANCH  21  24
ATOM     24  C   UNL     1      48.014   9.451  17.510  0.00  0.00    +0.000 A 
ATOM     25  C   UNL     1      47.681  10.692  18.039  0.00  0.00    +0.000 A 
ATOM     26  S   UNL     1      47.225  10.636  19.680  0.00  0.00    +0.000 S 
ATOM     27  C   UNL     1      47.509   8.959  19.760  0.00  0.00    +0.000 A 
ATOM     28  N   UNL     1      47.328   8.275  20.919  0.00  0.00    +0.000 NA
ATOM     29  C   UNL     1      47.605   7.015  20.844  0.00  0.00    +0.000 A 
ATOM     30  N   UNL     1      48.041   6.378  19.712  0.00  0.00    +0.000 N 
ATOM     31  C   UNL     1      48.212   7.025  18.511  0.00  0.00    +0.000 A 
ATOM     32  O   UNL     1      48.566   6.417  17.507  0.00  0.00    +0.000 OA
ATOM     33  C   UNL     1      47.925   8.446  18.542  0.00  0.00    +0.000 A 
ATOM     34  H   UNL     1      48.231   5.388  19.716  0.00  0.00    +0.000 HD
ENDBRANCH  21  24
ENDBRANCH  19  20
ENDBRANCH   4  19
TORSDOF 8
ENDMDL
MODEL 7
REMARK VINA RESULT:    -7.448      2.042      2.669
REMARK INTER + INTRA:         -11.757
REMARK INTER:                 -10.398
REMARK INTRA:                  -1.359
REMARK UNBOUND:                -1.043
REMARK  Name = 
REMARK  8 active torsions:
REMARK  status: ('A' for Active; 'I' for Inactive)
REMARK    1  A    between atoms: N_1  and  C_2
REMARK    2  A    between atoms: C_2  and  C_3
REMARK    3  A    between atoms: C_2  and  C_10
REMARK    4  A    between atoms: C_3  and  C_4
REMARK    5  A    between atoms: C_10  and  C_11
REMARK    6  A    between atoms: C_14  and  C_15
REMARK    7  A    between atoms: C_15  and  N_16
REMARK    8  A    between atoms: C_17  and  C_19
REMARK                            x       y       z     vdW  Elec       q    Type
REMARK                         _______ _______ _______ _____ _____    ______ ____
ROOT
ATOM      1  C   UNL     1      45.448   5.744  13.074  0.00  0.00    +0.000 A 
ATOM      2  C   UNL     1      46.389   4.896  13.670  0.00  0.00    +0.000 A 
ATOM      3  C   UNL     1      47.640   5.382  14.063  0.00  0.00    +0.000 A 
ATOM      4  C   UNL     1      47.982   6.725  13.862  0.00  0.00    +0.000 A 
ATOM      5  C   UNL     1      47.064   7.559  13.211  0.00  0.00    +0.000 A 
ATOM      6  C   UNL     1      45.810   7.075  12.826  0.00  0.00    +0.000 A 
ENDROOT
BRANCH   1   7
ATOM      7  C   UNL     1      44.073   5.234  12.693  0.00  0.00    +0.000 C 
BRANCH   7   8
ATOM      8  C   UNL     1      43.765   5.255  11.171  0.00  0.00    +0.000 C 
BRANCH   8   9
ATOM      9  N   UNL     1      42.556   6.060  10.912  0.00  0.00    +0.000 NA
ATOM     10  H   UNL     1      41.721   5.491  11.035  0.00  0.00    +0.000 HD
ATOM     11  H   UNL     1      42.545   6.407   9.956  0.00  0.00    +0.000 HD
ENDBRANCH   8   9
BRANCH   8  12
ATOM     12  C   UNL     1      43.595   3.820  10.615  0.00  0.00    +0.000 C 
BRANCH  12  13
ATOM     13  C   UNL     1      44.584   3.419   9.540  0.00  0.00    +0.000 A 
ATOM     14  C   UNL     1      45.212   4.375   8.731  0.00  0.00    +0.000 A 
ATOM     15  C   UNL     1      46.134   3.983   7.756  0.00  0.00    +0.000 A 
ATOM     16  C   UNL     1      46.440   2.634   7.584  0.00  0.00    +0.000 A 
ATOM     17  C   UNL     1      45.824   1.675   8.385  0.00  0.00    +0.000 A 
ATOM     18  C   UNL     1      44.901   2.065   9.356  0.00  0.00    +0.000 A 
ENDBRANCH  12  13
ENDBRANCH   8  12
ENDBRANCH   7   8
ENDBRANCH   1   7
BRANCH   4  19
ATOM     19  C   UNL     1      49.324   7.253  14.301  0.00  0.00    +0.000 C 
BRANCH  19  20
ATOM     20  N   UNL     1      49.528   7.048  15.713  0.00  0.00    +0.000 N 
ATOM     21  C   UNL     1      49.046   7.935  16.641  0.00  0.00    +0.000 C 
ATOM     22  O   UNL     1      48.381   8.916  16.320  0.00  0.00    +0.000 OA
ATOM     23  H   UNL     1      50.248   6.380  15.980  0.00  0.00    +0.000 HD
BRANCH  21  24
ATOM     24  C   UNL     1      49.312   7.617  18.052  0.00  0.00    +0.000 A 
ATOM     25  C   UNL     1      50.054   8.501  18.827  0.00  0.00    +0.000 A 
ATOM     26  S   UNL     1      50.231   8.006  20.448  0.00  0.00    +0.000 S 
ATOM     27  C   UNL     1      49.370   6.566  20.162  0.00  0.00    +0.000 A 
ATOM     28  N   UNL     1      49.177   5.660  21.155  0.00  0.00    +0.000 NA
ATOM     29  C   UNL     1      48.530   4.601  20.793  0.00  0.00    +0.000 A 
ATOM     30  N   UNL     1      48.055   4.371  19.528  0.00  0.00    +0.000 N 
ATOM     31  C   UNL     1      48.204   5.272  18.500  0.00  0.00    +0.000 A 
ATOM     32  O   UNL     1      47.733   5.052  17.390  0.00  0.00    +0.000 OA
ATOM     33  C   UNL     1      48.934   6.475  18.850  0.00  0.00    +0.000 A 
ATOM     34  H   UNL     1      47.548   3.527  19.311  0.00  0.00    +0.000 HD
ENDBRANCH  21  24
ENDBRANCH  19  20
ENDBRANCH   4  19
TORSDOF 8
ENDMDL
MODEL 8
REMARK VINA RESULT:    -7.378      3.005      8.294
REMARK INTER + INTRA:         -11.656
REMARK INTER:                  -9.651
REMARK INTRA:                  -2.006
REMARK UNBOUND:                -1.043
REMARK  Name = 
REMARK  8 active torsions:
REMARK  status: ('A' for Active; 'I' for Inactive)
REMARK    1  A    between atoms: N_1  and  C_2
REMARK    2  A    between atoms: C_2  and  C_3
REMARK    3  A    between atoms: C_2  and  C_10
REMARK    4  A    between atoms: C_3  and  C_4
REMARK    5  A    between atoms: C_10  and  C_11
REMARK    6  A    between atoms: C_14  and  C_15
REMARK    7  A    between atoms: C_15  and  N_16
REMARK    8  A    between atoms: C_17  and  C_19
REMARK                            x       y       z     vdW  Elec       q    Type
REMARK                         _______ _______ _______ _____ _____    ______ ____
ROOT
ATOM      1  C   UNL     1      48.979   8.052  16.260  0.00  0.00    +0.000 A 
ATOM      2  C   UNL     1      49.347   6.943  15.488  0.00  0.00    +0.000 A 
ATOM      3  C   UNL     1      48.952   6.841  14.150  0.00  0.00    +0.000 A 
ATOM      4  C   UNL     1      48.174   7.842  13.555  0.00  0.00    +0.000 A 
ATOM      5  C   UNL     1      47.755   8.921  14.343  0.00  0.00    +0.000 A 
ATOM      6  C   UNL     1      48.157   9.027  15.679  0.00  0.00    +0.000 A 
ENDROOT
BRANCH   1   7
ATOM      7  C   UNL     1      49.447   8.191  17.694  0.00  0.00    +0.000 C 
BRANCH   7   8
ATOM      8  C   UNL     1      48.461   7.643  18.761  0.00  0.00    +0.000 C 
BRANCH   8   9
ATOM      9  N   UNL     1      48.273   8.639  19.833  0.00  0.00    +0.000 NA
ATOM     10  H   UNL     1      47.434   8.426  20.368  0.00  0.00    +0.000 HD
ATOM     11  H   UNL     1      48.155   9.573  19.448  0.00  0.00    +0.000 HD
ENDBRANCH   8   9
BRANCH   8  12
ATOM     12  C   UNL     1      48.960   6.299  19.345  0.00  0.00    +0.000 C 
BRANCH  12  13
ATOM     13  C   UNL     1      48.683   5.077  18.493  0.00  0.00    +0.000 A 
ATOM     14  C   UNL     1      47.414   4.839  17.948  0.00  0.00    +0.000 A 
ATOM     15  C   UNL     1      47.186   3.714  17.150  0.00  0.00    +0.000 A 
ATOM     16  C   UNL     1      48.222   2.821  16.887  0.00  0.00    +0.000 A 
ATOM     17  C   UNL     1      49.489   3.049  17.421  0.00  0.00    +0.000 A 
ATOM     18  C   UNL     1      49.717   4.171  18.219  0.00  0.00    +0.000 A 
ENDBRANCH  12  13
ENDBRANCH   8  12
ENDBRANCH   7   8
ENDBRANCH   1   7
BRANCH   4  19
ATOM     19  C   UNL     1      47.763   7.741  12.109  0.00  0.00    +0.000 C 
BRANCH  19  20
ATOM     20  N   UNL     1      47.045   6.517  11.854  0.00  0.00    +0.000 N 
ATOM     21  C   UNL     1      45.677   6.463  11.933  0.00  0.00    +0.000 C 
ATOM     22  O   UNL     1      44.999   7.456  12.174  0.00  0.00    +0.000 OA
ATOM     23  H   UNL     1      47.586   5.656  11.872  0.00  0.00    +0.000 HD
BRANCH  21  24
ATOM     24  C   UNL     1      45.056   5.161  11.646  0.00  0.00    +0.000 A 
ATOM     25  C   UNL     1      44.377   4.488  12.655  0.00  0.00    +0.000 A 
ATOM     26  S   UNL     1      43.678   3.019  12.147  0.00  0.00    +0.000 S 
ATOM     27  C   UNL     1      44.303   3.200  10.574  0.00  0.00    +0.000 A 
ATOM     28  N   UNL     1      44.086   2.255   9.623  0.00  0.00    +0.000 NA
ATOM     29  C   UNL     1      44.639   2.506   8.483  0.00  0.00    +0.000 A 
ATOM     30  N   UNL     1      45.386   3.622   8.208  0.00  0.00    +0.000 N 
ATOM     31  C   UNL     1      45.609   4.617   9.131  0.00  0.00    +0.000 A 
ATOM     32  O   UNL     1      46.249   5.622   8.840  0.00  0.00    +0.000 OA
ATOM     33  C   UNL     1      45.018   4.379  10.434  0.00  0.00    +0.000 A 
ATOM     34  H   UNL     1      45.785   3.766   7.293  0.00  0.00    +0.000 HD
ENDBRANCH  21  24
ENDBRANCH  19  20
ENDBRANCH   4  19
TORSDOF 8
ENDMDL
MODEL 9
REMARK VINA RESULT:    -7.374      3.752      9.678
REMARK INTER + INTRA:         -11.651
REMARK INTER:                  -9.668
REMARK INTRA:                  -1.983
REMARK UNBOUND:                -1.043
REMARK  Name = 
REMARK  8 active torsions:
REMARK  status: ('A' for Active; 'I' for Inactive)
REMARK    1  A    between atoms: N_1  and  C_2
REMARK    2  A    between atoms: C_2  and  C_3
REMARK    3  A    between atoms: C_2  and  C_10
REMARK    4  A    between atoms: C_3  and  C_4
REMARK    5  A    between atoms: C_10  and  C_11
REMARK    6  A    between atoms: C_14  and  C_15
REMARK    7  A    between atoms: C_15  and  N_16
REMARK    8  A    between atoms: C_17  and  C_19
REMARK                            x       y       z     vdW  Elec       q    Type
REMARK                         _______ _______ _______ _____ _____    ______ ____
ROOT
ATOM      1  C   UNL     1      51.342   4.311  17.773  0.00  0.00    +0.000 A 
ATOM      2  C   UNL     1      50.489   5.355  17.393  0.00  0.00    +0.000 A 
ATOM      3  C   UNL     1      49.157   5.102  17.052  0.00  0.00    +0.000 A 
ATOM      4  C   UNL     1      48.648   3.797  17.075  0.00  0.00    +0.000 A 
ATOM      5  C   UNL     1      49.515   2.745  17.395  0.00  0.00    +0.000 A 
ATOM      6  C   UNL     1      50.846   3.000  17.745  0.00  0.00    +0.000 A 
ENDROOT
BRANCH   1   7
ATOM      7  C   UNL     1      52.771   4.587  18.193  0.00  0.00    +0.000 C 
BRANCH   7   8
ATOM      8  C   UNL     1      52.922   5.522  19.424  0.00  0.00    +0.000 C 
BRANCH   8   9
ATOM      9  N   UNL     1      54.348   5.667  19.775  0.00  0.00    +0.000 NA
ATOM     10  H   UNL     1      54.630   6.642  19.710  0.00  0.00    +0.000 HD
ATOM     11  H   UNL     1      54.938   5.140  19.136  0.00  0.00    +0.000 HD
ENDBRANCH   8   9
BRANCH   8  12
ATOM     12  C   UNL     1      52.114   4.991  20.632  0.00  0.00    +0.000 C 
BRANCH  12  13
ATOM     13  C   UNL     1      50.709   5.543  20.768  0.00  0.00    +0.000 A 
ATOM     14  C   UNL     1      49.610   4.701  20.984  0.00  0.00    +0.000 A 
ATOM     15  C   UNL     1      48.326   5.235  21.123  0.00  0.00    +0.000 A 
ATOM     16  C   UNL     1      48.128   6.613  21.053  0.00  0.00    +0.000 A 
ATOM     17  C   UNL     1      49.214   7.460  20.842  0.00  0.00    +0.000 A 
ATOM     18  C   UNL     1      50.497   6.928  20.700  0.00  0.00    +0.000 A 
ENDBRANCH  12  13
ENDBRANCH   8  12
ENDBRANCH   7   8
ENDBRANCH   1   7
BRANCH   4  19
ATOM     19  C   UNL     1      47.208   3.526  16.724  0.00  0.00    +0.000 C 
BRANCH  19  20
ATOM     20  N   UNL     1      46.720   4.472  15.752  0.00  0.00    +0.000 N 
ATOM     21  C   UNL     1      46.808   4.221  14.406  0.00  0.00    +0.000 C 
ATOM     22  O   UNL     1      47.259   3.167  13.968  0.00  0.00    +0.000 OA
ATOM     23  H   UNL     1      46.553   5.420  16.078  0.00  0.00    +0.000 HD
BRANCH  21  24
ATOM     24  C   UNL     1      46.272   5.258  13.511  0.00  0.00    +0.000 A 
ATOM     25  C   UNL     1      47.040   6.380  13.223  0.00  0.00    +0.000 A 
ATOM     26  S   UNL     1      46.293   7.459  12.136  0.00  0.00    +0.000 S 
ATOM     27  C   UNL     1      44.894   6.494  12.051  0.00  0.00    +0.000 A 
ATOM     28  N   UNL     1      43.832   6.870  11.292  0.00  0.00    +0.000 NA
ATOM     29  C   UNL     1      42.827   6.060  11.340  0.00  0.00    +0.000 A 
ATOM     30  N   UNL     1      42.793   4.904  12.076  0.00  0.00    +0.000 N 
ATOM     31  C   UNL     1      43.853   4.471  12.837  0.00  0.00    +0.000 A 
ATOM     32  O   UNL     1      43.803   3.411  13.452  0.00  0.00    +0.000 OA
ATOM     33  C   UNL     1      45.005   5.352  12.827  0.00  0.00    +0.000 A 
ATOM     34  H   UNL     1      41.979   4.307  12.064  0.00  0.00    +0.000 HD
ENDBRANCH  21  24
ENDBRANCH  19  20
ENDBRANCH   4  19
TORSDOF 8
ENDMDL
