MODEL 1
REMARK VINA RESULT:    -7.588      0.000      0.000
REMARK INTER + INTRA:         -11.050
REMARK INTER:                  -9.806
REMARK INTRA:                  -1.243
REMARK UNBOUND:                -1.243
REMARK  Name = 
REMARK  6 active torsions:
REMARK  status: ('A' for Active; 'I' for Inactive)
REMARK    1  A    between atoms: C_1  and  C_2
REMARK    2  A    between atoms: C_2  and  N_3
REMARK    3  A    between atoms: C_2  and  C_16
REMARK    4  A    between atoms: C_4  and  C_6
REMARK    5  A    between atoms: C_19  and  O_20
REMARK    6  A    between atoms: O_20  and  C_21
REMARK                            x       y       z     vdW  Elec       q    Type
REMARK                         _______ _______ _______ _____ _____    ______ ____
ROOT
ATOM      1  C   UNL     1      47.973   9.153  12.946  0.00  0.00    +0.000 C 
ATOM      2  C   UNL     1      47.205   8.087  13.734  0.00  0.00    +0.000 C 
ENDROOT
BRANCH   2   3
ATOM      3  C   UNL     1      46.393   7.161  12.845  0.00  0.00    +0.000 A 
ATOM      4  C   UNL     1      45.402   7.712  12.015  0.00  0.00    +0.000 A 
ATOM      5  C   UNL     1      44.619   6.891  11.203  0.00  0.00    +0.000 A 
ATOM      6  C   UNL     1      44.836   5.513  11.178  0.00  0.00    +0.000 A 
ATOM      7  C   UNL     1      45.777   4.948  12.038  0.00  0.00    +0.000 A 
ATOM      8  C   UNL     1      46.543   5.765  12.873  0.00  0.00    +0.000 A 
BRANCH   6   9
ATOM      9  O   UNL     1      44.111   4.630  10.409  0.00  0.00    +0.000 OA
BRANCH   9  10
ATOM     10  C   UNL     1      44.796   3.802   9.530  0.00  0.00    +0.000 A 
ATOM     11  C   UNL     1      45.512   4.436   8.523  0.00  0.00    +0.000 A 
ATOM     12  C   UNL     1      46.244   3.650   7.635  0.00  0.00    +0.000 A 
ATOM     13  C   UNL     1      46.228   2.267   7.779  0.00  0.00    +0.000 A 
ATOM     14 CL   UNL     1      47.147   1.267   6.733  0.00  0.00    +0.000 Cl
ATOM     15  C   UNL     1      45.459   1.720   8.794  0.00  0.00    +0.000 A 
ATOM     16  N   UNL     1      44.729   2.457   9.662  0.00  0.00    +0.000 NA
ENDBRANCH   9  10
ENDBRANCH   6   9
ENDBRANCH   2   3
BRANCH   2  17
ATOM     17  N   UNL     1      48.099   7.282  14.541  0.00  0.00    +0.000 N 
ATOM     18  C   UNL     1      48.554   7.658  15.775  0.00  0.00    +0.000 C 
ATOM     19  O   UNL     1      48.228   8.727  16.287  0.00  0.00    +0.000 OA
ATOM     20  H   UNL     1      48.366   6.385  14.152  0.00  0.00    +0.000 HD
BRANCH  18  21
ATOM     21  C   UNL     1      49.461   6.724  16.469  0.00  0.00    +0.000 A 
ATOM     22  C   UNL     1      50.703   7.177  16.899  0.00  0.00    +0.000 A 
ATOM     23  S   UNL     1      51.662   5.975  17.633  0.00  0.00    +0.000 S 
ATOM     24  C   UNL     1      50.457   4.798  17.408  0.00  0.00    +0.000 A 
ATOM     25  N   UNL     1      50.666   3.510  17.792  0.00  0.00    +0.000 NA
ATOM     26  C   UNL     1      49.675   2.715  17.563  0.00  0.00    +0.000 A 
ATOM     27  N   UNL     1      48.488   3.097  16.997  0.00  0.00    +0.000 N 
ATOM     28  C   UNL     1      48.224   4.390  16.614  0.00  0.00    +0.000 A 
ATOM     29  O   UNL     1      47.132   4.694  16.146  0.00  0.00    +0.000 OA
ATOM     30  C   UNL     1      49.321   5.321  16.811  0.00  0.00    +0.000 A 
ATOM     31  H   UNL     1      47.740   2.433  16.863  0.00  0.00    +0.000 HD
ENDBRANCH  18  21
ENDBRANCH   2  17
TORSDOF 5
ENDMDL
MODEL 2
REMARK VINA RESULT:    -7.032      1.869      1.945
REMARK INTER + INTRA:         -10.330
REMARK INTER:                  -9.283
REMARK INTRA:                  -1.047
REMARK UNBOUND:                -1.243
REMARK  Name = 
REMARK  6 active torsions:
REMARK  status: ('A' for Active; 'I' for Inactive)
REMARK    1  A    between atoms: C_1  and  C_2
REMARK    2  A    between atoms: C_2  and  N_3
REMARK    3  A    between atoms: C_2  and  C_16
REMARK    4  A    between atoms: C_4  and  C_6
REMARK    5  A    between atoms: C_19  and  O_20
REMARK    6  A    between atoms: O_20  and  C_21
REMARK                            x       y       z     vdW  Elec       q    Type
REMARK                         _______ _______ _______ _____ _____    ______ ____
ROOT
ATOM      1  C   UNL     1      49.712   7.811  13.395  0.00  0.00    +0.000 C 
ATOM      2  C   UNL     1      48.264   7.944  13.877  0.00  0.00    +0.000 C 
ENDROOT
BRANCH   2   3
ATOM      3  C   UNL     1      47.289   7.104  13.068  0.00  0.00    +0.000 A 
ATOM      4  C   UNL     1      46.464   7.740  12.125  0.00  0.00    +0.000 A 
ATOM      5  C   UNL     1      45.540   7.007  11.381  0.00  0.00    +0.000 A 
ATOM      6  C   UNL     1      45.448   5.624  11.539  0.00  0.00    +0.000 A 
ATOM      7  C   UNL     1      46.221   4.989  12.511  0.00  0.00    +0.000 A 
ATOM      8  C   UNL     1      47.127   5.726  13.277  0.00  0.00    +0.000 A 
BRANCH   6   9
ATOM      9  O   UNL     1      44.566   4.823  10.849  0.00  0.00    +0.000 OA
BRANCH   9  10
ATOM     10  C   UNL     1      45.061   4.016   9.832  0.00  0.00    +0.000 A 
ATOM     11  C   UNL     1      45.672   4.672   8.772  0.00  0.00    +0.000 A 
ATOM     12  C   UNL     1      46.215   3.904   7.744  0.00  0.00    +0.000 A 
ATOM     13  C   UNL     1      46.121   2.519   7.807  0.00  0.00    +0.000 A 
ATOM     14 CL   UNL     1      46.811   1.536   6.582  0.00  0.00    +0.000 Cl
ATOM     15  C   UNL     1      45.464   1.952   8.888  0.00  0.00    +0.000 A 
ATOM     16  N   UNL     1      44.917   2.672   9.894  0.00  0.00    +0.000 NA
ENDBRANCH   9  10
ENDBRANCH   6   9
ENDBRANCH   2   3
BRANCH   2  17
ATOM     17  N   UNL     1      48.136   7.579  15.273  0.00  0.00    +0.000 N 
ATOM     18  C   UNL     1      48.505   8.393  16.308  0.00  0.00    +0.000 C 
ATOM     19  O   UNL     1      48.980   9.511  16.114  0.00  0.00    +0.000 OA
ATOM     20  H   UNL     1      47.726   6.671  15.461  0.00  0.00    +0.000 HD
BRANCH  18  21
ATOM     21  C   UNL     1      48.311   7.872  17.674  0.00  0.00    +0.000 A 
ATOM     22  C   UNL     1      47.880   8.735  18.676  0.00  0.00    +0.000 A 
ATOM     23  S   UNL     1      47.755   8.007  20.211  0.00  0.00    +0.000 S 
ATOM     24  C   UNL     1      48.271   6.506  19.601  0.00  0.00    +0.000 A 
ATOM     25  N   UNL     1      48.420   5.436  20.429  0.00  0.00    +0.000 NA
ATOM     26  C   UNL     1      48.822   4.358  19.843  0.00  0.00    +0.000 A 
ATOM     27  N   UNL     1      49.073   4.250  18.501  0.00  0.00    +0.000 N 
ATOM     28  C   UNL     1      48.915   5.297  17.625  0.00  0.00    +0.000 A 
ATOM     29  O   UNL     1      49.115   5.144  16.425  0.00  0.00    +0.000 OA
ATOM     30  C   UNL     1      48.504   6.548  18.236  0.00  0.00    +0.000 A 
ATOM     31  H   UNL     1      49.363   3.372  18.097  0.00  0.00    +0.000 HD
ENDBRANCH  18  21
ENDBRANCH   2  17
TORSDOF 5
ENDMDL
MODEL 3
REMARK VINA RESULT:    -6.928      2.029      2.360
REMARK INTER + INTRA:         -10.196
REMARK INTER:                  -9.514
REMARK INTRA:                  -0.683
REMARK UNBOUND:                -1.243
REMARK  Name = 
REMARK  6 active torsions:
REMARK  status: ('A' for Active; 'I' for Inactive)
REMARK    1  A    between atoms: C_1  and  C_2
REMARK    2  A    between atoms: C_2  and  N_3
REMARK    3  A    between atoms: C_2  and  C_16
REMARK    4  A    between atoms: C_4  and  C_6
REMARK    5  A    between atoms: C_19  and  O_20
REMARK    6  A    between atoms: O_20  and  C_21
REMARK                            x       y       z     vdW  Elec       q    Type
REMARK                         _______ _______ _______ _____ _____    ______ ____
ROOT
ATOM      1  C   UNL     1      49.155   8.042  13.389  0.00  0.00    +0.000 C 
ATOM      2  C   UNL     1      47.895   7.526  14.093  0.00  0.00    +0.000 C 
ENDROOT
BRANCH   2   3
ATOM      3  C   UNL     1      46.963   6.767  13.163  0.00  0.00    +0.000 A 
ATOM      4  C   UNL     1      46.718   5.405  13.411  0.00  0.00    +0.000 A 
ATOM      5  C   UNL     1      45.888   4.668  12.566  0.00  0.00    +0.000 A 
ATOM      6  C   UNL     1      45.260   5.285  11.483  0.00  0.00    +0.000 A 
ATOM      7  C   UNL     1      45.540   6.620  11.194  0.00  0.00    +0.000 A 
ATOM      8  C   UNL     1      46.393   7.353  12.023  0.00  0.00    +0.000 A 
BRANCH   6   9
ATOM      9  O   UNL     1      44.428   4.635  10.599  0.00  0.00    +0.000 OA
BRANCH   9  10
ATOM     10  C   UNL     1      45.001   3.839   9.616  0.00  0.00    +0.000 A 
ATOM     11  C   UNL     1      45.597   4.509   8.556  0.00  0.00    +0.000 A 
ATOM     12  C   UNL     1      46.215   3.754   7.560  0.00  0.00    +0.000 A 
ATOM     13  C   UNL     1      46.208   2.367   7.655  0.00  0.00    +0.000 A 
ATOM     14 CL   UNL     1      46.992   1.404   6.472  0.00  0.00    +0.000 Cl
ATOM     15  C   UNL     1      45.561   1.785   8.732  0.00  0.00    +0.000 A 
ATOM     16  N   UNL     1      44.942   2.490   9.707  0.00  0.00    +0.000 NA
ENDBRANCH   9  10
ENDBRANCH   6   9
ENDBRANCH   2   3
BRANCH   2  17
ATOM     17  N   UNL     1      48.229   6.668  15.211  0.00  0.00    +0.000 N 
ATOM     18  C   UNL     1      48.580   7.134  16.448  0.00  0.00    +0.000 C 
ATOM     19  O   UNL     1      48.638   8.337  16.693  0.00  0.00    +0.000 OA
ATOM     20  H   UNL     1      48.168   5.671  15.041  0.00  0.00    +0.000 HD
BRANCH  18  21
ATOM     21  C   UNL     1      48.893   6.128  17.480  0.00  0.00    +0.000 A 
ATOM     22  C   UNL     1      49.689   5.038  17.148  0.00  0.00    +0.000 A 
ATOM     23  S   UNL     1      49.919   3.933  18.423  0.00  0.00    +0.000 S 
ATOM     24  C   UNL     1      48.963   4.865  19.476  0.00  0.00    +0.000 A 
ATOM     25  N   UNL     1      48.722   4.445  20.747  0.00  0.00    +0.000 NA
ATOM     26  C   UNL     1      47.978   5.240  21.441  0.00  0.00    +0.000 A 
ATOM     27  N   UNL     1      47.468   6.426  20.982  0.00  0.00    +0.000 N 
ATOM     28  C   UNL     1      47.704   6.899  19.714  0.00  0.00    +0.000 A 
ATOM     29  O   UNL     1      47.257   7.985  19.358  0.00  0.00    +0.000 OA
ATOM     30  C   UNL     1      48.501   6.024  18.873  0.00  0.00    +0.000 A 
ATOM     31  H   UNL     1      46.911   7.017  21.581  0.00  0.00    +0.000 HD
ENDBRANCH  18  21
ENDBRANCH   2  17
TORSDOF 5
ENDMDL
MODEL 4
REMARK VINA RESULT:    -6.741      1.995      2.733
REMARK INTER + INTRA:          -9.955
REMARK INTER:                  -8.714
REMARK INTRA:                  -1.241
REMARK UNBOUND:                -1.243
REMARK  Name = 
REMARK  6 active torsions:
REMARK  status: ('A' for Active; 'I' for Inactive)
REMARK    1  A    between atoms: C_1  and  C_2
REMARK    2  A    between atoms: C_2  and  N_3
REMARK    3  A    between atoms: C_2  and  C_16
REMARK    4  A    between atoms: C_4  and  C_6
REMARK    5  A    between atoms: C_19  and  O_20
REMARK    6  A    between atoms: O_20  and  C_21
REMARK                            x       y       z     vdW  Elec       q    Type
REMARK                         _______ _______ _______ _____ _____    ______ ____
ROOT
ATOM      1  C   UNL     1      47.956   9.896  12.742  0.00  0.00    +0.000 C 
ATOM      2  C   UNL     1      47.290   8.838  13.628  0.00  0.00    +0.000 C 
ENDROOT
BRANCH   2   3
ATOM      3  C   UNL     1      46.488   7.819  12.836  0.00  0.00    +0.000 A 
ATOM      4  C   UNL     1      46.862   6.466  12.893  0.00  0.00    +0.000 A 
ATOM      5  C   UNL     1      46.166   5.505  12.161  0.00  0.00    +0.000 A 
ATOM      6  C   UNL     1      45.062   5.871  11.390  0.00  0.00    +0.000 A 
ATOM      7  C   UNL     1      44.715   7.217  11.280  0.00  0.00    +0.000 A 
ATOM      8  C   UNL     1      45.429   8.185  11.991  0.00  0.00    +0.000 A 
BRANCH   6   9
ATOM      9  O   UNL     1      44.318   4.991  10.636  0.00  0.00    +0.000 OA
BRANCH   9  10
ATOM     10  C   UNL     1      44.972   4.220   9.683  0.00  0.00    +0.000 A 
ATOM     11  C   UNL     1      44.873   2.844   9.836  0.00  0.00    +0.000 A 
ATOM     12  C   UNL     1      45.483   2.027   8.886  0.00  0.00    +0.000 A 
ATOM     13  C   UNL     1      46.173   2.611   7.829  0.00  0.00    +0.000 A 
ATOM     14 CL   UNL     1      46.904   1.642   6.618  0.00  0.00    +0.000 Cl
ATOM     15  C   UNL     1      46.248   3.993   7.776  0.00  0.00    +0.000 A 
ATOM     16  N   UNL     1      45.676   4.811   8.689  0.00  0.00    +0.000 NA
ENDBRANCH   9  10
ENDBRANCH   6   9
ENDBRANCH   2   3
BRANCH   2  17
ATOM     17  N   UNL     1      48.267   8.131  14.430  0.00  0.00    +0.000 N 
ATOM     18  C   UNL     1      48.510   8.405  15.748  0.00  0.00    +0.000 C 
ATOM     19  O   UNL     1      47.903   9.291  16.347  0.00  0.00    +0.000 OA
ATOM     20  H   UNL     1      48.765   7.380  13.966  0.00  0.00    +0.000 HD
BRANCH  18  21
ATOM     21  C   UNL     1      49.540   7.593  16.424  0.00  0.00    +0.000 A 
ATOM     22  C   UNL     1      49.231   6.970  17.628  0.00  0.00    +0.000 A 
ATOM     23  S   UNL     1      50.532   6.113  18.318  0.00  0.00    +0.000 S 
ATOM     24  C   UNL     1      51.564   6.539  17.035  0.00  0.00    +0.000 A 
ATOM     25  N   UNL     1      52.866   6.145  17.034  0.00  0.00    +0.000 NA
ATOM     26  C   UNL     1      53.543   6.537  16.006  0.00  0.00    +0.000 A 
ATOM     27  N   UNL     1      53.029   7.273  14.972  0.00  0.00    +0.000 N 
ATOM     28  C   UNL     1      51.716   7.674  14.921  0.00  0.00    +0.000 A 
ATOM     29  O   UNL     1      51.289   8.300  13.956  0.00  0.00    +0.000 OA
ATOM     30  C   UNL     1      50.916   7.297  16.073  0.00  0.00    +0.000 A 
ATOM     31  H   UNL     1      53.603   7.530  14.183  0.00  0.00    +0.000 HD
ENDBRANCH  18  21
ENDBRANCH   2  17
TORSDOF 5
ENDMDL
MODEL 5
REMARK VINA RESULT:    -6.719      4.099      5.902
REMARK INTER + INTRA:          -9.926
REMARK INTER:                  -8.937
REMARK INTRA:                  -0.989
REMARK UNBOUND:                -1.243
REMARK  Name = 
REMARK  6 active torsions:
REMARK  status: ('A' for Active; 'I' for Inactive)
REMARK    1  A    between atoms: C_1  and  C_2
REMARK    2  A    between atoms: C_2  and  N_3
REMARK    3  A    between atoms: C_2  and  C_16
REMARK    4  A    between atoms: C_4  and  C_6
REMARK    5  A    between atoms: C_19  and  O_20
REMARK    6  A    between atoms: O_20  and  C_21
REMARK                            x       y       z     vdW  Elec       q    Type
REMARK                         _______ _______ _______ _____ _____    ______ ____
ROOT
ATOM      1  C   UNL     1      44.397   4.331  13.054  0.00  0.00    +0.000 C 
ATOM      2  C   UNL     1      45.685   5.160  12.996  0.00  0.00    +0.000 C 
ENDROOT
BRANCH   2   3
ATOM      3  C   UNL     1      45.455   6.584  12.522  0.00  0.00    +0.000 A 
ATOM      4  C   UNL     1      46.177   7.627  13.128  0.00  0.00    +0.000 A 
ATOM      5  C   UNL     1      45.976   8.951  12.736  0.00  0.00    +0.000 A 
ATOM      6  C   UNL     1      45.080   9.253  11.710  0.00  0.00    +0.000 A 
ATOM      7  C   UNL     1      44.317   8.234  11.140  0.00  0.00    +0.000 A 
ATOM      8  C   UNL     1      44.497   6.911  11.550  0.00  0.00    +0.000 A 
BRANCH   6   9
ATOM      9  O   UNL     1      44.819  10.528  11.261  0.00  0.00    +0.000 OA
BRANCH   9  10
ATOM     10  C   UNL     1      43.498  10.891  11.034  0.00  0.00    +0.000 A 
ATOM     11  C   UNL     1      43.117  11.013   9.704  0.00  0.00    +0.000 A 
ATOM     12  C   UNL     1      41.792  11.343   9.423  0.00  0.00    +0.000 A 
ATOM     13  C   UNL     1      40.904  11.546  10.474  0.00  0.00    +0.000 A 
ATOM     14 CL   UNL     1      39.257  11.913  10.171  0.00  0.00    +0.000 Cl
ATOM     15  C   UNL     1      41.382  11.434  11.770  0.00  0.00    +0.000 A 
ATOM     16  N   UNL     1      42.664  11.128  12.073  0.00  0.00    +0.000 NA
ENDBRANCH   9  10
ENDBRANCH   6   9
ENDBRANCH   2   3
BRANCH   2  17
ATOM     17  N   UNL     1      46.341   5.205  14.287  0.00  0.00    +0.000 N 
ATOM     18  C   UNL     1      47.109   4.189  14.785  0.00  0.00    +0.000 C 
ATOM     19  O   UNL     1      47.293   3.148  14.156  0.00  0.00    +0.000 OA
ATOM     20  H   UNL     1      46.224   6.061  14.817  0.00  0.00    +0.000 HD
BRANCH  18  21
ATOM     21  C   UNL     1      47.707   4.391  16.118  0.00  0.00    +0.000 A 
ATOM     22  C   UNL     1      47.387   3.512  17.147  0.00  0.00    +0.000 A 
ATOM     23  S   UNL     1      48.108   3.901  18.640  0.00  0.00    +0.000 S 
ATOM     24  C   UNL     1      48.879   5.263  17.975  0.00  0.00    +0.000 A 
ATOM     25  N   UNL     1      49.642   6.077  18.754  0.00  0.00    +0.000 NA
ATOM     26  C   UNL     1      50.168   7.077  18.129  0.00  0.00    +0.000 A 
ATOM     27  N   UNL     1      50.012   7.326  16.792  0.00  0.00    +0.000 N 
ATOM     28  C   UNL     1      49.269   6.520  15.963  0.00  0.00    +0.000 A 
ATOM     29  O   UNL     1      49.188   6.761  14.763  0.00  0.00    +0.000 OA
ATOM     30  C   UNL     1      48.619   5.401  16.621  0.00  0.00    +0.000 A 
ATOM     31  H   UNL     1      50.468   8.113  16.354  0.00  0.00    +0.000 HD
ENDBRANCH  18  21
ENDBRANCH   2  17
TORSDOF 5
ENDMDL
MODEL 6
REMARK VINA RESULT:    -6.614      1.615      2.209
REMARK INTER + INTRA:          -9.791
REMARK INTER:                  -8.864
REMARK INTRA:                  -0.927
REMARK UNBOUND:                -1.243
REMARK  Name = 
REMARK  6 active torsions:
REMARK  status: ('A' for Active; 'I' for Inactive)
REMARK    1  A    between atoms: C_1  and  C_2
REMARK    2  A    between atoms: C_2  and  N_3
REMARK    3  A    between atoms: C_2  and  C_16
REMARK    4  A    between atoms: C_4  and  C_6
REMARK    5  A    between atoms: C_19  and  O_20
REMARK    6  A    between atoms: O_20  and  C_21
REMARK                            x       y       z     vdW  Elec       q    Type
REMARK                         _______ _______ _______ _____ _____    ______ ____
ROOT
ATOM      1  C   UNL     1      49.369   8.181  13.140  0.00  0.00    +0.000 C 
ATOM      2  C   UNL     1      48.158   7.656  13.918  0.00  0.00    +0.000 C 
ENDROOT
BRANCH   2   3
ATOM      3  C   UNL     1      47.192   6.866  13.052  0.00  0.00    +0.000 A 
ATOM      4  C   UNL     1      46.999   5.500  13.321  0.00  0.00    +0.000 A 
ATOM      5  C   UNL     1      46.139   4.736  12.532  0.00  0.00    +0.000 A 
ATOM      6  C   UNL     1      45.429   5.328  11.487  0.00  0.00    +0.000 A 
ATOM      7  C   UNL     1      45.655   6.669  11.174  0.00  0.00    +0.000 A 
ATOM      8  C   UNL     1      46.537   7.429  11.945  0.00  0.00    +0.000 A 
BRANCH   6   9
ATOM      9  O   UNL     1      44.563   4.651  10.659  0.00  0.00    +0.000 OA
BRANCH   9  10
ATOM     10  C   UNL     1      45.095   3.847   9.660  0.00  0.00    +0.000 A 
ATOM     11  C   UNL     1      45.692   4.508   8.595  0.00  0.00    +0.000 A 
ATOM     12  C   UNL     1      46.271   3.745   7.583  0.00  0.00    +0.000 A 
ATOM     13  C   UNL     1      46.226   2.357   7.667  0.00  0.00    +0.000 A 
ATOM     14 CL   UNL     1      46.962   1.382   6.464  0.00  0.00    +0.000 Cl
ATOM     15  C   UNL     1      45.581   1.785   8.751  0.00  0.00    +0.000 A 
ATOM     16  N   UNL     1      45.000   2.499   9.741  0.00  0.00    +0.000 NA
ENDBRANCH   9  10
ENDBRANCH   6   9
ENDBRANCH   2   3
BRANCH   2  17
ATOM     17  N   UNL     1      48.566   6.822  15.030  0.00  0.00    +0.000 N 
ATOM     18  C   UNL     1      48.742   7.287  16.304  0.00  0.00    +0.000 C 
ATOM     19  O   UNL     1      48.562   8.469  16.592  0.00  0.00    +0.000 OA
ATOM     20  H   UNL     1      48.699   5.839  14.824  0.00  0.00    +0.000 HD
BRANCH  18  21
ATOM     21  C   UNL     1      49.161   6.307  17.324  0.00  0.00    +0.000 A 
ATOM     22  C   UNL     1      48.216   5.798  18.207  0.00  0.00    +0.000 A 
ATOM     23  S   UNL     1      48.855   4.721  19.362  0.00  0.00    +0.000 S 
ATOM     24  C   UNL     1      50.424   4.890  18.730  0.00  0.00    +0.000 A 
ATOM     25  N   UNL     1      51.475   4.243  19.304  0.00  0.00    +0.000 NA
ATOM     26  C   UNL     1      52.612   4.458  18.733  0.00  0.00    +0.000 A 
ATOM     27  N   UNL     1      52.790   5.249  17.629  0.00  0.00    +0.000 N 
ATOM     28  C   UNL     1      51.756   5.903  17.004  0.00  0.00    +0.000 A 
ATOM     29  O   UNL     1      51.956   6.570  15.994  0.00  0.00    +0.000 OA
ATOM     30  C   UNL     1      50.457   5.730  17.630  0.00  0.00    +0.000 A 
ATOM     31  H   UNL     1      53.703   5.360  17.212  0.00  0.00    +0.000 HD
ENDBRANCH  18  21
ENDBRANCH   2  17
TORSDOF 5
ENDMDL
MODEL 7
REMARK VINA RESULT:    -6.592      3.919      8.011
REMARK INTER + INTRA:          -9.762
REMARK INTER:                  -8.710
REMARK INTRA:                  -1.052
REMARK UNBOUND:                -1.243
REMARK  Name = 
REMARK  6 active torsions:
REMARK  status: ('A' for Active; 'I' for Inactive)
REMARK    1  A    between atoms: C_1  and  C_2
REMARK    2  A    between atoms: C_2  and  N_3
REMARK    3  A    between atoms: C_2  and  C_16
REMARK    4  A    between atoms: C_4  and  C_6
REMARK    5  A    between atoms: C_19  and  O_20
REMARK    6  A    between atoms: O_20  and  C_21
REMARK                            x       y       z     vdW  Elec       q    Type
REMARK                         _______ _______ _______ _____ _____    ______ ____
ROOT
ATOM      1  C   UNL     1      48.909   9.601  15.238  0.00  0.00    +0.000 C 
ATOM      2  C   UNL     1      49.079   8.174  14.705  0.00  0.00    +0.000 C 
ENDROOT
BRANCH   2   3
ATOM      3  C   UNL     1      49.484   7.181  15.782  0.00  0.00    +0.000 A 
ATOM      4  C   UNL     1      50.850   6.929  15.995  0.00  0.00    +0.000 A 
ATOM      5  C   UNL     1      51.260   6.007  16.957  0.00  0.00    +0.000 A 
ATOM      6  C   UNL     1      50.317   5.348  17.747  0.00  0.00    +0.000 A 
ATOM      7  C   UNL     1      48.958   5.547  17.507  0.00  0.00    +0.000 A 
ATOM      8  C   UNL     1      48.544   6.450  16.525  0.00  0.00    +0.000 A 
BRANCH   6   9
ATOM      9  O   UNL     1      50.631   4.423  18.718  0.00  0.00    +0.000 OA
BRANCH   9  10
ATOM     10  C   UNL     1      51.467   3.366  18.378  0.00  0.00    +0.000 A 
ATOM     11  C   UNL     1      50.889   2.344  17.637  0.00  0.00    +0.000 A 
ATOM     12  C   UNL     1      51.694   1.277  17.242  0.00  0.00    +0.000 A 
ATOM     13  C   UNL     1      53.036   1.267  17.606  0.00  0.00    +0.000 A 
ATOM     14 CL   UNL     1      54.070  -0.007  17.107  0.00  0.00    +0.000 Cl
ATOM     15  C   UNL     1      53.518   2.314  18.374  0.00  0.00    +0.000 A 
ATOM     16  N   UNL     1      52.758   3.357  18.782  0.00  0.00    +0.000 NA
ENDBRANCH   9  10
ENDBRANCH   6   9
ENDBRANCH   2   3
BRANCH   2  17
ATOM     17  N   UNL     1      47.865   7.698  14.074  0.00  0.00    +0.000 N 
ATOM     18  C   UNL     1      47.840   6.736  13.102  0.00  0.00    +0.000 C 
ATOM     19  O   UNL     1      48.870   6.204  12.692  0.00  0.00    +0.000 OA
ATOM     20  H   UNL     1      46.999   8.105  14.410  0.00  0.00    +0.000 HD
BRANCH  18  21
ATOM     21  C   UNL     1      46.520   6.364  12.560  0.00  0.00    +0.000 A 
ATOM     22  C   UNL     1      45.726   7.343  11.974  0.00  0.00    +0.000 A 
ATOM     23  S   UNL     1      44.208   6.778  11.443  0.00  0.00    +0.000 S 
ATOM     24  C   UNL     1      44.549   5.200  11.975  0.00  0.00    +0.000 A 
ATOM     25  N   UNL     1      43.622   4.211  11.849  0.00  0.00    +0.000 NA
ATOM     26  C   UNL     1      44.003   3.061  12.295  0.00  0.00    +0.000 A 
ATOM     27  N   UNL     1      45.233   2.807  12.841  0.00  0.00    +0.000 N 
ATOM     28  C   UNL     1      46.206   3.769  12.968  0.00  0.00    +0.000 A 
ATOM     29  O   UNL     1      47.308   3.487  13.428  0.00  0.00    +0.000 OA
ATOM     30  C   UNL     1      45.818   5.094  12.520  0.00  0.00    +0.000 A 
ATOM     31  H   UNL     1      45.481   1.880  13.152  0.00  0.00    +0.000 HD
ENDBRANCH  18  21
ENDBRANCH   2  17
TORSDOF 5
ENDMDL
MODEL 8
REMARK VINA RESULT:    -6.545      4.343      5.937
REMARK INTER + INTRA:          -9.702
REMARK INTER:                  -8.875
REMARK INTRA:                  -0.826
REMARK UNBOUND:                -1.243
REMARK  Name = 
REMARK  6 active torsions:
REMARK  status: ('A' for Active; 'I' for Inactive)
REMARK    1  A    between atoms: C_1  and  C_2
REMARK    2  A    between atoms: C_2  and  N_3
REMARK    3  A    between atoms: C_2  and  C_16
REMARK    4  A    between atoms: C_4  and  C_6
REMARK    5  A    between atoms: C_19  and  O_20
REMARK    6  A    between atoms: O_20  and  C_21
REMARK                            x       y       z     vdW  Elec       q    Type
REMARK                         _______ _______ _______ _____ _____    ______ ____
ROOT
ATOM      1  C   UNL     1      44.431   4.775  13.209  0.00  0.00    +0.000 C 
ATOM      2  C   UNL     1      45.596   5.707  12.859  0.00  0.00    +0.000 C 
ENDROOT
BRANCH   2   3
ATOM      3  C   UNL     1      45.141   7.041  12.292  0.00  0.00    +0.000 A 
ATOM      4  C   UNL     1      45.729   8.222  12.777  0.00  0.00    +0.000 A 
ATOM      5  C   UNL     1      45.320   9.467  12.300  0.00  0.00    +0.000 A 
ATOM      6  C   UNL     1      44.346   9.554  11.305  0.00  0.00    +0.000 A 
ATOM      7  C   UNL     1      43.714   8.394  10.857  0.00  0.00    +0.000 A 
ATOM      8  C   UNL     1      44.103   7.148  11.354  0.00  0.00    +0.000 A 
BRANCH   6   9
ATOM      9  O   UNL     1      43.882  10.738  10.778  0.00  0.00    +0.000 OA
BRANCH   9  10
ATOM     10  C   UNL     1      42.549  11.073  10.976  0.00  0.00    +0.000 A 
ATOM     11  C   UNL     1      41.751  11.107   9.840  0.00  0.00    +0.000 A 
ATOM     12  C   UNL     1      40.398  11.405   9.990  0.00  0.00    +0.000 A 
ATOM     13  C   UNL     1      39.896  11.665  11.261  0.00  0.00    +0.000 A 
ATOM     14 CL   UNL     1      38.230  11.996  11.494  0.00  0.00    +0.000 Cl
ATOM     15  C   UNL     1      40.774  11.641  12.332  0.00  0.00    +0.000 A 
ATOM     16  N   UNL     1      42.093  11.367  12.216  0.00  0.00    +0.000 NA
ENDBRANCH   9  10
ENDBRANCH   6   9
ENDBRANCH   2   3
BRANCH   2  17
ATOM     17  N   UNL     1      46.435   5.959  14.012  0.00  0.00    +0.000 N 
ATOM     18  C   UNL     1      47.331   5.055  14.513  0.00  0.00    +0.000 C 
ATOM     19  O   UNL     1      47.482   3.946  14.005  0.00  0.00    +0.000 OA
ATOM     20  H   UNL     1      46.346   6.876  14.437  0.00  0.00    +0.000 HD
BRANCH  18  21
ATOM     21  C   UNL     1      48.110   5.467  15.697  0.00  0.00    +0.000 A 
ATOM     22  C   UNL     1      48.965   6.558  15.601  0.00  0.00    +0.000 A 
ATOM     23  S   UNL     1      49.838   6.882  17.028  0.00  0.00    +0.000 S 
ATOM     24  C   UNL     1      49.109   5.575  17.835  0.00  0.00    +0.000 A 
ATOM     25  N   UNL     1      49.456   5.271  19.115  0.00  0.00    +0.000 NA
ATOM     26  C   UNL     1      48.832   4.255  19.611  0.00  0.00    +0.000 A 
ATOM     27  N   UNL     1      47.882   3.526  18.947  0.00  0.00    +0.000 N 
ATOM     28  C   UNL     1      47.486   3.809  17.662  0.00  0.00    +0.000 A 
ATOM     29  O   UNL     1      46.603   3.153  17.120  0.00  0.00    +0.000 OA
ATOM     30  C   UNL     1      48.184   4.919  17.038  0.00  0.00    +0.000 A 
ATOM     31  H   UNL     1      47.413   2.754  19.396  0.00  0.00    +0.000 HD
ENDBRANCH  18  21
ENDBRANCH   2  17
TORSDOF 5
ENDMDL
MODEL 9
REMARK VINA RESULT:    -6.232      5.273      9.903
REMARK INTER + INTRA:          -9.296
REMARK INTER:                  -9.238
REMARK INTRA:                  -0.058
REMARK UNBOUND:                -1.243
REMARK  Name = 
REMARK  6 active torsions:
REMARK  status: ('A' for Active; 'I' for Inactive)
REMARK    1  A    between atoms: C_1  and  C_2
REMARK    2  A    between atoms: C_2  and  N_3
REMARK    3  A    between atoms: C_2  and  C_16
REMARK    4  A    between atoms: C_4  and  C_6
REMARK    5  A    between atoms: C_19  and  O_20
REMARK    6  A    between atoms: O_20  and  C_21
REMARK                            x       y       z     vdW  Elec       q    Type
REMARK                         _______ _______ _______ _____ _____    ______ ____
ROOT
ATOM      1  C   UNL     1      48.608   2.690  16.389  0.00  0.00    +0.000 C 
ATOM      2  C   UNL     1      47.410   3.515  16.872  0.00  0.00    +0.000 C 
ENDROOT
BRANCH   2   3
ATOM      3  C   UNL     1      47.709   4.320  18.125  0.00  0.00    +0.000 A 
ATOM      4  C   UNL     1      46.846   5.371  18.480  0.00  0.00    +0.000 A 
ATOM      5  C   UNL     1      47.101   6.148  19.609  0.00  0.00    +0.000 A 
ATOM      6  C   UNL     1      48.198   5.867  20.424  0.00  0.00    +0.000 A 
ATOM      7  C   UNL     1      49.093   4.863  20.053  0.00  0.00    +0.000 A 
ATOM      8  C   UNL     1      48.854   4.102  18.907  0.00  0.00    +0.000 A 
BRANCH   6   9
ATOM      9  O   UNL     1      48.525   6.581  21.555  0.00  0.00    +0.000 OA
BRANCH   9  10
ATOM     10  C   UNL     1      48.238   7.940  21.585  0.00  0.00    +0.000 A 
ATOM     11  C   UNL     1      47.046   8.300  22.198  0.00  0.00    +0.000 A 
ATOM     12  C   UNL     1      46.728   9.655  22.284  0.00  0.00    +0.000 A 
ATOM     13  C   UNL     1      47.604  10.593  21.750  0.00  0.00    +0.000 A 
ATOM     14 CL   UNL     1      47.270  12.271  21.870  0.00  0.00    +0.000 Cl
ATOM     15  C   UNL     1      48.755  10.139  21.127  0.00  0.00    +0.000 A 
ATOM     16  N   UNL     1      49.084   8.832  21.018  0.00  0.00    +0.000 NA
ENDBRANCH   9  10
ENDBRANCH   6   9
ENDBRANCH   2   3
BRANCH   2  17
ATOM     17  N   UNL     1      46.944   4.421  15.843  0.00  0.00    +0.000 N 
ATOM     18  C   UNL     1      46.939   4.119  14.509  0.00  0.00    +0.000 C 
ATOM     19  O   UNL     1      47.341   3.036  14.090  0.00  0.00    +0.000 OA
ATOM     20  H   UNL     1      46.586   5.314  16.164  0.00  0.00    +0.000 HD
BRANCH  18  21
ATOM     21  C   UNL     1      46.433   5.155  13.588  0.00  0.00    +0.000 A 
ATOM     22  C   UNL     1      47.208   6.281  13.341  0.00  0.00    +0.000 A 
ATOM     23  S   UNL     1      46.473   7.414  12.303  0.00  0.00    +0.000 S 
ATOM     24  C   UNL     1      45.085   6.446  12.140  0.00  0.00    +0.000 A 
ATOM     25  N   UNL     1      44.029   6.869  11.393  0.00  0.00    +0.000 NA
ATOM     26  C   UNL     1      43.037   6.043  11.354  0.00  0.00    +0.000 A 
ATOM     27  N   UNL     1      43.013   4.826  11.981  0.00  0.00    +0.000 N 
ATOM     28  C   UNL     1      44.064   4.350  12.727  0.00  0.00    +0.000 A 
ATOM     29  O   UNL     1      44.014   3.237  13.240  0.00  0.00    +0.000 OA
ATOM     30  C   UNL     1      45.193   5.256  12.841  0.00  0.00    +0.000 A 
ATOM     31  H   UNL     1      42.216   4.214  11.895  0.00  0.00    +0.000 HD
ENDBRANCH  18  21
ENDBRANCH   2  17
TORSDOF 5
ENDMDL
