MODEL 1
REMARK VINA RESULT:    -7.550      0.000      0.000
REMARK INTER + INTRA:          -9.992
REMARK INTER:                  -8.874
REMARK INTRA:                  -1.117
REMARK UNBOUND:                -1.117
REMARK  Name = 
REMARK  4 active torsions:
REMARK  status: ('A' for Active; 'I' for Inactive)
REMARK    1  A    between atoms: C_1  and  C_2
REMARK    2  A    between atoms: N_6  and  C_7
REMARK    3  A    between atoms: C_7  and  C_8
REMARK    4  A    between atoms: C_13  and  N_14
REMARK                            x       y       z     vdW  Elec       q    Type
REMARK                         _______ _______ _______ _____ _____    ______ ____
ROOT
ATOM      1  C   UNL     1      44.871   5.522  12.424  0.00  0.00    +0.000 A 
ATOM      2  C   UNL     1      45.328   4.537  13.309  0.00  0.00    +0.000 A 
ATOM      3  C   UNL     1      46.583   4.647  13.896  0.00  0.00    +0.000 A 
ATOM      4  C   UNL     1      47.375   5.762  13.633  0.00  0.00    +0.000 A 
ATOM      5  F   UNL     1      48.622   5.773  14.125  0.00  0.00    +0.000 F 
ATOM      6  C   UNL     1      46.898   6.844  12.876  0.00  0.00    +0.000 A 
ATOM      7  C   UNL     1      45.615   6.709  12.321  0.00  0.00    +0.000 A 
ENDROOT
BRANCH   6   8
ATOM      8  N   UNL     1      47.626   7.976  12.545  0.00  0.00    +0.000 N 
ATOM      9  C   UNL     1      48.741   7.913  11.589  0.00  0.00    +0.000 C 
ATOM     10  C   UNL     1      50.101   8.025  12.285  0.00  0.00    +0.000 C 
ATOM     11  O   UNL     1      50.159   9.161  13.166  0.00  0.00    +0.000 OA
ATOM     12  C   UNL     1      49.146   9.046  14.178  0.00  0.00    +0.000 C 
ATOM     13  C   UNL     1      47.738   9.035  13.562  0.00  0.00    +0.000 C 
ENDBRANCH   6   8
BRANCH   1  14
ATOM     14  C   UNL     1      43.744   5.209  11.453  0.00  0.00    +0.000 C 
ATOM     15  C   UNL     1      42.291   5.423  11.887  0.00  0.00    +0.000 C 
ATOM     16  C   UNL     1      42.959   6.442  11.037  0.00  0.00    +0.000 C 
BRANCH  14  22
ATOM     17  C   UNL     1      47.034   2.014   6.476  0.00  0.00    +0.000 C 
ATOM     18  C   UNL     1      46.331   2.646   7.632  0.00  0.00    +0.000 A 
ATOM     19  C   UNL     1      46.162   4.025   7.758  0.00  0.00    +0.000 A 
ATOM     20  C   UNL     1      45.399   4.533   8.824  0.00  0.00    +0.000 A 
ATOM     21  C   UNL     1      44.831   3.652   9.720  0.00  0.00    +0.000 A 
ATOM     22  N   UNL     1      43.915   3.972  10.708  0.00  0.00    +0.000 N 
ATOM     23  N   UNL     1      45.039   2.316   9.639  0.00  0.00    +0.000 NA
ATOM     24  C   UNL     1      45.776   1.846   8.615  0.00  0.00    +0.000 A 
ATOM     25  H   UNL     1      43.736   3.110  11.210  0.00  0.00    +0.000 HD
ENDBRANCH  14  22
ENDBRANCH   1  14
TORSDOF 3
ENDMDL
MODEL 2
REMARK VINA RESULT:    -7.300      2.677      3.662
REMARK INTER + INTRA:          -9.697
REMARK INTER:                  -8.964
REMARK INTRA:                  -0.733
REMARK UNBOUND:                -1.117
REMARK  Name = 
REMARK  4 active torsions:
REMARK  status: ('A' for Active; 'I' for Inactive)
REMARK    1  A    between atoms: C_1  and  C_2
REMARK    2  A    between atoms: N_6  and  C_7
REMARK    3  A    between atoms: C_7  and  C_8
REMARK    4  A    between atoms: C_13  and  N_14
REMARK                            x       y       z     vdW  Elec       q    Type
REMARK                         _______ _______ _______ _____ _____    ______ ____
ROOT
ATOM      1  C   UNL     1      45.838   4.845  12.926  0.00  0.00    +0.000 A 
ATOM      2  C   UNL     1      46.703   5.881  12.547  0.00  0.00    +0.000 A 
ATOM      3  C   UNL     1      47.706   6.308  13.407  0.00  0.00    +0.000 A 
ATOM      4  C   UNL     1      47.878   5.678  14.638  0.00  0.00    +0.000 A 
ATOM      5  F   UNL     1      48.779   6.197  15.485  0.00  0.00    +0.000 F 
ATOM      6  C   UNL     1      47.137   4.541  14.995  0.00  0.00    +0.000 A 
ATOM      7  C   UNL     1      46.150   4.120  14.088  0.00  0.00    +0.000 A 
ENDROOT
BRANCH   6   8
ATOM      8  N   UNL     1      47.225   3.871  16.205  0.00  0.00    +0.000 N 
ATOM      9  C   UNL     1      46.973   4.561  17.478  0.00  0.00    +0.000 C 
ATOM     10  C   UNL     1      48.266   4.818  18.259  0.00  0.00    +0.000 C 
ATOM     11  O   UNL     1      49.053   3.622  18.396  0.00  0.00    +0.000 OA
ATOM     12  C   UNL     1      49.406   3.118  17.098  0.00  0.00    +0.000 C 
ATOM     13  C   UNL     1      48.158   2.734  16.288  0.00  0.00    +0.000 C 
ENDBRANCH   6   8
BRANCH   1  14
ATOM     14  C   UNL     1      44.500   4.676  12.225  0.00  0.00    +0.000 C 
ATOM     15  C   UNL     1      43.208   4.688  13.047  0.00  0.00    +0.000 C 
ATOM     16  C   UNL     1      43.622   5.913  12.314  0.00  0.00    +0.000 C 
BRANCH  14  22
ATOM     17  C   UNL     1      46.574   2.805   6.060  0.00  0.00    +0.000 C 
ATOM     18  C   UNL     1      46.150   3.135   7.453  0.00  0.00    +0.000 A 
ATOM     19  C   UNL     1      46.037   4.443   7.926  0.00  0.00    +0.000 A 
ATOM     20  C   UNL     1      45.533   4.670   9.218  0.00  0.00    +0.000 A 
ATOM     21  C   UNL     1      45.157   3.590   9.989  0.00  0.00    +0.000 A 
ATOM     22  N   UNL     1      44.483   3.647  11.198  0.00  0.00    +0.000 N 
ATOM     23  N   UNL     1      45.318   2.315   9.561  0.00  0.00    +0.000 NA
ATOM     24  C   UNL     1      45.807   2.114   8.323  0.00  0.00    +0.000 A 
ATOM     25  H   UNL     1      44.401   2.687  11.515  0.00  0.00    +0.000 HD
ENDBRANCH  14  22
ENDBRANCH   1  14
TORSDOF 3
ENDMDL
MODEL 3
REMARK VINA RESULT:    -6.246      3.288      7.380
REMARK INTER + INTRA:          -8.459
REMARK INTER:                  -7.554
REMARK INTRA:                  -0.905
REMARK UNBOUND:                -1.117
REMARK  Name = 
REMARK  4 active torsions:
REMARK  status: ('A' for Active; 'I' for Inactive)
REMARK    1  A    between atoms: C_1  and  C_2
REMARK    2  A    between atoms: N_6  and  C_7
REMARK    3  A    between atoms: C_7  and  C_8
REMARK    4  A    between atoms: C_13  and  N_14
REMARK                            x       y       z     vdW  Elec       q    Type
REMARK                         _______ _______ _______ _____ _____    ______ ____
ROOT
ATOM      1  C   UNL     1      47.042   7.979  12.536  0.00  0.00    +0.000 A 
ATOM      2  C   UNL     1      46.476   9.244  12.328  0.00  0.00    +0.000 A 
ATOM      3  C   UNL     1      45.198   9.363  11.796  0.00  0.00    +0.000 A 
ATOM      4  C   UNL     1      44.461   8.217  11.504  0.00  0.00    +0.000 A 
ATOM      5  F   UNL     1      43.281   8.375  10.884  0.00  0.00    +0.000 F 
ATOM      6  C   UNL     1      44.926   6.935  11.836  0.00  0.00    +0.000 A 
ATOM      7  C   UNL     1      46.210   6.856  12.398  0.00  0.00    +0.000 A 
ENDROOT
BRANCH   6   8
ATOM      8  N   UNL     1      44.270   5.746  11.558  0.00  0.00    +0.000 N 
ATOM      9  C   UNL     1      43.017   5.389  12.237  0.00  0.00    +0.000 C 
ATOM     10  C   UNL     1      43.223   4.284  13.279  0.00  0.00    +0.000 C 
ATOM     11  O   UNL     1      43.924   3.155  12.729  0.00  0.00    +0.000 OA
ATOM     12  C   UNL     1      45.215   3.567  12.251  0.00  0.00    +0.000 C 
ATOM     13  C   UNL     1      45.090   4.602  11.123  0.00  0.00    +0.000 C 
ENDBRANCH   6   8
BRANCH   1  14
ATOM     14  C   UNL     1      48.548   7.833  12.679  0.00  0.00    +0.000 C 
ATOM     15  C   UNL     1      49.419   7.715  11.425  0.00  0.00    +0.000 C 
ATOM     16  C   UNL     1      49.316   9.022  12.125  0.00  0.00    +0.000 C 
BRANCH  14  22
ATOM     17  C   UNL     1      48.958   6.636  19.328  0.00  0.00    +0.000 C 
ATOM     18  C   UNL     1      48.827   6.815  17.851  0.00  0.00    +0.000 A 
ATOM     19  C   UNL     1      48.726   8.065  17.241  0.00  0.00    +0.000 A 
ATOM     20  C   UNL     1      48.708   8.151  15.838  0.00  0.00    +0.000 A 
ATOM     21  C   UNL     1      48.794   6.992  15.096  0.00  0.00    +0.000 A 
ATOM     22  N   UNL     1      48.969   6.914  13.724  0.00  0.00    +0.000 N 
ATOM     23  N   UNL     1      48.832   5.770  15.679  0.00  0.00    +0.000 NA
ATOM     24  C   UNL     1      48.844   5.705  17.023  0.00  0.00    +0.000 A 
ATOM     25  H   UNL     1      48.948   5.926  13.498  0.00  0.00    +0.000 HD
ENDBRANCH  14  22
ENDBRANCH   1  14
TORSDOF 3
ENDMDL
MODEL 4
REMARK VINA RESULT:    -5.907      3.694      6.924
REMARK INTER + INTRA:          -8.060
REMARK INTER:                  -7.629
REMARK INTRA:                  -0.431
REMARK UNBOUND:                -1.117
REMARK  Name = 
REMARK  4 active torsions:
REMARK  status: ('A' for Active; 'I' for Inactive)
REMARK    1  A    between atoms: C_1  and  C_2
REMARK    2  A    between atoms: N_6  and  C_7
REMARK    3  A    between atoms: C_7  and  C_8
REMARK    4  A    between atoms: C_13  and  N_14
REMARK                            x       y       z     vdW  Elec       q    Type
REMARK                         _______ _______ _______ _____ _____    ______ ____
ROOT
ATOM      1  C   UNL     1      46.981   8.054  12.193  0.00  0.00    +0.000 A 
ATOM      2  C   UNL     1      47.923   7.317  12.923  0.00  0.00    +0.000 A 
ATOM      3  C   UNL     1      47.691   5.980  13.222  0.00  0.00    +0.000 A 
ATOM      4  C   UNL     1      46.532   5.359  12.759  0.00  0.00    +0.000 A 
ATOM      5  F   UNL     1      46.291   4.104  13.167  0.00  0.00    +0.000 F 
ATOM      6  C   UNL     1      45.637   6.013  11.898  0.00  0.00    +0.000 A 
ATOM      7  C   UNL     1      45.919   7.355  11.596  0.00  0.00    +0.000 A 
ENDROOT
BRANCH   6   8
ATOM      8  N   UNL     1      44.453   5.480  11.415  0.00  0.00    +0.000 N 
ATOM      9  C   UNL     1      43.353   5.119  12.321  0.00  0.00    +0.000 C 
ATOM     10  C   UNL     1      43.219   3.602  12.487  0.00  0.00    +0.000 C 
ATOM     11  O   UNL     1      43.166   2.929  11.217  0.00  0.00    +0.000 OA
ATOM     12  C   UNL     1      44.365   3.194  10.473  0.00  0.00    +0.000 C 
ATOM     13  C   UNL     1      44.517   4.693  10.172  0.00  0.00    +0.000 C 
ENDBRANCH   6   8
BRANCH   1  14
ATOM     14  C   UNL     1      46.996   9.573  12.247  0.00  0.00    +0.000 C 
ATOM     15  C   UNL     1      48.100  10.292  13.028  0.00  0.00    +0.000 C 
ATOM     16  C   UNL     1      48.202  10.181  11.549  0.00  0.00    +0.000 C 
BRANCH  14  22
ATOM     17  C   UNL     1      41.650  12.617   9.425  0.00  0.00    +0.000 C 
ATOM     18  C   UNL     1      42.769  11.885  10.090  0.00  0.00    +0.000 A 
ATOM     19  C   UNL     1      44.060  11.827   9.564  0.00  0.00    +0.000 A 
ATOM     20  C   UNL     1      45.080  11.203  10.302  0.00  0.00    +0.000 A 
ATOM     21  C   UNL     1      44.780  10.665  11.536  0.00  0.00    +0.000 A 
ATOM     22  N   UNL     1      45.693  10.182  12.459  0.00  0.00    +0.000 N 
ATOM     23  N   UNL     1      43.518  10.664  12.028  0.00  0.00    +0.000 NA
ATOM     24  C   UNL     1      42.551  11.261  11.306  0.00  0.00    +0.000 A 
ATOM     25  H   UNL     1      45.143   9.824  13.232  0.00  0.00    +0.000 HD
ENDBRANCH  14  22
ENDBRANCH   1  14
TORSDOF 3
ENDMDL
MODEL 5
REMARK VINA RESULT:    -5.848      2.827      6.676
REMARK INTER + INTRA:          -7.991
REMARK INTER:                  -7.678
REMARK INTRA:                  -0.313
REMARK UNBOUND:                -1.117
REMARK  Name = 
REMARK  4 active torsions:
REMARK  status: ('A' for Active; 'I' for Inactive)
REMARK    1  A    between atoms: C_1  and  C_2
REMARK    2  A    between atoms: N_6  and  C_7
REMARK    3  A    between atoms: C_7  and  C_8
REMARK    4  A    between atoms: C_13  and  N_14
REMARK                            x       y       z     vdW  Elec       q    Type
REMARK                         _______ _______ _______ _____ _____    ______ ____
ROOT
ATOM      1  C   UNL     1      45.618   5.785  11.963  0.00  0.00    +0.000 A 
ATOM      2  C   UNL     1      45.042   5.250  13.123  0.00  0.00    +0.000 A 
ATOM      3  C   UNL     1      44.237   4.120  13.051  0.00  0.00    +0.000 A 
ATOM      4  C   UNL     1      44.032   3.494  11.824  0.00  0.00    +0.000 A 
ATOM      5  F   UNL     1      43.157   2.478  11.779  0.00  0.00    +0.000 F 
ATOM      6  C   UNL     1      44.709   3.903  10.664  0.00  0.00    +0.000 A 
ATOM      7  C   UNL     1      45.535   5.032  10.781  0.00  0.00    +0.000 A 
ENDROOT
BRANCH   6   8
ATOM      8  N   UNL     1      44.544   3.354   9.402  0.00  0.00    +0.000 N 
ATOM      9  C   UNL     1      44.683   1.909   9.175  0.00  0.00    +0.000 C 
ATOM     10  C   UNL     1      45.989   1.564   8.450  0.00  0.00    +0.000 C 
ATOM     11  O   UNL     1      46.164   2.356   7.262  0.00  0.00    +0.000 OA
ATOM     12  C   UNL     1      46.196   3.750   7.604  0.00  0.00    +0.000 C 
ATOM     13  C   UNL     1      44.873   4.200   8.243  0.00  0.00    +0.000 C 
ENDBRANCH   6   8
BRANCH   1  14
ATOM     14  C   UNL     1      46.105   7.225  11.950  0.00  0.00    +0.000 C 
ATOM     15  C   UNL     1      45.146   8.345  11.532  0.00  0.00    +0.000 C 
ATOM     16  C   UNL     1      45.402   8.100  12.975  0.00  0.00    +0.000 C 
BRANCH  14  22
ATOM     17  C   UNL     1      52.343   9.682  12.873  0.00  0.00    +0.000 C 
ATOM     18  C   UNL     1      51.006   9.056  12.645  0.00  0.00    +0.000 A 
ATOM     19  C   UNL     1      49.848   9.478  13.297  0.00  0.00    +0.000 A 
ATOM     20  C   UNL     1      48.612   8.905  12.951  0.00  0.00    +0.000 A 
ATOM     21  C   UNL     1      48.575   7.938  11.968  0.00  0.00    +0.000 A 
ATOM     22  N   UNL     1      47.434   7.408  11.389  0.00  0.00    +0.000 N 
ATOM     23  N   UNL     1      49.702   7.480  11.372  0.00  0.00    +0.000 NA
ATOM     24  C   UNL     1      50.877   8.036  11.718  0.00  0.00    +0.000 A 
ATOM     25  H   UNL     1      47.756   6.698  10.740  0.00  0.00    +0.000 HD
ENDBRANCH  14  22
ENDBRANCH   1  14
TORSDOF 3
ENDMDL
MODEL 6
REMARK VINA RESULT:    -5.701      2.471      3.829
REMARK INTER + INTRA:          -7.818
REMARK INTER:                  -6.974
REMARK INTRA:                  -0.844
REMARK UNBOUND:                -1.117
REMARK  Name = 
REMARK  4 active torsions:
REMARK  status: ('A' for Active; 'I' for Inactive)
REMARK    1  A    between atoms: C_1  and  C_2
REMARK    2  A    between atoms: N_6  and  C_7
REMARK    3  A    between atoms: C_7  and  C_8
REMARK    4  A    between atoms: C_13  and  N_14
REMARK                            x       y       z     vdW  Elec       q    Type
REMARK                         _______ _______ _______ _____ _____    ______ ____
ROOT
ATOM      1  C   UNL     1      47.679   7.449  12.683  0.00  0.00    +0.000 A 
ATOM      2  C   UNL     1      48.608   7.700  11.665  0.00  0.00    +0.000 A 
ATOM      3  C   UNL     1      49.944   7.922  11.972  0.00  0.00    +0.000 A 
ATOM      4  C   UNL     1      50.370   7.855  13.298  0.00  0.00    +0.000 A 
ATOM      5  F   UNL     1      51.641   8.190  13.563  0.00  0.00    +0.000 F 
ATOM      6  C   UNL     1      49.507   7.457  14.331  0.00  0.00    +0.000 A 
ATOM      7  C   UNL     1      48.170   7.215  13.978  0.00  0.00    +0.000 A 
ENDROOT
BRANCH   6   8
ATOM      8  N   UNL     1      49.840   7.391  15.674  0.00  0.00    +0.000 N 
ATOM      9  C   UNL     1      49.752   6.127  16.420  0.00  0.00    +0.000 C 
ATOM     10  C   UNL     1      48.555   6.107  17.377  0.00  0.00    +0.000 C 
ATOM     11  O   UNL     1      48.521   7.276  18.214  0.00  0.00    +0.000 OA
ATOM     12  C   UNL     1      48.426   8.456  17.402  0.00  0.00    +0.000 C 
ATOM     13  C   UNL     1      49.649   8.605  16.485  0.00  0.00    +0.000 C 
ENDBRANCH   6   8
BRANCH   1  14
ATOM     14  C   UNL     1      46.194   7.651  12.426  0.00  0.00    +0.000 C 
ATOM     15  C   UNL     1      45.454   8.795  13.126  0.00  0.00    +0.000 C 
ATOM     16  C   UNL     1      45.887   8.958  11.714  0.00  0.00    +0.000 C 
BRANCH  14  22
ATOM     17  C   UNL     1      44.466   2.097   8.966  0.00  0.00    +0.000 C 
ATOM     18  C   UNL     1      44.869   3.266   9.803  0.00  0.00    +0.000 A 
ATOM     19  C   UNL     1      45.350   4.459   9.264  0.00  0.00    +0.000 A 
ATOM     20  C   UNL     1      45.611   5.547  10.115  0.00  0.00    +0.000 A 
ATOM     21  C   UNL     1      45.380   5.409  11.468  0.00  0.00    +0.000 A 
ATOM     22  N   UNL     1      45.412   6.425  12.408  0.00  0.00    +0.000 N 
ATOM     23  N   UNL     1      44.969   4.236  12.007  0.00  0.00    +0.000 NA
ATOM     24  C   UNL     1      44.728   3.203  11.179  0.00  0.00    +0.000 A 
ATOM     25  H   UNL     1      45.241   5.981  13.303  0.00  0.00    +0.000 HD
ENDBRANCH  14  22
ENDBRANCH   1  14
TORSDOF 3
ENDMDL
MODEL 7
REMARK VINA RESULT:    -5.628      2.998      4.430
REMARK INTER + INTRA:          -7.732
REMARK INTER:                  -7.256
REMARK INTRA:                  -0.476
REMARK UNBOUND:                -1.117
REMARK  Name = 
REMARK  4 active torsions:
REMARK  status: ('A' for Active; 'I' for Inactive)
REMARK    1  A    between atoms: C_1  and  C_2
REMARK    2  A    between atoms: N_6  and  C_7
REMARK    3  A    between atoms: C_7  and  C_8
REMARK    4  A    between atoms: C_13  and  N_14
REMARK                            x       y       z     vdW  Elec       q    Type
REMARK                         _______ _______ _______ _____ _____    ______ ____
ROOT
ATOM      1  C   UNL     1      47.906   7.141  13.477  0.00  0.00    +0.000 A 
ATOM      2  C   UNL     1      49.058   7.841  13.096  0.00  0.00    +0.000 A 
ATOM      3  C   UNL     1      50.159   7.896  13.942  0.00  0.00    +0.000 A 
ATOM      4  C   UNL     1      50.130   7.219  15.160  0.00  0.00    +0.000 A 
ATOM      5  F   UNL     1      51.164   7.394  15.996  0.00  0.00    +0.000 F 
ATOM      6  C   UNL     1      49.060   6.382  15.514  0.00  0.00    +0.000 A 
ATOM      7  C   UNL     1      47.978   6.330  14.621  0.00  0.00    +0.000 A 
ENDROOT
BRANCH   6   8
ATOM      8  N   UNL     1      48.940   5.696  16.712  0.00  0.00    +0.000 N 
ATOM      9  C   UNL     1      50.124   5.324  17.499  0.00  0.00    +0.000 C 
ATOM     10  C   UNL     1      50.424   3.823  17.411  0.00  0.00    +0.000 C 
ATOM     11  O   UNL     1      49.262   3.028  17.704  0.00  0.00    +0.000 OA
ATOM     12  C   UNL     1      48.215   3.331  16.769  0.00  0.00    +0.000 C 
ATOM     13  C   UNL     1      47.781   4.801  16.871  0.00  0.00    +0.000 C 
ENDBRANCH   6   8
BRANCH   1  14
ATOM     14  C   UNL     1      46.577   7.437  12.800  0.00  0.00    +0.000 C 
ATOM     15  C   UNL     1      45.800   8.701  13.181  0.00  0.00    +0.000 C 
ATOM     16  C   UNL     1      46.615   8.688  11.938  0.00  0.00    +0.000 C 
BRANCH  14  22
ATOM     17  C   UNL     1      44.470   2.418   8.778  0.00  0.00    +0.000 C 
ATOM     18  C   UNL     1      44.952   3.460   9.734  0.00  0.00    +0.000 A 
ATOM     19  C   UNL     1      45.528   4.662   9.322  0.00  0.00    +0.000 A 
ATOM     20  C   UNL     1      45.861   5.633  10.282  0.00  0.00    +0.000 A 
ATOM     21  C   UNL     1      45.605   5.375  11.613  0.00  0.00    +0.000 A 
ATOM     22  N   UNL     1      45.704   6.283  12.653  0.00  0.00    +0.000 N 
ATOM     23  N   UNL     1      45.101   4.188  12.026  0.00  0.00    +0.000 NA
ATOM     24  C   UNL     1      44.792   3.267  11.095  0.00  0.00    +0.000 A 
ATOM     25  H   UNL     1      45.490   5.763  13.497  0.00  0.00    +0.000 HD
ENDBRANCH  14  22
ENDBRANCH   1  14
TORSDOF 3
ENDMDL
MODEL 8
REMARK VINA RESULT:    -5.519      5.569      7.223
REMARK INTER + INTRA:          -7.604
REMARK INTER:                  -7.137
REMARK INTRA:                  -0.468
REMARK UNBOUND:                -1.117
REMARK  Name = 
REMARK  4 active torsions:
REMARK  status: ('A' for Active; 'I' for Inactive)
REMARK    1  A    between atoms: C_1  and  C_2
REMARK    2  A    between atoms: N_6  and  C_7
REMARK    3  A    between atoms: C_7  and  C_8
REMARK    4  A    between atoms: C_13  and  N_14
REMARK                            x       y       z     vdW  Elec       q    Type
REMARK                         _______ _______ _______ _____ _____    ______ ____
ROOT
ATOM      1  C   UNL     1      49.328   4.072  17.293  0.00  0.00    +0.000 A 
ATOM      2  C   UNL     1      48.866   2.785  16.988  0.00  0.00    +0.000 A 
ATOM      3  C   UNL     1      49.748   1.711  16.956  0.00  0.00    +0.000 A 
ATOM      4  C   UNL     1      51.091   1.910  17.266  0.00  0.00    +0.000 A 
ATOM      5  F   UNL     1      51.928   0.873  17.109  0.00  0.00    +0.000 F 
ATOM      6  C   UNL     1      51.568   3.148  17.724  0.00  0.00    +0.000 A 
ATOM      7  C   UNL     1      50.642   4.203  17.770  0.00  0.00    +0.000 A 
ENDROOT
BRANCH   6   8
ATOM      8  N   UNL     1      52.889   3.438  18.028  0.00  0.00    +0.000 N 
ATOM      9  C   UNL     1      53.597   2.729  19.103  0.00  0.00    +0.000 C 
ATOM     10  C   UNL     1      53.791   3.610  20.342  0.00  0.00    +0.000 C 
ATOM     11  O   UNL     1      54.374   4.881  20.006  0.00  0.00    +0.000 OA
ATOM     12  C   UNL     1      53.522   5.582  19.087  0.00  0.00    +0.000 C 
ATOM     13  C   UNL     1      53.363   4.808  17.769  0.00  0.00    +0.000 C 
ENDBRANCH   6   8
BRANCH   1  14
ATOM     14  C   UNL     1      48.505   5.288  16.900  0.00  0.00    +0.000 C 
ATOM     15  C   UNL     1      48.230   6.382  17.936  0.00  0.00    +0.000 C 
ATOM     16  C   UNL     1      49.304   6.581  16.929  0.00  0.00    +0.000 C 
BRANCH  14  22
ATOM     17  C   UNL     1      45.565   5.668  10.816  0.00  0.00    +0.000 C 
ATOM     18  C   UNL     1      46.194   5.491  12.159  0.00  0.00    +0.000 A 
ATOM     19  C   UNL     1      47.215   6.313  12.635  0.00  0.00    +0.000 A 
ATOM     20  C   UNL     1      47.682   6.143  13.950  0.00  0.00    +0.000 A 
ATOM     21  C   UNL     1      47.114   5.166  14.741  0.00  0.00    +0.000 A 
ATOM     22  N   UNL     1      47.330   4.989  16.098  0.00  0.00    +0.000 N 
ATOM     23  N   UNL     1      46.164   4.325  14.268  0.00  0.00    +0.000 NA
ATOM     24  C   UNL     1      45.731   4.498  13.005  0.00  0.00    +0.000 A 
ATOM     25  H   UNL     1      46.799   4.165  16.358  0.00  0.00    +0.000 HD
ENDBRANCH  14  22
ENDBRANCH   1  14
TORSDOF 3
ENDMDL
MODEL 9
REMARK VINA RESULT:    -5.159      3.131      6.980
REMARK INTER + INTRA:          -7.181
REMARK INTER:                  -6.934
REMARK INTRA:                  -0.247
REMARK UNBOUND:                -1.117
REMARK  Name = 
REMARK  4 active torsions:
REMARK  status: ('A' for Active; 'I' for Inactive)
REMARK    1  A    between atoms: C_1  and  C_2
REMARK    2  A    between atoms: N_6  and  C_7
REMARK    3  A    between atoms: C_7  and  C_8
REMARK    4  A    between atoms: C_13  and  N_14
REMARK                            x       y       z     vdW  Elec       q    Type
REMARK                         _______ _______ _______ _____ _____    ______ ____
ROOT
ATOM      1  C   UNL     1      47.785   7.446  13.619  0.00  0.00    +0.000 A 
ATOM      2  C   UNL     1      47.126   8.666  13.413  0.00  0.00    +0.000 A 
ATOM      3  C   UNL     1      45.899   8.700  12.762  0.00  0.00    +0.000 A 
ATOM      4  C   UNL     1      45.304   7.511  12.346  0.00  0.00    +0.000 A 
ATOM      5  F   UNL     1      44.179   7.597  11.619  0.00  0.00    +0.000 F 
ATOM      6  C   UNL     1      45.852   6.259  12.665  0.00  0.00    +0.000 A 
ATOM      7  C   UNL     1      47.079   6.263  13.348  0.00  0.00    +0.000 A 
ENDROOT
BRANCH   6   8
ATOM      8  N   UNL     1      45.340   5.033  12.270  0.00  0.00    +0.000 N 
ATOM      9  C   UNL     1      45.303   4.644  10.853  0.00  0.00    +0.000 C 
ATOM     10  C   UNL     1      43.884   4.698  10.279  0.00  0.00    +0.000 C 
ATOM     11  O   UNL     1      42.948   3.978  11.100  0.00  0.00    +0.000 OA
ATOM     12  C   UNL     1      42.920   4.545  12.420  0.00  0.00    +0.000 C 
ATOM     13  C   UNL     1      44.289   4.431  13.107  0.00  0.00    +0.000 C 
ENDBRANCH   6   8
BRANCH   1  14
ATOM     14  C   UNL     1      49.278   7.427  13.905  0.00  0.00    +0.000 C 
ATOM     15  C   UNL     1      49.855   8.353  14.980  0.00  0.00    +0.000 C 
ATOM     16  C   UNL     1      49.610   6.922  15.300  0.00  0.00    +0.000 C 
BRANCH  14  22
ATOM     17  C   UNL     1      52.336  10.937   8.991  0.00  0.00    +0.000 C 
ATOM     18  C   UNL     1      51.745  10.121  10.094  0.00  0.00    +0.000 A 
ATOM     19  C   UNL     1      50.633  10.528  10.832  0.00  0.00    +0.000 A 
ATOM     20  C   UNL     1      50.078   9.656  11.784  0.00  0.00    +0.000 A 
ATOM     21  C   UNL     1      50.645   8.412  11.963  0.00  0.00    +0.000 A 
ATOM     22  N   UNL     1      50.119   7.378  12.720  0.00  0.00    +0.000 N 
ATOM     23  N   UNL     1      51.759   8.031  11.294  0.00  0.00    +0.000 NA
ATOM     24  C   UNL     1      52.282   8.879  10.390  0.00  0.00    +0.000 A 
ATOM     25  H   UNL     1      50.799   6.627  12.674  0.00  0.00    +0.000 HD
ENDBRANCH  14  22
ENDBRANCH   1  14
TORSDOF 3
ENDMDL
