MODEL 1
REMARK VINA RESULT:    -7.996      0.000      0.000
REMARK INTER + INTRA:         -12.201
REMARK INTER:                 -11.035
REMARK INTRA:                  -1.166
REMARK UNBOUND:                -1.166
REMARK  Name = 
REMARK  8 active torsions:
REMARK  status: ('A' for Active; 'I' for Inactive)
REMARK    1  A    between atoms: C_1  and  C_2
REMARK    2  A    between atoms: C_2  and  C_3
REMARK    3  A    between atoms: C_2  and  C_15
REMARK    4  A    between atoms: C_3  and  O_4
REMARK    5  A    between atoms: O_4  and  C_5
REMARK    6  A    between atoms: C_8  and  C_9
REMARK    7  A    between atoms: C_19  and  C_20
REMARK    8  A    between atoms: C_20  and  N_21
REMARK                            x       y       z     vdW  Elec       q    Type
REMARK                         _______ _______ _______ _____ _____    ______ ____
ROOT
ATOM      1  C   UNL     1      43.968   3.197  11.940  0.00  0.00    +0.000 C 
ENDROOT
BRANCH   1   3
ATOM      2  C   UNL     1      42.552   5.306  11.819  0.00  0.00    +0.000 C 
ATOM      3  C   UNL     1      43.645   4.556  12.591  0.00  0.00    +0.000 C 
BRANCH   3   4
ATOM      4  C   UNL     1      44.884   5.420  12.762  0.00  0.00    +0.000 A 
ATOM      5  C   UNL     1      46.112   4.883  13.177  0.00  0.00    +0.000 A 
ATOM      6  C   UNL     1      47.240   5.696  13.293  0.00  0.00    +0.000 A 
ATOM      7  C   UNL     1      47.161   7.056  12.993  0.00  0.00    +0.000 A 
ATOM      8  C   UNL     1      45.949   7.620  12.577  0.00  0.00    +0.000 A 
ATOM      9  C   UNL     1      44.817   6.793  12.476  0.00  0.00    +0.000 A 
BRANCH   8  10
ATOM     10  C   UNL     1      45.852   9.090  12.255  0.00  0.00    +0.000 C 
BRANCH  10  11
ATOM     11  N   UNL     1      44.598   9.664  12.735  0.00  0.00    +0.000 NA
ATOM     12  H   UNL     1      44.112   8.962  13.291  0.00  0.00    +0.000 HD
ATOM     13  H   UNL     1      43.998   9.871  11.940  0.00  0.00    +0.000 HD
ENDBRANCH  10  11
ENDBRANCH   8  10
ENDBRANCH   3   4
ENDBRANCH   1   3
BRANCH   1  14
ATOM     14  O   UNL     1      43.529   3.219  10.574  0.00  0.00    +0.000 OA
BRANCH  14  15
ATOM     15  C   UNL     1      44.487   3.121   9.602  0.00  0.00    +0.000 A 
ATOM     16  C   UNL     1      44.750   1.812   9.181  0.00  0.00    +0.000 A 
ATOM     17  C   UNL     1      45.714   1.549   8.199  0.00  0.00    +0.000 A 
ATOM     18  C   UNL     1      46.437   2.601   7.624  0.00  0.00    +0.000 A 
ATOM     19  C   UNL     1      46.168   3.910   8.039  0.00  0.00    +0.000 A 
ATOM     20  C   UNL     1      45.204   4.162   9.013  0.00  0.00    +0.000 A 
ATOM     21  F   UNL     1      44.998   5.441   9.359  0.00  0.00    +0.000 F 
BRANCH  18  22
ATOM     22  C   UNL     1      47.485   2.412   6.582  0.00  0.00    +0.000 C 
ATOM     23  N   UNL     1      47.389   3.111   5.412  0.00  0.00    +0.000 N 
ATOM     24  O   UNL     1      48.422   1.640   6.754  0.00  0.00    +0.000 OA
ATOM     25  H   UNL     1      46.646   3.742   5.165  0.00  0.00    +0.000 HD
ATOM     26  H   UNL     1      48.111   2.938   4.725  0.00  0.00    +0.000 HD
ENDBRANCH  18  22
ENDBRANCH  14  15
ENDBRANCH   1  14
TORSDOF 7
ENDMDL
MODEL 2
REMARK VINA RESULT:    -7.784      2.025      2.621
REMARK INTER + INTRA:         -11.908
REMARK INTER:                 -10.891
REMARK INTRA:                  -1.016
REMARK UNBOUND:                -1.166
REMARK  Name = 
REMARK  8 active torsions:
REMARK  status: ('A' for Active; 'I' for Inactive)
REMARK    1  A    between atoms: C_1  and  C_2
REMARK    2  A    between atoms: C_2  and  C_3
REMARK    3  A    between atoms: C_2  and  C_15
REMARK    4  A    between atoms: C_3  and  O_4
REMARK    5  A    between atoms: O_4  and  C_5
REMARK    6  A    between atoms: C_8  and  C_9
REMARK    7  A    between atoms: C_19  and  C_20
REMARK    8  A    between atoms: C_20  and  N_21
REMARK                            x       y       z     vdW  Elec       q    Type
REMARK                         _______ _______ _______ _____ _____    ______ ____
ROOT
ATOM      1  C   UNL     1      43.553   3.668  11.356  0.00  0.00    +0.000 C 
ENDROOT
BRANCH   1   3
ATOM      2  C   UNL     1      42.846   6.112  11.357  0.00  0.00    +0.000 C 
ATOM      3  C   UNL     1      43.622   5.017  12.099  0.00  0.00    +0.000 C 
BRANCH   3   4
ATOM      4  C   UNL     1      45.054   5.451  12.370  0.00  0.00    +0.000 A 
ATOM      5  C   UNL     1      45.738   6.327  11.513  0.00  0.00    +0.000 A 
ATOM      6  C   UNL     1      47.041   6.733  11.806  0.00  0.00    +0.000 A 
ATOM      7  C   UNL     1      47.679   6.274  12.959  0.00  0.00    +0.000 A 
ATOM      8  C   UNL     1      47.022   5.398  13.831  0.00  0.00    +0.000 A 
ATOM      9  C   UNL     1      45.715   4.987  13.519  0.00  0.00    +0.000 A 
BRANCH   8  10
ATOM     10  C   UNL     1      47.705   4.893  15.076  0.00  0.00    +0.000 C 
BRANCH  10  11
ATOM     11  N   UNL     1      47.375   3.495  15.341  0.00  0.00    +0.000 NA
ATOM     12  H   UNL     1      47.503   3.316  16.336  0.00  0.00    +0.000 HD
ATOM     13  H   UNL     1      48.035   2.897  14.851  0.00  0.00    +0.000 HD
ENDBRANCH  10  11
ENDBRANCH   8  10
ENDBRANCH   3   4
ENDBRANCH   1   3
BRANCH   1  14
ATOM     14  O   UNL     1      43.464   3.918   9.947  0.00  0.00    +0.000 OA
BRANCH  14  15
ATOM     15  C   UNL     1      44.474   3.441   9.157  0.00  0.00    +0.000 A 
ATOM     16  C   UNL     1      45.252   4.434   8.551  0.00  0.00    +0.000 A 
ATOM     17  C   UNL     1      46.317   4.102   7.703  0.00  0.00    +0.000 A 
ATOM     18  C   UNL     1      46.617   2.759   7.445  0.00  0.00    +0.000 A 
ATOM     19  C   UNL     1      45.845   1.765   8.058  0.00  0.00    +0.000 A 
ATOM     20  C   UNL     1      44.790   2.106   8.902  0.00  0.00    +0.000 A 
ATOM     21  F   UNL     1      44.095   1.101   9.456  0.00  0.00    +0.000 F 
BRANCH  18  22
ATOM     22  C   UNL     1      47.724   2.314   6.552  0.00  0.00    +0.000 C 
ATOM     23  N   UNL     1      47.945   2.990   5.386  0.00  0.00    +0.000 N 
ATOM     24  O   UNL     1      48.429   1.355   6.842  0.00  0.00    +0.000 OA
ATOM     25  H   UNL     1      47.404   3.768   5.046  0.00  0.00    +0.000 HD
ATOM     26  H   UNL     1      48.694   2.644   4.800  0.00  0.00    +0.000 HD
ENDBRANCH  18  22
ENDBRANCH  14  15
ENDBRANCH   1  14
TORSDOF 7
ENDMDL
MODEL 3
REMARK VINA RESULT:    -7.517      1.431      1.929
REMARK INTER + INTRA:         -11.540
REMARK INTER:                 -10.334
REMARK INTRA:                  -1.206
REMARK UNBOUND:                -1.166
REMARK  Name = 
REMARK  8 active torsions:
REMARK  status: ('A' for Active; 'I' for Inactive)
REMARK    1  A    between atoms: C_1  and  C_2
REMARK    2  A    between atoms: C_2  and  C_3
REMARK    3  A    between atoms: C_2  and  C_15
REMARK    4  A    between atoms: C_3  and  O_4
REMARK    5  A    between atoms: O_4  and  C_5
REMARK    6  A    between atoms: C_8  and  C_9
REMARK    7  A    between atoms: C_19  and  C_20
REMARK    8  A    between atoms: C_20  and  N_21
REMARK                            x       y       z     vdW  Elec       q    Type
REMARK                         _______ _______ _______ _____ _____    ______ ____
ROOT
ATOM      1  C   UNL     1      44.662   3.436  12.102  0.00  0.00    +0.000 C 
ENDROOT
BRANCH   1   3
ATOM      2  C   UNL     1      42.879   5.049  12.932  0.00  0.00    +0.000 C 
ATOM      3  C   UNL     1      44.363   4.667  12.980  0.00  0.00    +0.000 C 
BRANCH   3   4
ATOM      4  C   UNL     1      45.244   5.854  12.624  0.00  0.00    +0.000 A 
ATOM      5  C   UNL     1      44.704   7.105  12.289  0.00  0.00    +0.000 A 
ATOM      6  C   UNL     1      45.539   8.185  11.999  0.00  0.00    +0.000 A 
ATOM      7  C   UNL     1      46.925   8.034  12.041  0.00  0.00    +0.000 A 
ATOM      8  C   UNL     1      47.493   6.797  12.370  0.00  0.00    +0.000 A 
ATOM      9  C   UNL     1      46.641   5.714  12.649  0.00  0.00    +0.000 A 
BRANCH   8  10
ATOM     10  C   UNL     1      48.989   6.622  12.414  0.00  0.00    +0.000 C 
BRANCH  10  11
ATOM     11  N   UNL     1      49.522   6.874  13.750  0.00  0.00    +0.000 NA
ATOM     12  H   UNL     1      49.234   6.112  14.362  0.00  0.00    +0.000 HD
ATOM     13  H   UNL     1      49.102   7.721  14.124  0.00  0.00    +0.000 HD
ENDBRANCH  10  11
ENDBRANCH   8  10
ENDBRANCH   3   4
ENDBRANCH   1   3
BRANCH   1  14
ATOM     14  O   UNL     1      44.079   3.636  10.807  0.00  0.00    +0.000 OA
BRANCH  14  15
ATOM     15  C   UNL     1      44.878   3.427   9.717  0.00  0.00    +0.000 A 
ATOM     16  C   UNL     1      45.031   2.082   9.362  0.00  0.00    +0.000 A 
ATOM     17  C   UNL     1      45.830   1.707   8.274  0.00  0.00    +0.000 A 
ATOM     18  C   UNL     1      46.495   2.682   7.521  0.00  0.00    +0.000 A 
ATOM     19  C   UNL     1      46.335   4.028   7.870  0.00  0.00    +0.000 A 
ATOM     20  C   UNL     1      45.536   4.392   8.952  0.00  0.00    +0.000 A 
ATOM     21  F   UNL     1      45.427   5.700   9.227  0.00  0.00    +0.000 F 
BRANCH  18  22
ATOM     22  C   UNL     1      47.370   2.374   6.355  0.00  0.00    +0.000 C 
ATOM     23  N   UNL     1      47.179   3.054   5.186  0.00  0.00    +0.000 N 
ATOM     24  O   UNL     1      48.247   1.521   6.426  0.00  0.00    +0.000 OA
ATOM     25  H   UNL     1      46.469   3.747   5.019  0.00  0.00    +0.000 HD
ATOM     26  H   UNL     1      47.782   2.800   4.414  0.00  0.00    +0.000 HD
ENDBRANCH  18  22
ENDBRANCH  14  15
ENDBRANCH   1  14
TORSDOF 7
ENDMDL
MODEL 4
REMARK VINA RESULT:    -7.424      1.992      2.334
REMARK INTER + INTRA:         -11.412
REMARK INTER:                 -10.446
REMARK INTRA:                  -0.966
REMARK UNBOUND:                -1.166
REMARK  Name = 
REMARK  8 active torsions:
REMARK  status: ('A' for Active; 'I' for Inactive)
REMARK    1  A    between atoms: C_1  and  C_2
REMARK    2  A    between atoms: C_2  and  C_3
REMARK    3  A    between atoms: C_2  and  C_15
REMARK    4  A    between atoms: C_3  and  O_4
REMARK    5  A    between atoms: O_4  and  C_5
REMARK    6  A    between atoms: C_8  and  C_9
REMARK    7  A    between atoms: C_19  and  C_20
REMARK    8  A    between atoms: C_20  and  N_21
REMARK                            x       y       z     vdW  Elec       q    Type
REMARK                         _______ _______ _______ _____ _____    ______ ____
ROOT
ATOM      1  C   UNL     1      44.198   5.483  10.933  0.00  0.00    +0.000 C 
ENDROOT
BRANCH   1   3
ATOM      2  C   UNL     1      43.463   4.438  13.133  0.00  0.00    +0.000 C 
ATOM      3  C   UNL     1      44.617   4.619  12.139  0.00  0.00    +0.000 C 
BRANCH   3   4
ATOM      4  C   UNL     1      45.855   5.165  12.834  0.00  0.00    +0.000 A 
ATOM      5  C   UNL     1      46.252   4.717  14.103  0.00  0.00    +0.000 A 
ATOM      6  C   UNL     1      47.411   5.213  14.700  0.00  0.00    +0.000 A 
ATOM      7  C   UNL     1      48.194   6.159  14.039  0.00  0.00    +0.000 A 
ATOM      8  C   UNL     1      47.823   6.626  12.772  0.00  0.00    +0.000 A 
ATOM      9  C   UNL     1      46.646   6.128  12.187  0.00  0.00    +0.000 A 
BRANCH   8  10
ATOM     10  C   UNL     1      48.659   7.652  12.052  0.00  0.00    +0.000 C 
BRANCH  10  11
ATOM     11  N   UNL     1      50.053   7.231  11.946  0.00  0.00    +0.000 NA
ATOM     12  H   UNL     1      50.635   8.062  11.838  0.00  0.00    +0.000 HD
ATOM     13  H   UNL     1      50.174   6.681  11.100  0.00  0.00    +0.000 HD
ENDBRANCH  10  11
ENDBRANCH   8  10
ENDBRANCH   3   4
ENDBRANCH   1   3
BRANCH   1  14
ATOM     14  O   UNL     1      43.684   4.626   9.904  0.00  0.00    +0.000 OA
BRANCH  14  15
ATOM     15  C   UNL     1      44.581   3.846   9.227  0.00  0.00    +0.000 A 
ATOM     16  C   UNL     1      45.467   4.560   8.411  0.00  0.00    +0.000 A 
ATOM     17  C   UNL     1      46.437   3.899   7.646  0.00  0.00    +0.000 A 
ATOM     18  C   UNL     1      46.532   2.502   7.685  0.00  0.00    +0.000 A 
ATOM     19  C   UNL     1      45.652   1.789   8.507  0.00  0.00    +0.000 A 
ATOM     20  C   UNL     1      44.693   2.456   9.268  0.00  0.00    +0.000 A 
ATOM     21  F   UNL     1      43.886   1.708  10.034  0.00  0.00    +0.000 F 
BRANCH  18  22
ATOM     22  C   UNL     1      47.525   1.718   6.899  0.00  0.00    +0.000 C 
ATOM     23  N   UNL     1      48.511   2.383   6.228  0.00  0.00    +0.000 N 
ATOM     24  O   UNL     1      47.466   0.495   6.840  0.00  0.00    +0.000 OA
ATOM     25  H   UNL     1      48.625   3.381   6.189  0.00  0.00    +0.000 HD
ATOM     26  H   UNL     1      49.153   1.813   5.691  0.00  0.00    +0.000 HD
ENDBRANCH  18  22
ENDBRANCH  14  15
ENDBRANCH   1  14
TORSDOF 7
ENDMDL
MODEL 5
REMARK VINA RESULT:    -6.700      1.669      2.402
REMARK INTER + INTRA:         -10.412
REMARK INTER:                  -9.668
REMARK INTRA:                  -0.744
REMARK UNBOUND:                -1.166
REMARK  Name = 
REMARK  8 active torsions:
REMARK  status: ('A' for Active; 'I' for Inactive)
REMARK    1  A    between atoms: C_1  and  C_2
REMARK    2  A    between atoms: C_2  and  C_3
REMARK    3  A    between atoms: C_2  and  C_15
REMARK    4  A    between atoms: C_3  and  O_4
REMARK    5  A    between atoms: O_4  and  C_5
REMARK    6  A    between atoms: C_8  and  C_9
REMARK    7  A    between atoms: C_19  and  C_20
REMARK    8  A    between atoms: C_20  and  N_21
REMARK                            x       y       z     vdW  Elec       q    Type
REMARK                         _______ _______ _______ _____ _____    ______ ____
ROOT
ATOM      1  C   UNL     1      44.702   4.384  11.693  0.00  0.00    +0.000 C 
ENDROOT
BRANCH   1   3
ATOM      2  C   UNL     1      42.512   5.678  11.680  0.00  0.00    +0.000 C 
ATOM      3  C   UNL     1      43.901   5.544  12.316  0.00  0.00    +0.000 C 
BRANCH   3   4
ATOM      4  C   UNL     1      44.658   6.861  12.256  0.00  0.00    +0.000 A 
ATOM      5  C   UNL     1      44.228   7.929  11.454  0.00  0.00    +0.000 A 
ATOM      6  C   UNL     1      44.926   9.137  11.445  0.00  0.00    +0.000 A 
ATOM      7  C   UNL     1      46.061   9.300  12.240  0.00  0.00    +0.000 A 
ATOM      8  C   UNL     1      46.515   8.252  13.049  0.00  0.00    +0.000 A 
ATOM      9  C   UNL     1      45.811   7.036  13.039  0.00  0.00    +0.000 A 
BRANCH   8  10
ATOM     10  C   UNL     1      47.744   8.416  13.907  0.00  0.00    +0.000 C 
BRANCH  10  11
ATOM     11  N   UNL     1      47.425   9.036  15.190  0.00  0.00    +0.000 NA
ATOM     12  H   UNL     1      46.423   9.221  15.221  0.00  0.00    +0.000 HD
ATOM     13  H   UNL     1      47.889   9.938  15.251  0.00  0.00    +0.000 HD
ENDBRANCH  10  11
ENDBRANCH   8  10
ENDBRANCH   3   4
ENDBRANCH   1   3
BRANCH   1  14
ATOM     14  O   UNL     1      44.052   3.968  10.483  0.00  0.00    +0.000 OA
BRANCH  14  15
ATOM     15  C   UNL     1      44.850   3.589   9.438  0.00  0.00    +0.000 A 
ATOM     16  C   UNL     1      45.585   4.633   8.865  0.00  0.00    +0.000 A 
ATOM     17  C   UNL     1      46.439   4.404   7.777  0.00  0.00    +0.000 A 
ATOM     18  C   UNL     1      46.565   3.116   7.242  0.00  0.00    +0.000 A 
ATOM     19  C   UNL     1      45.837   2.071   7.821  0.00  0.00    +0.000 A 
ATOM     20  C   UNL     1      44.993   2.308   8.905  0.00  0.00    +0.000 A 
ATOM     21  F   UNL     1      44.329   1.258   9.409  0.00  0.00    +0.000 F 
BRANCH  18  22
ATOM     22  C   UNL     1      47.441   2.784   6.083  0.00  0.00    +0.000 C 
ATOM     23  N   UNL     1      48.724   2.379   6.318  0.00  0.00    +0.000 N 
ATOM     24  O   UNL     1      47.032   2.874   4.931  0.00  0.00    +0.000 OA
ATOM     25  H   UNL     1      49.160   2.303   7.221  0.00  0.00    +0.000 HD
ATOM     26  H   UNL     1      49.290   2.182   5.502  0.00  0.00    +0.000 HD
ENDBRANCH  18  22
ENDBRANCH  14  15
ENDBRANCH   1  14
TORSDOF 7
ENDMDL
MODEL 6
REMARK VINA RESULT:    -6.535      2.346      6.473
REMARK INTER + INTRA:         -10.184
REMARK INTER:                  -9.219
REMARK INTRA:                  -0.965
REMARK UNBOUND:                -1.166
REMARK  Name = 
REMARK  8 active torsions:
REMARK  status: ('A' for Active; 'I' for Inactive)
REMARK    1  A    between atoms: C_1  and  C_2
REMARK    2  A    between atoms: C_2  and  C_3
REMARK    3  A    between atoms: C_2  and  C_15
REMARK    4  A    between atoms: C_3  and  O_4
REMARK    5  A    between atoms: O_4  and  C_5
REMARK    6  A    between atoms: C_8  and  C_9
REMARK    7  A    between atoms: C_19  and  C_20
REMARK    8  A    between atoms: C_20  and  N_21
REMARK                            x       y       z     vdW  Elec       q    Type
REMARK                         _______ _______ _______ _____ _____    ______ ____
ROOT
ATOM      1  C   UNL     1      45.365   3.288  12.529  0.00  0.00    +0.000 C 
ENDROOT
BRANCH   1   3
ATOM      2  C   UNL     1      43.234   2.441  11.429  0.00  0.00    +0.000 C 
ATOM      3  C   UNL     1      44.364   3.476  11.371  0.00  0.00    +0.000 C 
BRANCH   3   4
ATOM      4  C   UNL     1      45.048   3.463  10.014  0.00  0.00    +0.000 A 
ATOM      5  C   UNL     1      45.288   4.643   9.292  0.00  0.00    +0.000 A 
ATOM      6  C   UNL     1      45.947   4.601   8.063  0.00  0.00    +0.000 A 
ATOM      7  C   UNL     1      46.381   3.384   7.537  0.00  0.00    +0.000 A 
ATOM      8  C   UNL     1      46.155   2.191   8.234  0.00  0.00    +0.000 A 
ATOM      9  C   UNL     1      45.478   2.244   9.465  0.00  0.00    +0.000 A 
BRANCH   8  10
ATOM     10  C   UNL     1      46.615   0.870   7.671  0.00  0.00    +0.000 C 
BRANCH  10  11
ATOM     11  N   UNL     1      47.639   1.050   6.646  0.00  0.00    +0.000 NA
ATOM     12  H   UNL     1      48.531   1.228   7.107  0.00  0.00    +0.000 HD
ATOM     13  H   UNL     1      47.424   1.879   6.099  0.00  0.00    +0.000 HD
ENDBRANCH  10  11
ENDBRANCH   8  10
ENDBRANCH   3   4
ENDBRANCH   1   3
BRANCH   1  14
ATOM     14  O   UNL     1      45.201   4.363  13.464  0.00  0.00    +0.000 OA
BRANCH  14  15
ATOM     15  C   UNL     1      45.755   5.571  13.139  0.00  0.00    +0.000 A 
ATOM     16  C   UNL     1      47.106   5.698  13.480  0.00  0.00    +0.000 A 
ATOM     17  C   UNL     1      47.810   6.881  13.222  0.00  0.00    +0.000 A 
ATOM     18  C   UNL     1      47.163   7.966  12.616  0.00  0.00    +0.000 A 
ATOM     19  C   UNL     1      45.814   7.837  12.267  0.00  0.00    +0.000 A 
ATOM     20  C   UNL     1      45.123   6.654  12.525  0.00  0.00    +0.000 A 
ATOM     21  F   UNL     1      43.834   6.601  12.161  0.00  0.00    +0.000 F 
BRANCH  18  22
ATOM     22  C   UNL     1      47.830   9.263  12.313  0.00  0.00    +0.000 C 
ATOM     23  N   UNL     1      47.392  10.395  12.940  0.00  0.00    +0.000 N 
ATOM     24  O   UNL     1      48.753   9.331  11.509  0.00  0.00    +0.000 OA
ATOM     25  H   UNL     1      46.626  10.447  13.589  0.00  0.00    +0.000 HD
ATOM     26  H   UNL     1      47.860  11.257  12.690  0.00  0.00    +0.000 HD
ENDBRANCH  18  22
ENDBRANCH  14  15
ENDBRANCH   1  14
TORSDOF 7
ENDMDL
MODEL 7
REMARK VINA RESULT:    -6.201      4.162      6.552
REMARK INTER + INTRA:          -9.723
REMARK INTER:                  -8.659
REMARK INTRA:                  -1.064
REMARK UNBOUND:                -1.166
REMARK  Name = 
REMARK  8 active torsions:
REMARK  status: ('A' for Active; 'I' for Inactive)
REMARK    1  A    between atoms: C_1  and  C_2
REMARK    2  A    between atoms: C_2  and  C_3
REMARK    3  A    between atoms: C_2  and  C_15
REMARK    4  A    between atoms: C_3  and  O_4
REMARK    5  A    between atoms: O_4  and  C_5
REMARK    6  A    between atoms: C_8  and  C_9
REMARK    7  A    between atoms: C_19  and  C_20
REMARK    8  A    between atoms: C_20  and  N_21
REMARK                            x       y       z     vdW  Elec       q    Type
REMARK                         _______ _______ _______ _____ _____    ______ ____
ROOT
ATOM      1  C   UNL     1      48.927   7.269  13.846  0.00  0.00    +0.000 C 
ENDROOT
BRANCH   1   3
ATOM      2  C   UNL     1      48.756   8.720  15.929  0.00  0.00    +0.000 C 
ATOM      3  C   UNL     1      48.493   7.335  15.324  0.00  0.00    +0.000 C 
BRANCH   3   4
ATOM      4  C   UNL     1      49.137   6.242  16.161  0.00  0.00    +0.000 A 
ATOM      5  C   UNL     1      50.499   6.271  16.499  0.00  0.00    +0.000 A 
ATOM      6  C   UNL     1      51.054   5.270  17.297  0.00  0.00    +0.000 A 
ATOM      7  C   UNL     1      50.259   4.227  17.772  0.00  0.00    +0.000 A 
ATOM      8  C   UNL     1      48.898   4.170  17.450  0.00  0.00    +0.000 A 
ATOM      9  C   UNL     1      48.353   5.178  16.635  0.00  0.00    +0.000 A 
BRANCH   8  10
ATOM     10  C   UNL     1      48.032   3.044  17.954  0.00  0.00    +0.000 C 
BRANCH  10  11
ATOM     11  N   UNL     1      46.656   3.170  17.480  0.00  0.00    +0.000 NA
ATOM     12  H   UNL     1      46.608   2.812  16.527  0.00  0.00    +0.000 HD
ATOM     13  H   UNL     1      46.406   4.154  17.433  0.00  0.00    +0.000 HD
ENDBRANCH  10  11
ENDBRANCH   8  10
ENDBRANCH   3   4
ENDBRANCH   1   3
BRANCH   1  14
ATOM     14  O   UNL     1      48.598   5.975  13.322  0.00  0.00    +0.000 OA
BRANCH  14  15
ATOM     15  C   UNL     1      47.295   5.750  12.970  0.00  0.00    +0.000 A 
ATOM     16  C   UNL     1      46.736   6.745  12.161  0.00  0.00    +0.000 A 
ATOM     17  C   UNL     1      45.406   6.662  11.727  0.00  0.00    +0.000 A 
ATOM     18  C   UNL     1      44.610   5.574  12.105  0.00  0.00    +0.000 A 
ATOM     19  C   UNL     1      45.172   4.574  12.907  0.00  0.00    +0.000 A 
ATOM     20  C   UNL     1      46.497   4.664  13.330  0.00  0.00    +0.000 A 
ATOM     21  F   UNL     1      46.969   3.668  14.095  0.00  0.00    +0.000 F 
BRANCH  18  22
ATOM     22  C   UNL     1      43.186   5.409  11.698  0.00  0.00    +0.000 C 
ATOM     23  N   UNL     1      42.389   6.514  11.618  0.00  0.00    +0.000 N 
ATOM     24  O   UNL     1      42.722   4.303  11.444  0.00  0.00    +0.000 OA
ATOM     25  H   UNL     1      42.667   7.456  11.835  0.00  0.00    +0.000 HD
ATOM     26  H   UNL     1      41.424   6.354  11.356  0.00  0.00    +0.000 HD
ENDBRANCH  18  22
ENDBRANCH  14  15
ENDBRANCH   1  14
TORSDOF 7
ENDMDL
MODEL 8
REMARK VINA RESULT:    -6.018      3.902      7.126
REMARK INTER + INTRA:          -9.471
REMARK INTER:                  -8.278
REMARK INTRA:                  -1.193
REMARK UNBOUND:                -1.166
REMARK  Name = 
REMARK  8 active torsions:
REMARK  status: ('A' for Active; 'I' for Inactive)
REMARK    1  A    between atoms: C_1  and  C_2
REMARK    2  A    between atoms: C_2  and  C_3
REMARK    3  A    between atoms: C_2  and  C_15
REMARK    4  A    between atoms: C_3  and  O_4
REMARK    5  A    between atoms: O_4  and  C_5
REMARK    6  A    between atoms: C_8  and  C_9
REMARK    7  A    between atoms: C_19  and  C_20
REMARK    8  A    between atoms: C_20  and  N_21
REMARK                            x       y       z     vdW  Elec       q    Type
REMARK                         _______ _______ _______ _____ _____    ______ ____
ROOT
ATOM      1  C   UNL     1      46.448   7.577  12.896  0.00  0.00    +0.000 C 
ENDROOT
BRANCH   1   3
ATOM      2  C   UNL     1      44.694   8.672  11.415  0.00  0.00    +0.000 C 
ATOM      3  C   UNL     1      45.633   7.472  11.593  0.00  0.00    +0.000 C 
BRANCH   3   4
ATOM      4  C   UNL     1      44.867   6.161  11.499  0.00  0.00    +0.000 A 
ATOM      5  C   UNL     1      43.903   5.795  12.450  0.00  0.00    +0.000 A 
ATOM      6  C   UNL     1      43.193   4.601  12.318  0.00  0.00    +0.000 A 
ATOM      7  C   UNL     1      43.432   3.756  11.234  0.00  0.00    +0.000 A 
ATOM      8  C   UNL     1      44.389   4.095  10.269  0.00  0.00    +0.000 A 
ATOM      9  C   UNL     1      45.106   5.294  10.420  0.00  0.00    +0.000 A 
BRANCH   8  10
ATOM     10  C   UNL     1      44.658   3.186   9.097  0.00  0.00    +0.000 C 
BRANCH  10  11
ATOM     11  N   UNL     1      44.556   1.779   9.473  0.00  0.00    +0.000 NA
ATOM     12  H   UNL     1      43.827   1.684  10.179  0.00  0.00    +0.000 HD
ATOM     13  H   UNL     1      45.425   1.485   9.911  0.00  0.00    +0.000 HD
ENDBRANCH  10  11
ENDBRANCH   8  10
ENDBRANCH   3   4
ENDBRANCH   1   3
BRANCH   1  14
ATOM     14  O   UNL     1      47.428   6.530  12.917  0.00  0.00    +0.000 OA
BRANCH  14  15
ATOM     15  C   UNL     1      47.545   5.799  14.068  0.00  0.00    +0.000 A 
ATOM     16  C   UNL     1      48.296   6.419  15.072  0.00  0.00    +0.000 A 
ATOM     17  C   UNL     1      48.515   5.790  16.305  0.00  0.00    +0.000 A 
ATOM     18  C   UNL     1      47.983   4.518  16.550  0.00  0.00    +0.000 A 
ATOM     19  C   UNL     1      47.224   3.901  15.548  0.00  0.00    +0.000 A 
ATOM     20  C   UNL     1      47.008   4.537  14.327  0.00  0.00    +0.000 A 
ATOM     21  F   UNL     1      46.270   3.887  13.416  0.00  0.00    +0.000 F 
BRANCH  18  22
ATOM     22  C   UNL     1      48.172   3.772  17.826  0.00  0.00    +0.000 C 
ATOM     23  N   UNL     1      47.307   2.762  18.136  0.00  0.00    +0.000 N 
ATOM     24  O   UNL     1      49.081   4.054  18.598  0.00  0.00    +0.000 OA
ATOM     25  H   UNL     1      46.515   2.477  17.586  0.00  0.00    +0.000 HD
ATOM     26  H   UNL     1      47.460   2.295  19.021  0.00  0.00    +0.000 HD
ENDBRANCH  18  22
ENDBRANCH  14  15
ENDBRANCH   1  14
TORSDOF 7
ENDMDL
MODEL 9
REMARK VINA RESULT:    -5.761      4.071      6.007
REMARK INTER + INTRA:          -9.116
REMARK INTER:                  -8.322
REMARK INTRA:                  -0.794
REMARK UNBOUND:                -1.166
REMARK  Name = 
REMARK  8 active torsions:
REMARK  status: ('A' for Active; 'I' for Inactive)
REMARK    1  A    between atoms: C_1  and  C_2
REMARK    2  A    between atoms: C_2  and  C_3
REMARK    3  A    between atoms: C_2  and  C_15
REMARK    4  A    between atoms: C_3  and  O_4
REMARK    5  A    between atoms: O_4  and  C_5
REMARK    6  A    between atoms: C_8  and  C_9
REMARK    7  A    between atoms: C_19  and  C_20
REMARK    8  A    between atoms: C_20  and  N_21
REMARK                            x       y       z     vdW  Elec       q    Type
REMARK                         _______ _______ _______ _____ _____    ______ ____
ROOT
ATOM      1  C   UNL     1      48.391   6.883  13.865  0.00  0.00    +0.000 C 
ENDROOT
BRANCH   1   3
ATOM      2  C   UNL     1      49.558   8.563  15.378  0.00  0.00    +0.000 C 
ATOM      3  C   UNL     1      48.663   7.318  15.319  0.00  0.00    +0.000 C 
BRANCH   3   4
ATOM      4  C   UNL     1      49.241   6.190  16.157  0.00  0.00    +0.000 A 
ATOM      5  C   UNL     1      50.573   6.200  16.599  0.00  0.00    +0.000 A 
ATOM      6  C   UNL     1      51.065   5.165  17.395  0.00  0.00    +0.000 A 
ATOM      7  C   UNL     1      50.235   4.107  17.767  0.00  0.00    +0.000 A 
ATOM      8  C   UNL     1      48.902   4.069  17.340  0.00  0.00    +0.000 A 
ATOM      9  C   UNL     1      48.422   5.111  16.528  0.00  0.00    +0.000 A 
BRANCH   8  10
ATOM     10  C   UNL     1      47.999   2.927  17.732  0.00  0.00    +0.000 C 
BRANCH  10  11
ATOM     11  N   UNL     1      46.594   3.250  17.501  0.00  0.00    +0.000 NA
ATOM     12  H   UNL     1      46.491   4.264  17.496  0.00  0.00    +0.000 HD
ATOM     13  H   UNL     1      46.038   2.906  18.280  0.00  0.00    +0.000 HD
ENDBRANCH  10  11
ENDBRANCH   8  10
ENDBRANCH   3   4
ENDBRANCH   1   3
BRANCH   1  14
ATOM     14  O   UNL     1      47.046   7.238  13.518  0.00  0.00    +0.000 OA
BRANCH  14  15
ATOM     15  C   UNL     1      46.301   6.306  12.848  0.00  0.00    +0.000 A 
ATOM     16  C   UNL     1      46.444   4.999  13.328  0.00  0.00    +0.000 A 
ATOM     17  C   UNL     1      45.753   3.933  12.738  0.00  0.00    +0.000 A 
ATOM     18  C   UNL     1      44.906   4.161  11.646  0.00  0.00    +0.000 A 
ATOM     19  C   UNL     1      44.757   5.469  11.171  0.00  0.00    +0.000 A 
ATOM     20  C   UNL     1      45.445   6.525  11.768  0.00  0.00    +0.000 A 
ATOM     21  F   UNL     1      45.251   7.751  11.262  0.00  0.00    +0.000 F 
BRANCH  18  22
ATOM     22  C   UNL     1      44.142   3.087  10.952  0.00  0.00    +0.000 C 
ATOM     23  N   UNL     1      43.355   2.252  11.692  0.00  0.00    +0.000 N 
ATOM     24  O   UNL     1      44.213   2.940   9.737  0.00  0.00    +0.000 OA
ATOM     25  H   UNL     1      43.254   2.272  12.692  0.00  0.00    +0.000 HD
ATOM     26  H   UNL     1      42.868   1.525  11.183  0.00  0.00    +0.000 HD
ENDBRANCH  18  22
ENDBRANCH  14  15
ENDBRANCH   1  14
TORSDOF 7
ENDMDL
