MODEL 1
REMARK VINA RESULT:    -8.118      0.000      0.000
REMARK INTER + INTRA:         -12.655
REMARK INTER:                 -11.439
REMARK INTRA:                  -1.216
REMARK UNBOUND:                -1.216
REMARK  Name = 
REMARK  8 active torsions:
REMARK  status: ('A' for Active; 'I' for Inactive)
REMARK    1  A    between atoms: C_1  and  N_2
REMARK    2  A    between atoms: C_4  and  C_5
REMARK    3  A    between atoms: N_7  and  C_8
REMARK    4  A    between atoms: C_8  and  C_9
REMARK    5  A    between atoms: C_12  and  O_13
REMARK    6  A    between atoms: O_13  and  C_14
REMARK    7  A    between atoms: C_14  and  C_15
REMARK    8  A    between atoms: C_15  and  N_16
REMARK                            x       y       z     vdW  Elec       q    Type
REMARK                         _______ _______ _______ _____ _____    ______ ____
ROOT
ATOM      1  C   UNL     1      46.907   8.050  13.133  0.00  0.00    +0.000 C 
ENDROOT
BRANCH   1   2
ATOM      2  C   UNL     1      46.121   7.057  12.328  0.00  0.00    +0.000 A 
ATOM      3  C   UNL     1      46.542   6.606  11.069  0.00  0.00    +0.000 A 
ATOM      4  C   UNL     1      45.773   5.673  10.369  0.00  0.00    +0.000 A 
ATOM      5  C   UNL     1      44.591   5.243  10.945  0.00  0.00    +0.000 A 
ATOM      6  N   UNL     1      44.163   5.655  12.157  0.00  0.00    +0.000 NA
ATOM      7  C   UNL     1      44.930   6.543  12.816  0.00  0.00    +0.000 A 
BRANCH   5   8
ATOM      8  O   UNL     1      43.813   4.340  10.238  0.00  0.00    +0.000 OA
BRANCH   8   9
ATOM      9  C   UNL     1      44.255   3.004  10.522  0.00  0.00    +0.000 C 
BRANCH   9  10
ATOM     10  C   UNL     1      44.355   2.155   9.243  0.00  0.00    +0.000 C 
BRANCH  10  11
ATOM     11  N   UNL     1      45.625   2.374   8.511  0.00  0.00    +0.000 NA
ATOM     12  C   UNL     1      46.188   1.119   7.989  0.00  0.00    +0.000 C 
ATOM     13  C   UNL     1      47.532   1.350   7.300  0.00  0.00    +0.000 C 
ATOM     14  C   UNL     1      47.408   2.374   6.183  0.00  0.00    +0.000 C 
ATOM     15  C   UNL     1      46.755   3.648   6.705  0.00  0.00    +0.000 C 
ATOM     16  C   UNL     1      45.437   3.352   7.428  0.00  0.00    +0.000 C 
ENDBRANCH  10  11
ENDBRANCH   9  10
ENDBRANCH   8   9
ENDBRANCH   5   8
ENDBRANCH   1   2
BRANCH   1  19
ATOM     17  C   UNL     1      48.599   6.931  14.518  0.00  0.00    +0.000 C 
ATOM     18  O   UNL     1      49.378   6.873  13.574  0.00  0.00    +0.000 OA
ATOM     19  N   UNL     1      47.355   7.508  14.392  0.00  0.00    +0.000 N 
ATOM     20  H   UNL     1      46.772   7.531  15.223  0.00  0.00    +0.000 HD
BRANCH  17  24
ATOM     21  C   UNL     1      50.504   6.642  18.974  0.00  0.00    +0.000 C 
ATOM     22  N   UNL     1      49.736   6.266  17.811  0.00  0.00    +0.000 N 
ATOM     23  N   UNL     1      49.719   7.041  16.705  0.00  0.00    +0.000 NA
ATOM     24  C   UNL     1      48.896   6.378  15.852  0.00  0.00    +0.000 A 
ATOM     25  C   UNL     1      48.405   5.169  16.440  0.00  0.00    +0.000 A 
ATOM     26  C   UNL     1      47.586   4.081  16.164  0.00  0.00    +0.000 A 
ATOM     27 CL   UNL     1      46.791   3.896  14.682  0.00  0.00    +0.000 Cl
ATOM     28  N   UNL     1      47.379   3.101  17.061  0.00  0.00    +0.000 NA
ATOM     29  C   UNL     1      47.996   3.212  18.244  0.00  0.00    +0.000 A 
ATOM     30  N   UNL     1      48.810   4.197  18.649  0.00  0.00    +0.000 NA
ATOM     31  C   UNL     1      48.972   5.141  17.704  0.00  0.00    +0.000 A 
ENDBRANCH  17  24
ENDBRANCH   1  19
TORSDOF 7
ENDMDL
MODEL 2
REMARK VINA RESULT:    -7.757      1.942      2.181
REMARK INTER + INTRA:         -12.147
REMARK INTER:                 -11.249
REMARK INTRA:                  -0.898
REMARK UNBOUND:                -1.216
REMARK  Name = 
REMARK  8 active torsions:
REMARK  status: ('A' for Active; 'I' for Inactive)
REMARK    1  A    between atoms: C_1  and  N_2
REMARK    2  A    between atoms: C_4  and  C_5
REMARK    3  A    between atoms: N_7  and  C_8
REMARK    4  A    between atoms: C_8  and  C_9
REMARK    5  A    between atoms: C_12  and  O_13
REMARK    6  A    between atoms: O_13  and  C_14
REMARK    7  A    between atoms: C_14  and  C_15
REMARK    8  A    between atoms: C_15  and  N_16
REMARK                            x       y       z     vdW  Elec       q    Type
REMARK                         _______ _______ _______ _____ _____    ______ ____
ROOT
ATOM      1  C   UNL     1      48.184   6.669  13.696  0.00  0.00    +0.000 C 
ENDROOT
BRANCH   1   2
ATOM      2  C   UNL     1      47.119   5.783  13.120  0.00  0.00    +0.000 A 
ATOM      3  C   UNL     1      46.437   6.097  11.936  0.00  0.00    +0.000 A 
ATOM      4  C   UNL     1      45.459   5.229  11.442  0.00  0.00    +0.000 A 
ATOM      5  C   UNL     1      45.179   4.087  12.170  0.00  0.00    +0.000 A 
ATOM      6  N   UNL     1      45.822   3.756  13.309  0.00  0.00    +0.000 NA
ATOM      7  C   UNL     1      46.769   4.602  13.755  0.00  0.00    +0.000 A 
BRANCH   5   8
ATOM      8  O   UNL     1      44.189   3.240  11.696  0.00  0.00    +0.000 OA
BRANCH   8   9
ATOM      9  C   UNL     1      44.093   3.367  10.269  0.00  0.00    +0.000 C 
BRANCH   9  10
ATOM     10  C   UNL     1      44.581   2.097   9.553  0.00  0.00    +0.000 C 
BRANCH  10  11
ATOM     11  N   UNL     1      45.766   2.342   8.698  0.00  0.00    +0.000 NA
ATOM     12  C   UNL     1      46.213   1.122   8.006  0.00  0.00    +0.000 C 
ATOM     13  C   UNL     1      47.478   1.373   7.187  0.00  0.00    +0.000 C 
ATOM     14  C   UNL     1      47.270   2.499   6.186  0.00  0.00    +0.000 C 
ATOM     15  C   UNL     1      46.735   3.739   6.891  0.00  0.00    +0.000 C 
ATOM     16  C   UNL     1      45.497   3.420   7.735  0.00  0.00    +0.000 C 
ENDBRANCH  10  11
ENDBRANCH   9  10
ENDBRANCH   8   9
ENDBRANCH   5   8
ENDBRANCH   1   2
BRANCH   1  19
ATOM     17  C   UNL     1      49.042   6.807  15.994  0.00  0.00    +0.000 C 
ATOM     18  O   UNL     1      50.174   6.522  15.622  0.00  0.00    +0.000 OA
ATOM     19  N   UNL     1      47.995   6.913  15.105  0.00  0.00    +0.000 N 
ATOM     20  H   UNL     1      47.090   7.167  15.488  0.00  0.00    +0.000 HD
BRANCH  17  24
ATOM     21  C   UNL     1      47.559   9.191  19.954  0.00  0.00    +0.000 C 
ATOM     22  N   UNL     1      48.026   8.096  19.138  0.00  0.00    +0.000 N 
ATOM     23  N   UNL     1      48.288   8.267  17.824  0.00  0.00    +0.000 NA
ATOM     24  C   UNL     1      48.685   7.038  17.406  0.00  0.00    +0.000 A 
ATOM     25  C   UNL     1      48.676   6.095  18.482  0.00  0.00    +0.000 A 
ATOM     26  C   UNL     1      48.944   4.760  18.761  0.00  0.00    +0.000 A 
ATOM     27 CL   UNL     1      49.491   3.678  17.581  0.00  0.00    +0.000 Cl
ATOM     28  N   UNL     1      48.788   4.245  19.994  0.00  0.00    +0.000 NA
ATOM     29  C   UNL     1      48.360   5.074  20.954  0.00  0.00    +0.000 A 
ATOM     30  N   UNL     1      48.064   6.376  20.836  0.00  0.00    +0.000 NA
ATOM     31  C   UNL     1      48.242   6.823  19.579  0.00  0.00    +0.000 A 
ENDBRANCH  17  24
ENDBRANCH   1  19
TORSDOF 7
ENDMDL
MODEL 3
REMARK VINA RESULT:    -7.438      2.387      3.130
REMARK INTER + INTRA:         -11.697
REMARK INTER:                 -10.954
REMARK INTRA:                  -0.743
REMARK UNBOUND:                -1.216
REMARK  Name = 
REMARK  8 active torsions:
REMARK  status: ('A' for Active; 'I' for Inactive)
REMARK    1  A    between atoms: C_1  and  N_2
REMARK    2  A    between atoms: C_4  and  C_5
REMARK    3  A    between atoms: N_7  and  C_8
REMARK    4  A    between atoms: C_8  and  C_9
REMARK    5  A    between atoms: C_12  and  O_13
REMARK    6  A    between atoms: O_13  and  C_14
REMARK    7  A    between atoms: C_14  and  C_15
REMARK    8  A    between atoms: C_15  and  N_16
REMARK                            x       y       z     vdW  Elec       q    Type
REMARK                         _______ _______ _______ _____ _____    ______ ____
ROOT
ATOM      1  C   UNL     1      48.012   6.062  14.109  0.00  0.00    +0.000 C 
ENDROOT
BRANCH   1   2
ATOM      2  C   UNL     1      46.807   5.464  13.444  0.00  0.00    +0.000 A 
ATOM      3  C   UNL     1      45.789   6.249  12.885  0.00  0.00    +0.000 A 
ATOM      4  C   UNL     1      44.693   5.637  12.271  0.00  0.00    +0.000 A 
ATOM      5  C   UNL     1      44.644   4.255  12.262  0.00  0.00    +0.000 A 
ATOM      6  N   UNL     1      45.611   3.474  12.787  0.00  0.00    +0.000 NA
ATOM      7  C   UNL     1      46.662   4.089  13.361  0.00  0.00    +0.000 A 
BRANCH   5   8
ATOM      8  O   UNL     1      43.543   3.647  11.679  0.00  0.00    +0.000 OA
BRANCH   8   9
ATOM      9  C   UNL     1      43.971   2.855  10.561  0.00  0.00    +0.000 C 
BRANCH   9  10
ATOM     10  C   UNL     1      44.331   3.732   9.350  0.00  0.00    +0.000 C 
BRANCH  10  11
ATOM     11  N   UNL     1      45.076   2.988   8.307  0.00  0.00    +0.000 NA
ATOM     12  C   UNL     1      46.052   3.840   7.608  0.00  0.00    +0.000 C 
ATOM     13  C   UNL     1      46.760   3.079   6.488  0.00  0.00    +0.000 C 
ATOM     14  C   UNL     1      47.440   1.826   7.018  0.00  0.00    +0.000 C 
ATOM     15  C   UNL     1      46.447   0.981   7.807  0.00  0.00    +0.000 C 
ATOM     16  C   UNL     1      45.732   1.805   8.883  0.00  0.00    +0.000 C 
ENDBRANCH  10  11
ENDBRANCH   9  10
ENDBRANCH   8   9
ENDBRANCH   5   8
ENDBRANCH   1   2
BRANCH   1  19
ATOM     17  C   UNL     1      48.981   6.196  16.363  0.00  0.00    +0.000 C 
ATOM     18  O   UNL     1      50.117   6.233  15.907  0.00  0.00    +0.000 OA
ATOM     19  N   UNL     1      47.876   6.122  15.545  0.00  0.00    +0.000 N 
ATOM     20  H   UNL     1      46.967   6.110  15.997  0.00  0.00    +0.000 HD
BRANCH  17  24
ATOM     21  C   UNL     1      48.609   4.544  20.913  0.00  0.00    +0.000 C 
ATOM     22  N   UNL     1      48.532   5.466  19.804  0.00  0.00    +0.000 N 
ATOM     23  N   UNL     1      48.875   5.085  18.555  0.00  0.00    +0.000 NA
ATOM     24  C   UNL     1      48.685   6.203  17.808  0.00  0.00    +0.000 A 
ATOM     25  C   UNL     1      48.208   7.288  18.609  0.00  0.00    +0.000 A 
ATOM     26  C   UNL     1      47.826   8.621  18.517  0.00  0.00    +0.000 A 
ATOM     27 CL   UNL     1      47.836   9.471  17.055  0.00  0.00    +0.000 Cl
ATOM     28  N   UNL     1      47.417   9.320  19.592  0.00  0.00    +0.000 NA
ATOM     29  C   UNL     1      47.392   8.678  20.767  0.00  0.00    +0.000 A 
ATOM     30  N   UNL     1      47.728   7.403  21.007  0.00  0.00    +0.000 NA
ATOM     31  C   UNL     1      48.126   6.766  19.890  0.00  0.00    +0.000 A 
ENDBRANCH  17  24
ENDBRANCH   1  19
TORSDOF 7
ENDMDL
MODEL 4
REMARK VINA RESULT:    -7.243      2.061      2.567
REMARK INTER + INTRA:         -11.423
REMARK INTER:                 -10.706
REMARK INTRA:                  -0.717
REMARK UNBOUND:                -1.216
REMARK  Name = 
REMARK  8 active torsions:
REMARK  status: ('A' for Active; 'I' for Inactive)
REMARK    1  A    between atoms: C_1  and  N_2
REMARK    2  A    between atoms: C_4  and  C_5
REMARK    3  A    between atoms: N_7  and  C_8
REMARK    4  A    between atoms: C_8  and  C_9
REMARK    5  A    between atoms: C_12  and  O_13
REMARK    6  A    between atoms: O_13  and  C_14
REMARK    7  A    between atoms: C_14  and  C_15
REMARK    8  A    between atoms: C_15  and  N_16
REMARK                            x       y       z     vdW  Elec       q    Type
REMARK                         _______ _______ _______ _____ _____    ______ ____
ROOT
ATOM      1  C   UNL     1      48.155   6.479  14.048  0.00  0.00    +0.000 C 
ENDROOT
BRANCH   1   2
ATOM      2  C   UNL     1      46.923   5.826  13.493  0.00  0.00    +0.000 A 
ATOM      3  C   UNL     1      45.910   6.553  12.850  0.00  0.00    +0.000 A 
ATOM      4  C   UNL     1      44.789   5.889  12.345  0.00  0.00    +0.000 A 
ATOM      5  C   UNL     1      44.709   4.521  12.525  0.00  0.00    +0.000 A 
ATOM      6  N   UNL     1      45.670   3.795  13.134  0.00  0.00    +0.000 NA
ATOM      7  C   UNL     1      46.746   4.456  13.600  0.00  0.00    +0.000 A 
BRANCH   5   8
ATOM      8  O   UNL     1      43.584   3.866  12.050  0.00  0.00    +0.000 OA
BRANCH   8   9
ATOM      9  C   UNL     1      43.940   3.066  10.912  0.00  0.00    +0.000 C 
BRANCH   9  10
ATOM     10  C   UNL     1      44.070   3.918   9.639  0.00  0.00    +0.000 C 
BRANCH  10  11
ATOM     11  N   UNL     1      44.832   3.233   8.568  0.00  0.00    +0.000 NA
ATOM     12  C   UNL     1      45.838   4.114   7.952  0.00  0.00    +0.000 C 
ATOM     13  C   UNL     1      46.565   3.418   6.803  0.00  0.00    +0.000 C 
ATOM     14  C   UNL     1      47.214   2.123   7.267  0.00  0.00    +0.000 C 
ATOM     15  C   UNL     1      46.189   1.243   7.972  0.00  0.00    +0.000 C 
ATOM     16  C   UNL     1      45.457   2.005   9.081  0.00  0.00    +0.000 C 
ENDBRANCH  10  11
ENDBRANCH   9  10
ENDBRANCH   8   9
ENDBRANCH   5   8
ENDBRANCH   1   2
BRANCH   1  19
ATOM     17  C   UNL     1      49.065   6.548  16.329  0.00  0.00    +0.000 C 
ATOM     18  O   UNL     1      50.135   6.088  15.949  0.00  0.00    +0.000 OA
ATOM     19  N   UNL     1      48.030   6.785  15.453  0.00  0.00    +0.000 N 
ATOM     20  H   UNL     1      47.179   7.180  15.842  0.00  0.00    +0.000 HD
BRANCH  17  24
ATOM     21  C   UNL     1      47.929   9.212  20.225  0.00  0.00    +0.000 C 
ATOM     22  N   UNL     1      48.267   8.047  19.442  0.00  0.00    +0.000 N 
ATOM     23  N   UNL     1      48.507   8.142  18.117  0.00  0.00    +0.000 NA
ATOM     24  C   UNL     1      48.772   6.865  17.739  0.00  0.00    +0.000 A 
ATOM     25  C   UNL     1      48.704   5.969  18.853  0.00  0.00    +0.000 A 
ATOM     26  C   UNL     1      48.852   4.626  19.178  0.00  0.00    +0.000 A 
ATOM     27 CL   UNL     1      49.261   3.453  18.030  0.00  0.00    +0.000 Cl
ATOM     28  N   UNL     1      48.684   4.176  20.435  0.00  0.00    +0.000 NA
ATOM     29  C   UNL     1      48.364   5.078  21.371  0.00  0.00    +0.000 A 
ATOM     30  N   UNL     1      48.190   6.397  21.207  0.00  0.00    +0.000 NA
ATOM     31  C   UNL     1      48.373   6.777  19.929  0.00  0.00    +0.000 A 
ENDBRANCH  17  24
ENDBRANCH   1  19
TORSDOF 7
ENDMDL
MODEL 5
REMARK VINA RESULT:    -6.943      2.061      2.681
REMARK INTER + INTRA:         -11.000
REMARK INTER:                 -10.167
REMARK INTRA:                  -0.833
REMARK UNBOUND:                -1.216
REMARK  Name = 
REMARK  8 active torsions:
REMARK  status: ('A' for Active; 'I' for Inactive)
REMARK    1  A    between atoms: C_1  and  N_2
REMARK    2  A    between atoms: C_4  and  C_5
REMARK    3  A    between atoms: N_7  and  C_8
REMARK    4  A    between atoms: C_8  and  C_9
REMARK    5  A    between atoms: C_12  and  O_13
REMARK    6  A    between atoms: O_13  and  C_14
REMARK    7  A    between atoms: C_14  and  C_15
REMARK    8  A    between atoms: C_15  and  N_16
REMARK                            x       y       z     vdW  Elec       q    Type
REMARK                         _______ _______ _______ _____ _____    ______ ____
ROOT
ATOM      1  C   UNL     1      48.060   6.883  13.863  0.00  0.00    +0.000 C 
ENDROOT
BRANCH   1   2
ATOM      2  C   UNL     1      47.007   6.035  13.213  0.00  0.00    +0.000 A 
ATOM      3  C   UNL     1      46.586   6.239  11.891  0.00  0.00    +0.000 A 
ATOM      4  C   UNL     1      45.606   5.413  11.335  0.00  0.00    +0.000 A 
ATOM      5  C   UNL     1      45.061   4.425  12.135  0.00  0.00    +0.000 A 
ATOM      6  N   UNL     1      45.449   4.202  13.408  0.00  0.00    +0.000 NA
ATOM      7  C   UNL     1      46.405   5.003  13.915  0.00  0.00    +0.000 A 
BRANCH   5   8
ATOM      8  O   UNL     1      44.068   3.623  11.593  0.00  0.00    +0.000 OA
BRANCH   8   9
ATOM      9  C   UNL     1      44.109   3.714  10.161  0.00  0.00    +0.000 C 
BRANCH   9  10
ATOM     10  C   UNL     1      44.502   2.374   9.519  0.00  0.00    +0.000 C 
BRANCH  10  11
ATOM     11  N   UNL     1      45.695   2.487   8.646  0.00  0.00    +0.000 NA
ATOM     12  C   UNL     1      46.097   1.187   8.085  0.00  0.00    +0.000 C 
ATOM     13  C   UNL     1      47.368   1.307   7.247  0.00  0.00    +0.000 C 
ATOM     14  C   UNL     1      47.200   2.329   6.134  0.00  0.00    +0.000 C 
ATOM     15  C   UNL     1      46.711   3.654   6.706  0.00  0.00    +0.000 C 
ATOM     16  C   UNL     1      45.463   3.469   7.576  0.00  0.00    +0.000 C 
ENDBRANCH  10  11
ENDBRANCH   9  10
ENDBRANCH   8   9
ENDBRANCH   5   8
ENDBRANCH   1   2
BRANCH   1  19
ATOM     17  C   UNL     1      48.775   7.066  16.207  0.00  0.00    +0.000 C 
ATOM     18  O   UNL     1      48.531   8.267  16.220  0.00  0.00    +0.000 OA
ATOM     19  N   UNL     1      48.561   6.299  15.084  0.00  0.00    +0.000 N 
ATOM     20  H   UNL     1      48.775   5.308  15.156  0.00  0.00    +0.000 HD
BRANCH  17  24
ATOM     21  C   UNL     1      48.867   4.555  20.360  0.00  0.00    +0.000 C 
ATOM     22  N   UNL     1      49.361   5.230  19.184  0.00  0.00    +0.000 N 
ATOM     23  N   UNL     1      48.517   5.839  18.323  0.00  0.00    +0.000 NA
ATOM     24  C   UNL     1      49.335   6.339  17.361  0.00  0.00    +0.000 A 
ATOM     25  C   UNL     1      50.707   6.041  17.639  0.00  0.00    +0.000 A 
ATOM     26  C   UNL     1      51.985   6.228  17.128  0.00  0.00    +0.000 A 
ATOM     27 CL   UNL     1      52.275   7.080  15.695  0.00  0.00    +0.000 Cl
ATOM     28  N   UNL     1      53.077   5.746  17.748  0.00  0.00    +0.000 NA
ATOM     29  C   UNL     1      52.886   5.070  18.888  0.00  0.00    +0.000 A 
ATOM     30  N   UNL     1      51.721   4.813  19.498  0.00  0.00    +0.000 NA
ATOM     31  C   UNL     1      50.674   5.323  18.824  0.00  0.00    +0.000 A 
ENDBRANCH  17  24
ENDBRANCH   1  19
TORSDOF 7
ENDMDL
MODEL 6
REMARK VINA RESULT:    -6.879      2.804      3.751
REMARK INTER + INTRA:         -10.910
REMARK INTER:                 -10.090
REMARK INTRA:                  -0.820
REMARK UNBOUND:                -1.216
REMARK  Name = 
REMARK  8 active torsions:
REMARK  status: ('A' for Active; 'I' for Inactive)
REMARK    1  A    between atoms: C_1  and  N_2
REMARK    2  A    between atoms: C_4  and  C_5
REMARK    3  A    between atoms: N_7  and  C_8
REMARK    4  A    between atoms: C_8  and  C_9
REMARK    5  A    between atoms: C_12  and  O_13
REMARK    6  A    between atoms: O_13  and  C_14
REMARK    7  A    between atoms: C_14  and  C_15
REMARK    8  A    between atoms: C_15  and  N_16
REMARK                            x       y       z     vdW  Elec       q    Type
REMARK                         _______ _______ _______ _____ _____    ______ ____
ROOT
ATOM      1  C   UNL     1      47.857   5.088  14.966  0.00  0.00    +0.000 C 
ENDROOT
BRANCH   1   2
ATOM      2  C   UNL     1      46.808   4.801  13.932  0.00  0.00    +0.000 A 
ATOM      3  C   UNL     1      46.072   5.817  13.305  0.00  0.00    +0.000 A 
ATOM      4  C   UNL     1      45.113   5.490  12.343  0.00  0.00    +0.000 A 
ATOM      5  C   UNL     1      44.906   4.152  12.061  0.00  0.00    +0.000 A 
ATOM      6  N   UNL     1      45.603   3.154  12.643  0.00  0.00    +0.000 NA
ATOM      7  C   UNL     1      46.530   3.497  13.557  0.00  0.00    +0.000 A 
BRANCH   5   8
ATOM      8  O   UNL     1      43.935   3.827  11.127  0.00  0.00    +0.000 OA
BRANCH   8   9
ATOM      9  C   UNL     1      44.490   2.932  10.151  0.00  0.00    +0.000 C 
BRANCH   9  10
ATOM     10  C   UNL     1      44.520   3.567   8.751  0.00  0.00    +0.000 C 
BRANCH  10  11
ATOM     11  N   UNL     1      45.386   2.825   7.805  0.00  0.00    +0.000 NA
ATOM     12  C   UNL     1      46.435   3.681   7.225  0.00  0.00    +0.000 C 
ATOM     13  C   UNL     1      47.273   2.922   6.199  0.00  0.00    +0.000 C 
ATOM     14  C   UNL     1      47.892   1.673   6.808  0.00  0.00    +0.000 C 
ATOM     15  C   UNL     1      46.816   0.824   7.475  0.00  0.00    +0.000 C 
ATOM     16  C   UNL     1      45.976   1.646   8.457  0.00  0.00    +0.000 C 
ENDBRANCH  10  11
ENDBRANCH   9  10
ENDBRANCH   8   9
ENDBRANCH   5   8
ENDBRANCH   1   2
BRANCH   1  19
ATOM     17  C   UNL     1      49.042   7.085  15.767  0.00  0.00    +0.000 C 
ATOM     18  O   UNL     1      50.108   6.483  15.788  0.00  0.00    +0.000 OA
ATOM     19  N   UNL     1      47.876   6.475  15.363  0.00  0.00    +0.000 N 
ATOM     20  H   UNL     1      47.035   7.044  15.359  0.00  0.00    +0.000 HD
BRANCH  17  24
ATOM     21  C   UNL     1      49.342  11.926  15.559  0.00  0.00    +0.000 C 
ATOM     22  N   UNL     1      49.028  10.618  16.081  0.00  0.00    +0.000 N 
ATOM     23  N   UNL     1      49.353   9.498  15.401  0.00  0.00    +0.000 NA
ATOM     24  C   UNL     1      48.894   8.491  16.188  0.00  0.00    +0.000 A 
ATOM     25  C   UNL     1      48.285   8.999  17.379  0.00  0.00    +0.000 A 
ATOM     26  C   UNL     1      47.653   8.577  18.543  0.00  0.00    +0.000 A 
ATOM     27 CL   UNL     1      47.413   6.942  18.904  0.00  0.00    +0.000 Cl
ATOM     28  N   UNL     1      47.197   9.448  19.461  0.00  0.00    +0.000 NA
ATOM     29  C   UNL     1      47.374  10.751  19.210  0.00  0.00    +0.000 A 
ATOM     30  N   UNL     1      47.961  11.303  18.139  0.00  0.00    +0.000 NA
ATOM     31  C   UNL     1      48.393  10.376  17.265  0.00  0.00    +0.000 A 
ENDBRANCH  17  24
ENDBRANCH   1  19
TORSDOF 7
ENDMDL
MODEL 7
REMARK VINA RESULT:    -6.693      2.685      4.452
REMARK INTER + INTRA:         -10.647
REMARK INTER:                  -9.860
REMARK INTRA:                  -0.787
REMARK UNBOUND:                -1.216
REMARK  Name = 
REMARK  8 active torsions:
REMARK  status: ('A' for Active; 'I' for Inactive)
REMARK    1  A    between atoms: C_1  and  N_2
REMARK    2  A    between atoms: C_4  and  C_5
REMARK    3  A    between atoms: N_7  and  C_8
REMARK    4  A    between atoms: C_8  and  C_9
REMARK    5  A    between atoms: C_12  and  O_13
REMARK    6  A    between atoms: O_13  and  C_14
REMARK    7  A    between atoms: C_14  and  C_15
REMARK    8  A    between atoms: C_15  and  N_16
REMARK                            x       y       z     vdW  Elec       q    Type
REMARK                         _______ _______ _______ _____ _____    ______ ____
ROOT
ATOM      1  C   UNL     1      47.460   5.351  14.739  0.00  0.00    +0.000 C 
ENDROOT
BRANCH   1   2
ATOM      2  C   UNL     1      46.436   4.882  13.749  0.00  0.00    +0.000 A 
ATOM      3  C   UNL     1      46.387   3.560  13.285  0.00  0.00    +0.000 A 
ATOM      4  C   UNL     1      45.405   3.178  12.368  0.00  0.00    +0.000 A 
ATOM      5  C   UNL     1      44.519   4.143  11.927  0.00  0.00    +0.000 A 
ATOM      6  N   UNL     1      44.537   5.421  12.359  0.00  0.00    +0.000 NA
ATOM      7  C   UNL     1      45.486   5.760  13.253  0.00  0.00    +0.000 A 
BRANCH   5   8
ATOM      8  O   UNL     1      43.561   3.772  10.995  0.00  0.00    +0.000 OA
BRANCH   8   9
ATOM      9  C   UNL     1      44.143   3.778   9.683  0.00  0.00    +0.000 C 
BRANCH   9  10
ATOM     10  C   UNL     1      44.389   2.352   9.164  0.00  0.00    +0.000 C 
BRANCH  10  11
ATOM     11  N   UNL     1      45.310   2.317   8.004  0.00  0.00    +0.000 NA
ATOM     12  C   UNL     1      45.938   3.624   7.754  0.00  0.00    +0.000 C 
ATOM     13  C   UNL     1      46.827   3.590   6.512  0.00  0.00    +0.000 C 
ATOM     14  C   UNL     1      47.891   2.510   6.626  0.00  0.00    +0.000 C 
ATOM     15  C   UNL     1      47.247   1.170   6.960  0.00  0.00    +0.000 C 
ATOM     16  C   UNL     1      46.330   1.272   8.183  0.00  0.00    +0.000 C 
ENDBRANCH  10  11
ENDBRANCH   9  10
ENDBRANCH   8   9
ENDBRANCH   5   8
ENDBRANCH   1   2
BRANCH   1  19
ATOM     17  C   UNL     1      48.953   7.293  14.927  0.00  0.00    +0.000 C 
ATOM     18  O   UNL     1      49.892   6.579  15.257  0.00  0.00    +0.000 OA
ATOM     19  N   UNL     1      47.713   6.769  14.641  0.00  0.00    +0.000 N 
ATOM     20  H   UNL     1      46.990   7.423  14.361  0.00  0.00    +0.000 HD
BRANCH  17  24
ATOM     21  C   UNL     1      49.372  11.908  16.375  0.00  0.00    +0.000 C 
ATOM     22  N   UNL     1      49.235  10.785  15.478  0.00  0.00    +0.000 N 
ATOM     23  N   UNL     1      49.149   9.523  15.949  0.00  0.00    +0.000 NA
ATOM     24  C   UNL     1      49.046   8.762  14.829  0.00  0.00    +0.000 A 
ATOM     25  C   UNL     1      49.059   9.571  13.648  0.00  0.00    +0.000 A 
ATOM     26  C   UNL     1      48.993   9.474  12.263  0.00  0.00    +0.000 A 
ATOM     27 CL   UNL     1      48.831   7.993  11.462  0.00  0.00    +0.000 Cl
ATOM     28  N   UNL     1      49.049  10.560  11.471  0.00  0.00    +0.000 NA
ATOM     29  C   UNL     1      49.173  11.751  12.071  0.00  0.00    +0.000 A 
ATOM     30  N   UNL     1      49.247  11.997  13.386  0.00  0.00    +0.000 NA
ATOM     31  C   UNL     1      49.185  10.868  14.117  0.00  0.00    +0.000 A 
ENDBRANCH  17  24
ENDBRANCH   1  19
TORSDOF 7
ENDMDL
MODEL 8
REMARK VINA RESULT:    -6.582      2.394      3.635
REMARK INTER + INTRA:         -10.491
REMARK INTER:                  -9.691
REMARK INTRA:                  -0.800
REMARK UNBOUND:                -1.216
REMARK  Name = 
REMARK  8 active torsions:
REMARK  status: ('A' for Active; 'I' for Inactive)
REMARK    1  A    between atoms: C_1  and  N_2
REMARK    2  A    between atoms: C_4  and  C_5
REMARK    3  A    between atoms: N_7  and  C_8
REMARK    4  A    between atoms: C_8  and  C_9
REMARK    5  A    between atoms: C_12  and  O_13
REMARK    6  A    between atoms: O_13  and  C_14
REMARK    7  A    between atoms: C_14  and  C_15
REMARK    8  A    between atoms: C_15  and  N_16
REMARK                            x       y       z     vdW  Elec       q    Type
REMARK                         _______ _______ _______ _____ _____    ______ ____
ROOT
ATOM      1  C   UNL     1      47.374   4.143  15.527  0.00  0.00    +0.000 C 
ENDROOT
BRANCH   1   2
ATOM      2  C   UNL     1      46.816   4.477  14.175  0.00  0.00    +0.000 A 
ATOM      3  C   UNL     1      46.929   5.754  13.608  0.00  0.00    +0.000 A 
ATOM      4  C   UNL     1      46.396   6.005  12.340  0.00  0.00    +0.000 A 
ATOM      5  C   UNL     1      45.743   4.970  11.695  0.00  0.00    +0.000 A 
ATOM      6  N   UNL     1      45.623   3.730  12.214  0.00  0.00    +0.000 NA
ATOM      7  C   UNL     1      46.157   3.512  13.430  0.00  0.00    +0.000 A 
BRANCH   5   8
ATOM      8  O   UNL     1      45.189   5.226  10.451  0.00  0.00    +0.000 OA
BRANCH   8   9
ATOM      9  C   UNL     1      44.629   4.016   9.919  0.00  0.00    +0.000 C 
BRANCH   9  10
ATOM     10  C   UNL     1      44.461   4.092   8.392  0.00  0.00    +0.000 C 
BRANCH  10  11
ATOM     11  N   UNL     1      45.292   3.096   7.675  0.00  0.00    +0.000 NA
ATOM     12  C   UNL     1      46.464   3.711   7.032  0.00  0.00    +0.000 C 
ATOM     13  C   UNL     1      47.270   2.685   6.237  0.00  0.00    +0.000 C 
ATOM     14  C   UNL     1      47.703   1.524   7.118  0.00  0.00    +0.000 C 
ATOM     15  C   UNL     1      46.499   0.934   7.843  0.00  0.00    +0.000 C 
ATOM     16  C   UNL     1      45.701   2.013   8.582  0.00  0.00    +0.000 C 
ENDBRANCH  10  11
ENDBRANCH   9  10
ENDBRANCH   8   9
ENDBRANCH   5   8
ENDBRANCH   1   2
BRANCH   1  19
ATOM     17  C   UNL     1      48.857   5.421  17.011  0.00  0.00    +0.000 C 
ATOM     18  O   UNL     1      49.694   4.526  16.996  0.00  0.00    +0.000 OA
ATOM     19  N   UNL     1      47.682   5.321  16.302  0.00  0.00    +0.000 N 
ATOM     20  H   UNL     1      47.044   6.110  16.353  0.00  0.00    +0.000 HD
BRANCH  17  24
ATOM     21  C   UNL     1      47.738   8.968  20.130  0.00  0.00    +0.000 C 
ATOM     22  N   UNL     1      48.507   8.212  19.171  0.00  0.00    +0.000 N 
ATOM     23  N   UNL     1      48.014   7.084  18.615  0.00  0.00    +0.000 NA
ATOM     24  C   UNL     1      49.009   6.662  17.793  0.00  0.00    +0.000 A 
ATOM     25  C   UNL     1      50.130   7.550  17.836  0.00  0.00    +0.000 A 
ATOM     26  C   UNL     1      51.398   7.728  17.295  0.00  0.00    +0.000 A 
ATOM     27 CL   UNL     1      52.061   6.658  16.165  0.00  0.00    +0.000 Cl
ATOM     28  N   UNL     1      52.177   8.771  17.635  0.00  0.00    +0.000 NA
ATOM     29  C   UNL     1      51.682   9.641  18.525  0.00  0.00    +0.000 A 
ATOM     30  N   UNL     1      50.485   9.600  19.126  0.00  0.00    +0.000 NA
ATOM     31  C   UNL     1      49.761   8.534  18.740  0.00  0.00    +0.000 A 
ENDBRANCH  17  24
ENDBRANCH   1  19
TORSDOF 7
ENDMDL
MODEL 9
REMARK VINA RESULT:    -6.290      3.786      9.351
REMARK INTER + INTRA:         -10.079
REMARK INTER:                  -8.587
REMARK INTRA:                  -1.492
REMARK UNBOUND:                -1.216
REMARK  Name = 
REMARK  8 active torsions:
REMARK  status: ('A' for Active; 'I' for Inactive)
REMARK    1  A    between atoms: C_1  and  N_2
REMARK    2  A    between atoms: C_4  and  C_5
REMARK    3  A    between atoms: N_7  and  C_8
REMARK    4  A    between atoms: C_8  and  C_9
REMARK    5  A    between atoms: C_12  and  O_13
REMARK    6  A    between atoms: O_13  and  C_14
REMARK    7  A    between atoms: C_14  and  C_15
REMARK    8  A    between atoms: C_15  and  N_16
REMARK                            x       y       z     vdW  Elec       q    Type
REMARK                         _______ _______ _______ _____ _____    ______ ____
ROOT
ATOM      1  C   UNL     1      47.524   3.556  16.815  0.00  0.00    +0.000 C 
ENDROOT
BRANCH   1   2
ATOM      2  C   UNL     1      47.920   4.410  17.983  0.00  0.00    +0.000 A 
ATOM      3  C   UNL     1      47.092   5.419  18.494  0.00  0.00    +0.000 A 
ATOM      4  C   UNL     1      47.511   6.178  19.590  0.00  0.00    +0.000 A 
ATOM      5  C   UNL     1      48.761   5.915  20.121  0.00  0.00    +0.000 A 
ATOM      6  N   UNL     1      49.577   4.947  19.654  0.00  0.00    +0.000 NA
ATOM      7  C   UNL     1      49.144   4.222  18.606  0.00  0.00    +0.000 A 
BRANCH   5   8
ATOM      8  O   UNL     1      49.189   6.687  21.190  0.00  0.00    +0.000 OA
BRANCH   8   9
ATOM      9  C   UNL     1      50.326   7.467  20.791  0.00  0.00    +0.000 C 
BRANCH   9  10
ATOM     10  C   UNL     1      50.020   8.973  20.824  0.00  0.00    +0.000 C 
BRANCH  10  11
ATOM     11  N   UNL     1      49.618   9.504  19.500  0.00  0.00    +0.000 NA
ATOM     12  C   UNL     1      50.081   8.648  18.395  0.00  0.00    +0.000 C 
ATOM     13  C   UNL     1      49.722   9.245  17.036  0.00  0.00    +0.000 C 
ATOM     14  C   UNL     1      48.226   9.489  16.919  0.00  0.00    +0.000 C 
ATOM     15  C   UNL     1      47.732  10.312  18.103  0.00  0.00    +0.000 C 
ATOM     16  C   UNL     1      48.161   9.694  19.438  0.00  0.00    +0.000 C 
ENDBRANCH  10  11
ENDBRANCH   9  10
ENDBRANCH   8   9
ENDBRANCH   5   8
ENDBRANCH   1   2
BRANCH   1  19
ATOM     17  C   UNL     1      46.711   3.976  14.535  0.00  0.00    +0.000 C 
ATOM     18  O   UNL     1      47.447   3.109  14.079  0.00  0.00    +0.000 OA
ATOM     19  N   UNL     1      46.676   4.258  15.882  0.00  0.00    +0.000 N 
ATOM     20  H   UNL     1      46.030   4.981  16.185  0.00  0.00    +0.000 HD
BRANCH  17  24
ATOM     21  C   UNL     1      42.754   5.277  12.042  0.00  0.00    +0.000 C 
ATOM     22  N   UNL     1      44.076   5.370  12.614  0.00  0.00    +0.000 N 
ATOM     23  N   UNL     1      44.600   4.352  13.330  0.00  0.00    +0.000 NA
ATOM     24  C   UNL     1      45.824   4.808  13.702  0.00  0.00    +0.000 A 
ATOM     25  C   UNL     1      46.061   6.127  13.199  0.00  0.00    +0.000 A 
ATOM     26  C   UNL     1      47.024   7.129  13.188  0.00  0.00    +0.000 A 
ATOM     27 CL   UNL     1      48.518   6.962  13.962  0.00  0.00    +0.000 Cl
ATOM     28  N   UNL     1      46.826   8.299  12.552  0.00  0.00    +0.000 NA
ATOM     29  C   UNL     1      45.655   8.465  11.925  0.00  0.00    +0.000 A 
ATOM     30  N   UNL     1      44.640   7.593  11.849  0.00  0.00    +0.000 NA
ATOM     31  C   UNL     1      44.906   6.448  12.505  0.00  0.00    +0.000 A 
ENDBRANCH  17  24
ENDBRANCH   1  19
TORSDOF 7
ENDMDL
