MODEL 1
REMARK VINA RESULT:    -7.844      0.000      0.000
REMARK INTER + INTRA:         -10.268
REMARK INTER:                  -9.679
REMARK INTRA:                  -0.590
REMARK UNBOUND:                -0.590
REMARK  Name = 
REMARK  4 active torsions:
REMARK  status: ('A' for Active; 'I' for Inactive)
REMARK    1  A    between atoms: C_2  and  C_4
REMARK    2  A    between atoms: C_9  and  N_10
REMARK    3  A    between atoms: N_10  and  C_11
REMARK    4  A    between atoms: C_11  and  C_12
REMARK                            x       y       z     vdW  Elec       q    Type
REMARK                         _______ _______ _______ _____ _____    ______ ____
ROOT
ATOM      1  N   UNL     1      45.489   5.806   9.930  0.00  0.00    +0.000 N 
ATOM      2  H   UNL     1      46.233   6.442   9.648  0.00  0.00    +0.000 HD
ENDROOT
BRANCH   1   8
ATOM      3  C   UNL     1      46.329   3.098   7.476  0.00  0.00    +0.000 A 
ATOM      4  C   UNL     1      45.572   2.046   7.994  0.00  0.00    +0.000 A 
ATOM      5  C   UNL     1      44.792   2.278   9.118  0.00  0.00    +0.000 A 
ATOM      6  F   UNL     1      44.078   1.268   9.637  0.00  0.00    +0.000 F 
ATOM      7  C   UNL     1      44.744   3.529   9.728  0.00  0.00    +0.000 A 
ATOM      8  C   UNL     1      45.491   4.601   9.225  0.00  0.00    +0.000 A 
ATOM      9  C   UNL     1      46.305   4.353   8.108  0.00  0.00    +0.000 A 
BRANCH   3  11
ATOM     10  N   UNL     1      48.526   2.691   6.506  0.00  0.00    +0.000 N 
ATOM     11  C   UNL     1      47.198   2.928   6.285  0.00  0.00    +0.000 C 
ATOM     12  O   UNL     1      46.740   2.952   5.152  0.00  0.00    +0.000 OA
ATOM     13  H   UNL     1      49.080   2.471   5.688  0.00  0.00    +0.000 HD
ATOM     14  H   UNL     1      48.893   2.418   7.405  0.00  0.00    +0.000 HD
ENDBRANCH   3  11
ENDBRANCH   1   8
BRANCH   1  15
ATOM     15  C   UNL     1      45.228   5.804  11.359  0.00  0.00    +0.000 C 
BRANCH  15  16
ATOM     16  C   UNL     1      46.495   6.059  12.133  0.00  0.00    +0.000 A 
ATOM     17  C   UNL     1      47.444   6.976  11.692  0.00  0.00    +0.000 A 
ATOM     18  C   UNL     1      48.525   7.226  12.514  0.00  0.00    +0.000 A 
ATOM     19  N   UNL     1      48.711   6.643  13.718  0.00  0.00    +0.000 NA
ATOM     20  C   UNL     1      47.809   5.734  14.151  0.00  0.00    +0.000 A 
ATOM     21  N   UNL     1      47.926   5.235  15.427  0.00  0.00    +0.000 N 
ATOM     22  C   UNL     1      47.495   3.895  15.828  0.00  0.00    +0.000 C 
ATOM     23  C   UNL     1      46.898   3.976  17.244  0.00  0.00    +0.000 C 
ATOM     24  O   UNL     1      47.820   4.562  18.180  0.00  0.00    +0.000 OA
ATOM     25  C   UNL     1      48.211   5.880  17.751  0.00  0.00    +0.000 C 
ATOM     26  C   UNL     1      48.875   5.850  16.361  0.00  0.00    +0.000 C 
ATOM     27  C   UNL     1      46.710   5.413  13.356  0.00  0.00    +0.000 A 
ENDBRANCH  15  16
ENDBRANCH   1  15
TORSDOF 4
ENDMDL
MODEL 2
REMARK VINA RESULT:    -7.749      2.458      3.550
REMARK INTER + INTRA:         -10.151
REMARK INTER:                  -9.475
REMARK INTRA:                  -0.676
REMARK UNBOUND:                -0.590
REMARK  Name = 
REMARK  4 active torsions:
REMARK  status: ('A' for Active; 'I' for Inactive)
REMARK    1  A    between atoms: C_2  and  C_4
REMARK    2  A    between atoms: C_9  and  N_10
REMARK    3  A    between atoms: N_10  and  C_11
REMARK    4  A    between atoms: C_11  and  C_12
REMARK                            x       y       z     vdW  Elec       q    Type
REMARK                         _______ _______ _______ _____ _____    ______ ____
ROOT
ATOM      1  N   UNL     1      45.170   5.541   9.561  0.00  0.00    +0.000 N 
ATOM      2  H   UNL     1      45.941   6.178   9.375  0.00  0.00    +0.000 HD
ENDROOT
BRANCH   1   8
ATOM      3  C   UNL     1      46.496   2.690   7.518  0.00  0.00    +0.000 A 
ATOM      4  C   UNL     1      45.725   1.641   8.019  0.00  0.00    +0.000 A 
ATOM      5  C   UNL     1      44.778   1.918   8.995  0.00  0.00    +0.000 A 
ATOM      6  F   UNL     1      44.047   0.914   9.500  0.00  0.00    +0.000 F 
ATOM      7  C   UNL     1      44.578   3.212   9.471  0.00  0.00    +0.000 A 
ATOM      8  C   UNL     1      45.336   4.282   8.981  0.00  0.00    +0.000 A 
ATOM      9  C   UNL     1      46.316   3.991   8.019  0.00  0.00    +0.000 A 
BRANCH   3  11
ATOM     10  N   UNL     1      47.446   3.210   5.336  0.00  0.00    +0.000 N 
ATOM     11  C   UNL     1      47.538   2.474   6.483  0.00  0.00    +0.000 C 
ATOM     12  O   UNL     1      48.469   1.702   6.666  0.00  0.00    +0.000 OA
ATOM     13  H   UNL     1      48.221   3.129   4.691  0.00  0.00    +0.000 HD
ATOM     14  H   UNL     1      46.852   4.022   5.251  0.00  0.00    +0.000 HD
ENDBRANCH   3  11
ENDBRANCH   1   8
BRANCH   1  15
ATOM     15  C   UNL     1      44.632   5.647  10.907  0.00  0.00    +0.000 C 
BRANCH  15  16
ATOM     16  C   UNL     1      45.743   5.740  11.920  0.00  0.00    +0.000 A 
ATOM     17  C   UNL     1      45.995   4.711  12.821  0.00  0.00    +0.000 A 
ATOM     18  C   UNL     1      47.096   4.833  13.643  0.00  0.00    +0.000 A 
ATOM     19  N   UNL     1      47.946   5.883  13.620  0.00  0.00    +0.000 NA
ATOM     20  C   UNL     1      47.703   6.902  12.765  0.00  0.00    +0.000 A 
ATOM     21  N   UNL     1      48.632   7.908  12.648  0.00  0.00    +0.000 N 
ATOM     22  C   UNL     1      48.304   9.294  12.309  0.00  0.00    +0.000 C 
ATOM     23  C   UNL     1      49.411   9.851  11.398  0.00  0.00    +0.000 C 
ATOM     24  O   UNL     1      50.712   9.724  11.999  0.00  0.00    +0.000 OA
ATOM     25  C   UNL     1      50.997   8.347  12.308  0.00  0.00    +0.000 C 
ATOM     26  C   UNL     1      49.951   7.754  13.271  0.00  0.00    +0.000 C 
ATOM     27  C   UNL     1      46.589   6.855  11.928  0.00  0.00    +0.000 A 
ENDBRANCH  15  16
ENDBRANCH   1  15
TORSDOF 4
ENDMDL
MODEL 3
REMARK VINA RESULT:    -7.050      2.069      2.600
REMARK INTER + INTRA:          -9.288
REMARK INTER:                  -8.624
REMARK INTRA:                  -0.664
REMARK UNBOUND:                -0.590
REMARK  Name = 
REMARK  4 active torsions:
REMARK  status: ('A' for Active; 'I' for Inactive)
REMARK    1  A    between atoms: C_2  and  C_4
REMARK    2  A    between atoms: C_9  and  N_10
REMARK    3  A    between atoms: N_10  and  C_11
REMARK    4  A    between atoms: C_11  and  C_12
REMARK                            x       y       z     vdW  Elec       q    Type
REMARK                         _______ _______ _______ _____ _____    ______ ____
ROOT
ATOM      1  N   UNL     1      44.981   7.085  12.819  0.00  0.00    +0.000 N 
ATOM      2  H   UNL     1      44.153   7.582  13.140  0.00  0.00    +0.000 HD
ENDROOT
BRANCH   1   8
ATOM      3  C   UNL     1      44.819   4.484  10.122  0.00  0.00    +0.000 A 
ATOM      4  C   UNL     1      44.232   3.430  10.824  0.00  0.00    +0.000 A 
ATOM      5  C   UNL     1      43.888   3.627  12.154  0.00  0.00    +0.000 A 
ATOM      6  F   UNL     1      43.345   2.614  12.845  0.00  0.00    +0.000 F 
ATOM      7  C   UNL     1      44.107   4.846  12.792  0.00  0.00    +0.000 A 
ATOM      8  C   UNL     1      44.690   5.919  12.108  0.00  0.00    +0.000 A 
ATOM      9  C   UNL     1      45.067   5.704  10.774  0.00  0.00    +0.000 A 
BRANCH   3  11
ATOM     10  N   UNL     1      44.450   3.566   7.896  0.00  0.00    +0.000 N 
ATOM     11  C   UNL     1      45.227   4.350   8.701  0.00  0.00    +0.000 C 
ATOM     12  O   UNL     1      46.193   4.953   8.255  0.00  0.00    +0.000 OA
ATOM     13  H   UNL     1      44.680   3.573   6.911  0.00  0.00    +0.000 HD
ATOM     14  H   UNL     1      43.523   3.261   8.156  0.00  0.00    +0.000 HD
ENDBRANCH   3  11
ENDBRANCH   1   8
BRANCH   1  15
ATOM     15  C   UNL     1      46.049   7.958  12.361  0.00  0.00    +0.000 C 
BRANCH  15  16
ATOM     16  C   UNL     1      47.356   7.590  13.015  0.00  0.00    +0.000 A 
ATOM     17  C   UNL     1      48.560   8.150  12.600  0.00  0.00    +0.000 A 
ATOM     18  C   UNL     1      49.695   7.838  13.320  0.00  0.00    +0.000 A 
ATOM     19  N   UNL     1      49.705   7.032  14.405  0.00  0.00    +0.000 NA
ATOM     20  C   UNL     1      48.547   6.463  14.808  0.00  0.00    +0.000 A 
ATOM     21  N   UNL     1      48.530   5.747  15.981  0.00  0.00    +0.000 N 
ATOM     22  C   UNL     1      47.638   4.616  16.241  0.00  0.00    +0.000 C 
ATOM     23  C   UNL     1      47.193   4.670  17.713  0.00  0.00    +0.000 C 
ATOM     24  O   UNL     1      48.317   4.703  18.610  0.00  0.00    +0.000 OA
ATOM     25  C   UNL     1      49.162   5.834  18.325  0.00  0.00    +0.000 C 
ATOM     26  C   UNL     1      49.690   5.797  16.878  0.00  0.00    +0.000 C 
ATOM     27  C   UNL     1      47.369   6.713  14.105  0.00  0.00    +0.000 A 
ENDBRANCH  15  16
ENDBRANCH   1  15
TORSDOF 4
ENDMDL
MODEL 4
REMARK VINA RESULT:    -6.947      4.593      6.501
REMARK INTER + INTRA:          -9.161
REMARK INTER:                  -8.499
REMARK INTRA:                  -0.662
REMARK UNBOUND:                -0.590
REMARK  Name = 
REMARK  4 active torsions:
REMARK  status: ('A' for Active; 'I' for Inactive)
REMARK    1  A    between atoms: C_2  and  C_4
REMARK    2  A    between atoms: C_9  and  N_10
REMARK    3  A    between atoms: N_10  and  C_11
REMARK    4  A    between atoms: C_11  and  C_12
REMARK                            x       y       z     vdW  Elec       q    Type
REMARK                         _______ _______ _______ _____ _____    ______ ____
ROOT
ATOM      1  N   UNL     1      44.723   6.949  12.967  0.00  0.00    +0.000 N 
ATOM      2  H   UNL     1      43.965   7.623  12.885  0.00  0.00    +0.000 HD
ENDROOT
BRANCH   1   8
ATOM      3  C   UNL     1      44.748   4.421  10.198  0.00  0.00    +0.000 A 
ATOM      4  C   UNL     1      44.234   3.309  10.867  0.00  0.00    +0.000 A 
ATOM      5  C   UNL     1      43.874   3.444  12.200  0.00  0.00    +0.000 A 
ATOM      6  F   UNL     1      43.400   2.376  12.859  0.00  0.00    +0.000 F 
ATOM      7  C   UNL     1      44.006   4.656  12.873  0.00  0.00    +0.000 A 
ATOM      8  C   UNL     1      44.515   5.786  12.223  0.00  0.00    +0.000 A 
ATOM      9  C   UNL     1      44.910   5.636  10.884  0.00  0.00    +0.000 A 
BRANCH   3  11
ATOM     10  N   UNL     1      44.492   3.493   7.960  0.00  0.00    +0.000 N 
ATOM     11  C   UNL     1      45.168   4.356   8.775  0.00  0.00    +0.000 C 
ATOM     12  O   UNL     1      46.052   5.079   8.337  0.00  0.00    +0.000 OA
ATOM     13  H   UNL     1      44.719   3.541   6.975  0.00  0.00    +0.000 HD
ATOM     14  H   UNL     1      43.610   3.073   8.215  0.00  0.00    +0.000 HD
ENDBRANCH   3  11
ENDBRANCH   1   8
BRANCH   1  15
ATOM     15  C   UNL     1      46.044   7.552  13.006  0.00  0.00    +0.000 C 
BRANCH  15  16
ATOM     16  C   UNL     1      46.005   8.958  12.466  0.00  0.00    +0.000 A 
ATOM     17  C   UNL     1      47.167   9.704  12.296  0.00  0.00    +0.000 A 
ATOM     18  C   UNL     1      47.052  10.943  11.698  0.00  0.00    +0.000 A 
ATOM     19  N   UNL     1      45.885  11.468  11.263  0.00  0.00    +0.000 NA
ATOM     20  C   UNL     1      44.745  10.764  11.440  0.00  0.00    +0.000 A 
ATOM     21  N   UNL     1      43.579  11.236  10.886  0.00  0.00    +0.000 N 
ATOM     22  C   UNL     1      42.248  11.004  11.449  0.00  0.00    +0.000 C 
ATOM     23  C   UNL     1      41.257  10.789  10.293  0.00  0.00    +0.000 C 
ATOM     24  O   UNL     1      41.277  11.884   9.361  0.00  0.00    +0.000 OA
ATOM     25  C   UNL     1      42.601  12.071   8.825  0.00  0.00    +0.000 C 
ATOM     26  C   UNL     1      43.627  12.355   9.938  0.00  0.00    +0.000 C 
ATOM     27  C   UNL     1      44.788   9.519  12.065  0.00  0.00    +0.000 A 
ENDBRANCH  15  16
ENDBRANCH   1  15
TORSDOF 4
ENDMDL
MODEL 5
REMARK VINA RESULT:    -6.778      4.012      7.966
REMARK INTER + INTRA:          -8.953
REMARK INTER:                  -8.379
REMARK INTRA:                  -0.574
REMARK UNBOUND:                -0.590
REMARK  Name = 
REMARK  4 active torsions:
REMARK  status: ('A' for Active; 'I' for Inactive)
REMARK    1  A    between atoms: C_2  and  C_4
REMARK    2  A    between atoms: C_9  and  N_10
REMARK    3  A    between atoms: N_10  and  C_11
REMARK    4  A    between atoms: C_11  and  C_12
REMARK                            x       y       z     vdW  Elec       q    Type
REMARK                         _______ _______ _______ _____ _____    ______ ____
ROOT
ATOM      1  N   UNL     1      48.332   6.904  16.009  0.00  0.00    +0.000 N 
ATOM      2  H   UNL     1      47.509   7.480  16.171  0.00  0.00    +0.000 HD
ENDROOT
BRANCH   1   8
ATOM      3  C   UNL     1      49.209   3.581  17.511  0.00  0.00    +0.000 A 
ATOM      4  C   UNL     1      48.794   3.783  18.828  0.00  0.00    +0.000 A 
ATOM      5  C   UNL     1      48.216   5.000  19.164  0.00  0.00    +0.000 A 
ATOM      6  F   UNL     1      47.835   5.213  20.432  0.00  0.00    +0.000 F 
ATOM      7  C   UNL     1      48.037   6.008  18.220  0.00  0.00    +0.000 A 
ATOM      8  C   UNL     1      48.441   5.828  16.892  0.00  0.00    +0.000 A 
ATOM      9  C   UNL     1      49.056   4.609  16.565  0.00  0.00    +0.000 A 
BRANCH   3  11
ATOM     10  N   UNL     1      50.919   1.870  17.796  0.00  0.00    +0.000 N 
ATOM     11  C   UNL     1      49.847   2.314  17.074  0.00  0.00    +0.000 C 
ATOM     12  O   UNL     1      49.405   1.668  16.135  0.00  0.00    +0.000 OA
ATOM     13  H   UNL     1      51.271   0.953  17.551  0.00  0.00    +0.000 HD
ATOM     14  H   UNL     1      51.153   2.230  18.709  0.00  0.00    +0.000 HD
ENDBRANCH   3  11
ENDBRANCH   1   8
BRANCH   1  15
ATOM     15  C   UNL     1      48.649   6.715  14.603  0.00  0.00    +0.000 C 
BRANCH  15  16
ATOM     16  C   UNL     1      47.471   7.077  13.738  0.00  0.00    +0.000 A 
ATOM     17  C   UNL     1      47.373   8.323  13.126  0.00  0.00    +0.000 A 
ATOM     18  C   UNL     1      46.315   8.535  12.266  0.00  0.00    +0.000 A 
ATOM     19  N   UNL     1      45.377   7.606  11.977  0.00  0.00    +0.000 NA
ATOM     20  C   UNL     1      45.445   6.398  12.580  0.00  0.00    +0.000 A 
ATOM     21  N   UNL     1      44.570   5.411  12.194  0.00  0.00    +0.000 N 
ATOM     22  C   UNL     1      44.085   4.350  13.079  0.00  0.00    +0.000 C 
ATOM     23  C   UNL     1      43.974   3.048  12.268  0.00  0.00    +0.000 C 
ATOM     24  O   UNL     1      43.149   3.213  11.101  0.00  0.00    +0.000 OA
ATOM     25  C   UNL     1      43.666   4.258  10.256  0.00  0.00    +0.000 C 
ATOM     26  C   UNL     1      43.739   5.605  11.001  0.00  0.00    +0.000 C 
ATOM     27  C   UNL     1      46.473   6.130  13.483  0.00  0.00    +0.000 A 
ENDBRANCH  15  16
ENDBRANCH   1  15
TORSDOF 4
ENDMDL
MODEL 6
REMARK VINA RESULT:    -6.704      2.971      4.508
REMARK INTER + INTRA:          -8.862
REMARK INTER:                  -8.457
REMARK INTRA:                  -0.405
REMARK UNBOUND:                -0.590
REMARK  Name = 
REMARK  4 active torsions:
REMARK  status: ('A' for Active; 'I' for Inactive)
REMARK    1  A    between atoms: C_2  and  C_4
REMARK    2  A    between atoms: C_9  and  N_10
REMARK    3  A    between atoms: N_10  and  C_11
REMARK    4  A    between atoms: C_11  and  C_12
REMARK                            x       y       z     vdW  Elec       q    Type
REMARK                         _______ _______ _______ _____ _____    ______ ____
ROOT
ATOM      1  N   UNL     1      46.535   3.665  13.713  0.00  0.00    +0.000 N 
ATOM      2  H   UNL     1      46.530   2.726  14.105  0.00  0.00    +0.000 HD
ENDROOT
BRANCH   1   8
ATOM      3  C   UNL     1      44.402   3.486  10.634  0.00  0.00    +0.000 A 
ATOM      4  C   UNL     1      43.297   4.229  11.049  0.00  0.00    +0.000 A 
ATOM      5  C   UNL     1      43.309   4.784  12.321  0.00  0.00    +0.000 A 
ATOM      6  F   UNL     1      42.242   5.481  12.739  0.00  0.00    +0.000 F 
ATOM      7  C   UNL     1      44.395   4.622  13.178  0.00  0.00    +0.000 A 
ATOM      8  C   UNL     1      45.517   3.884  12.783  0.00  0.00    +0.000 A 
ATOM      9  C   UNL     1      45.486   3.296  11.508  0.00  0.00    +0.000 A 
BRANCH   3  11
ATOM     10  N   UNL     1      44.356   3.669   8.205  0.00  0.00    +0.000 N 
ATOM     11  C   UNL     1      44.462   2.850   9.294  0.00  0.00    +0.000 C 
ATOM     12  O   UNL     1      44.644   1.647   9.165  0.00  0.00    +0.000 OA
ATOM     13  H   UNL     1      44.507   3.233   7.304  0.00  0.00    +0.000 HD
ATOM     14  H   UNL     1      44.457   4.671   8.261  0.00  0.00    +0.000 HD
ENDBRANCH   3  11
ENDBRANCH   1   8
BRANCH   1  15
ATOM     15  C   UNL     1      46.865   4.702  14.676  0.00  0.00    +0.000 C 
BRANCH  15  16
ATOM     16  C   UNL     1      47.468   4.103  15.919  0.00  0.00    +0.000 A 
ATOM     17  C   UNL     1      48.097   2.863  15.898  0.00  0.00    +0.000 A 
ATOM     18  C   UNL     1      48.714   2.436  17.056  0.00  0.00    +0.000 A 
ATOM     19  N   UNL     1      48.750   3.151  18.202  0.00  0.00    +0.000 NA
ATOM     20  C   UNL     1      48.125   4.348  18.246  0.00  0.00    +0.000 A 
ATOM     21  N   UNL     1      48.267   5.133  19.366  0.00  0.00    +0.000 N 
ATOM     22  C   UNL     1      47.252   6.072  19.845  0.00  0.00    +0.000 C 
ATOM     23  C   UNL     1      47.961   7.323  20.393  0.00  0.00    +0.000 C 
ATOM     24  O   UNL     1      48.925   6.989  21.407  0.00  0.00    +0.000 OA
ATOM     25  C   UNL     1      49.908   6.071  20.891  0.00  0.00    +0.000 C 
ATOM     26  C   UNL     1      49.257   4.770  20.385  0.00  0.00    +0.000 C 
ATOM     27  C   UNL     1      47.456   4.824  17.119  0.00  0.00    +0.000 A 
ENDBRANCH  15  16
ENDBRANCH   1  15
TORSDOF 4
ENDMDL
MODEL 7
REMARK VINA RESULT:    -6.683      2.757      3.410
REMARK INTER + INTRA:          -8.836
REMARK INTER:                  -8.197
REMARK INTRA:                  -0.640
REMARK UNBOUND:                -0.590
REMARK  Name = 
REMARK  4 active torsions:
REMARK  status: ('A' for Active; 'I' for Inactive)
REMARK    1  A    between atoms: C_2  and  C_4
REMARK    2  A    between atoms: C_9  and  N_10
REMARK    3  A    between atoms: N_10  and  C_11
REMARK    4  A    between atoms: C_11  and  C_12
REMARK                            x       y       z     vdW  Elec       q    Type
REMARK                         _______ _______ _______ _____ _____    ______ ____
ROOT
ATOM      1  N   UNL     1      46.519   6.874  11.022  0.00  0.00    +0.000 N 
ATOM      2  H   UNL     1      47.469   6.932  10.663  0.00  0.00    +0.000 HD
ENDROOT
BRANCH   1   8
ATOM      3  C   UNL     1      44.396   3.785  11.138  0.00  0.00    +0.000 A 
ATOM      4  C   UNL     1      44.391   3.433   9.788  0.00  0.00    +0.000 A 
ATOM      5  C   UNL     1      45.110   4.213   8.894  0.00  0.00    +0.000 A 
ATOM      6  F   UNL     1      45.094   3.896   7.591  0.00  0.00    +0.000 F 
ATOM      7  C   UNL     1      45.836   5.324   9.315  0.00  0.00    +0.000 A 
ATOM      8  C   UNL     1      45.860   5.696  10.665  0.00  0.00    +0.000 A 
ATOM      9  C   UNL     1      45.103   4.924  11.560  0.00  0.00    +0.000 A 
BRANCH   3  11
ATOM     10  N   UNL     1      43.203   1.766  11.798  0.00  0.00    +0.000 N 
ATOM     11  C   UNL     1      43.642   3.010  12.155  0.00  0.00    +0.000 C 
ATOM     12  O   UNL     1      43.459   3.446  13.283  0.00  0.00    +0.000 OA
ATOM     13  H   UNL     1      42.787   1.212  12.535  0.00  0.00    +0.000 HD
ATOM     14  H   UNL     1      43.542   1.278  10.982  0.00  0.00    +0.000 HD
ENDBRANCH   3  11
ENDBRANCH   1   8
BRANCH   1  15
ATOM     15  C   UNL     1      46.364   7.405  12.366  0.00  0.00    +0.000 C 
BRANCH  15  16
ATOM     16  C   UNL     1      47.628   7.215  13.163  0.00  0.00    +0.000 A 
ATOM     17  C   UNL     1      48.815   7.848  12.807  0.00  0.00    +0.000 A 
ATOM     18  C   UNL     1      49.898   7.704  13.650  0.00  0.00    +0.000 A 
ATOM     19  N   UNL     1      49.872   6.995  14.800  0.00  0.00    +0.000 NA
ATOM     20  C   UNL     1      48.733   6.356  15.149  0.00  0.00    +0.000 A 
ATOM     21  N   UNL     1      48.665   5.741  16.377  0.00  0.00    +0.000 N 
ATOM     22  C   UNL     1      47.851   4.557  16.658  0.00  0.00    +0.000 C 
ATOM     23  C   UNL     1      47.264   4.691  18.074  0.00  0.00    +0.000 C 
ATOM     24  O   UNL     1      48.290   4.903  19.060  0.00  0.00    +0.000 OA
ATOM     25  C   UNL     1      49.058   6.080  18.749  0.00  0.00    +0.000 C 
ATOM     26  C   UNL     1      49.724   5.973  17.364  0.00  0.00    +0.000 C 
ATOM     27  C   UNL     1      47.611   6.436  14.325  0.00  0.00    +0.000 A 
ENDBRANCH  15  16
ENDBRANCH   1  15
TORSDOF 4
ENDMDL
MODEL 8
REMARK VINA RESULT:    -6.638      5.100      7.327
REMARK INTER + INTRA:          -8.780
REMARK INTER:                  -8.084
REMARK INTRA:                  -0.696
REMARK UNBOUND:                -0.590
REMARK  Name = 
REMARK  4 active torsions:
REMARK  status: ('A' for Active; 'I' for Inactive)
REMARK    1  A    between atoms: C_2  and  C_4
REMARK    2  A    between atoms: C_9  and  N_10
REMARK    3  A    between atoms: N_10  and  C_11
REMARK    4  A    between atoms: C_11  and  C_12
REMARK                            x       y       z     vdW  Elec       q    Type
REMARK                         _______ _______ _______ _____ _____    ______ ____
ROOT
ATOM      1  N   UNL     1      45.740  10.040  12.511  0.00  0.00    +0.000 N 
ATOM      2  H   UNL     1      45.742  10.634  13.337  0.00  0.00    +0.000 HD
ENDROOT
BRANCH   1   8
ATOM      3  C   UNL     1      42.716  10.862  10.452  0.00  0.00    +0.000 A 
ATOM      4  C   UNL     1      43.288  11.683   9.480  0.00  0.00    +0.000 A 
ATOM      5  C   UNL     1      44.656  11.914   9.526  0.00  0.00    +0.000 A 
ATOM      6  F   UNL     1      45.213  12.720   8.611  0.00  0.00    +0.000 F 
ATOM      7  C   UNL     1      45.461  11.339  10.508  0.00  0.00    +0.000 A 
ATOM      8  C   UNL     1      44.910  10.509  11.491  0.00  0.00    +0.000 A 
ATOM      9  C   UNL     1      43.522  10.306  11.460  0.00  0.00    +0.000 A 
BRANCH   3  11
ATOM     10  N   UNL     1      40.841   9.518  11.237  0.00  0.00    +0.000 N 
ATOM     11  C   UNL     1      41.259  10.576  10.479  0.00  0.00    +0.000 C 
ATOM     12  O   UNL     1      40.458  11.285   9.886  0.00  0.00    +0.000 OA
ATOM     13  H   UNL     1      39.840   9.405  11.329  0.00  0.00    +0.000 HD
ATOM     14  H   UNL     1      41.427   9.072  11.927  0.00  0.00    +0.000 HD
ENDBRANCH   3  11
ENDBRANCH   1   8
BRANCH   1  15
ATOM     15  C   UNL     1      47.043   9.486  12.181  0.00  0.00    +0.000 C 
BRANCH  15  16
ATOM     16  C   UNL     1      47.127   8.039  12.590  0.00  0.00    +0.000 A 
ATOM     17  C   UNL     1      47.882   7.636  13.687  0.00  0.00    +0.000 A 
ATOM     18  C   UNL     1      47.820   6.307  14.056  0.00  0.00    +0.000 A 
ATOM     19  N   UNL     1      47.066   5.381  13.423  0.00  0.00    +0.000 NA
ATOM     20  C   UNL     1      46.343   5.752  12.343  0.00  0.00    +0.000 A 
ATOM     21  N   UNL     1      45.480   4.845  11.776  0.00  0.00    +0.000 N 
ATOM     22  C   UNL     1      45.127   4.823  10.356  0.00  0.00    +0.000 C 
ATOM     23  C   UNL     1      43.640   4.451  10.226  0.00  0.00    +0.000 C 
ATOM     24  O   UNL     1      43.340   3.210  10.888  0.00  0.00    +0.000 OA
ATOM     25  C   UNL     1      43.693   3.279  12.282  0.00  0.00    +0.000 C 
ATOM     26  C   UNL     1      45.191   3.587  12.472  0.00  0.00    +0.000 C 
ATOM     27  C   UNL     1      46.386   7.074  11.900  0.00  0.00    +0.000 A 
ENDBRANCH  15  16
ENDBRANCH   1  15
TORSDOF 4
ENDMDL
MODEL 9
REMARK VINA RESULT:    -6.382      3.928      7.943
REMARK INTER + INTRA:          -8.464
REMARK INTER:                  -7.760
REMARK INTRA:                  -0.705
REMARK UNBOUND:                -0.590
REMARK  Name = 
REMARK  4 active torsions:
REMARK  status: ('A' for Active; 'I' for Inactive)
REMARK    1  A    between atoms: C_2  and  C_4
REMARK    2  A    between atoms: C_9  and  N_10
REMARK    3  A    between atoms: N_10  and  C_11
REMARK    4  A    between atoms: C_11  and  C_12
REMARK                            x       y       z     vdW  Elec       q    Type
REMARK                         _______ _______ _______ _____ _____    ______ ____
ROOT
ATOM      1  N   UNL     1      49.454   7.951  14.647  0.00  0.00    +0.000 N 
ATOM      2  H   UNL     1      48.955   8.793  14.924  0.00  0.00    +0.000 HD
ENDROOT
BRANCH   1   8
ATOM      3  C   UNL     1      48.514   5.306  17.133  0.00  0.00    +0.000 A 
ATOM      4  C   UNL     1      49.779   4.890  17.549  0.00  0.00    +0.000 A 
ATOM      5  C   UNL     1      50.895   5.517  17.012  0.00  0.00    +0.000 A 
ATOM      6  F   UNL     1      52.116   5.109  17.387  0.00  0.00    +0.000 F 
ATOM      7  C   UNL     1      50.777   6.548  16.083  0.00  0.00    +0.000 A 
ATOM      8  C   UNL     1      49.518   6.985  15.653  0.00  0.00    +0.000 A 
ATOM      9  C   UNL     1      48.394   6.325  16.173  0.00  0.00    +0.000 A 
BRANCH   3  11
ATOM     10  N   UNL     1      46.619   5.320  18.664  0.00  0.00    +0.000 N 
ATOM     11  C   UNL     1      47.272   4.678  17.649  0.00  0.00    +0.000 C 
ATOM     12  O   UNL     1      46.823   3.652  17.158  0.00  0.00    +0.000 OA
ATOM     13  H   UNL     1      45.721   4.936  18.928  0.00  0.00    +0.000 HD
ATOM     14  H   UNL     1      46.812   6.277  18.922  0.00  0.00    +0.000 HD
ENDBRANCH   3  11
ENDBRANCH   1   8
BRANCH   1  15
ATOM     15  C   UNL     1      49.203   7.544  13.274  0.00  0.00    +0.000 C 
BRANCH  15  16
ATOM     16  C   UNL     1      47.748   7.717  12.925  0.00  0.00    +0.000 A 
ATOM     17  C   UNL     1      47.210   8.970  12.650  0.00  0.00    +0.000 A 
ATOM     18  C   UNL     1      45.895   9.028  12.236  0.00  0.00    +0.000 A 
ATOM     19  N   UNL     1      45.104   7.944  12.075  0.00  0.00    +0.000 NA
ATOM     20  C   UNL     1      45.605   6.721  12.358  0.00  0.00    +0.000 A 
ATOM     21  N   UNL     1      44.848   5.609  12.074  0.00  0.00    +0.000 N 
ATOM     22  C   UNL     1      44.916   4.355  12.826  0.00  0.00    +0.000 C 
ATOM     23  C   UNL     1      44.766   3.184  11.840  0.00  0.00    +0.000 C 
ATOM     24  O   UNL     1      43.563   3.294  11.059  0.00  0.00    +0.000 OA
ATOM     25  C   UNL     1      43.542   4.536  10.330  0.00  0.00    +0.000 C 
ATOM     26  C   UNL     1      43.625   5.749  11.276  0.00  0.00    +0.000 C 
ATOM     27  C   UNL     1      46.918   6.596  12.810  0.00  0.00    +0.000 A 
ENDBRANCH  15  16
ENDBRANCH   1  15
TORSDOF 4
ENDMDL
