MODEL 1
REMARK VINA RESULT:    -7.632      0.000      0.000
REMARK INTER + INTRA:         -11.422
REMARK INTER:                 -10.308
REMARK INTRA:                  -1.114
REMARK UNBOUND:                -1.114
REMARK  Name = 
REMARK  6 active torsions:
REMARK  status: ('A' for Active; 'I' for Inactive)
REMARK    1  A    between atoms: C_2  and  C_25
REMARK    2  A    between atoms: N_3  and  C_4
REMARK    3  A    between atoms: C_4  and  C_5
REMARK    4  A    between atoms: C_8  and  C_9
REMARK    5  A    between atoms: C_9  and  N_10
REMARK    6  A    between atoms: C_11  and  C_13
REMARK                            x       y       z     vdW  Elec       q    Type
REMARK                         _______ _______ _______ _____ _____    ______ ____
ROOT
ATOM      1  C   UNL     1      50.258   7.268  15.421  0.00  0.00    +0.000 A 
ATOM      2  C   UNL     1      50.683   7.983  14.293  0.00  0.00    +0.000 A 
ATOM      3  C   UNL     1      49.834   8.148  13.192  0.00  0.00    +0.000 A 
ATOM      4  C   UNL     1      48.536   7.622  13.209  0.00  0.00    +0.000 A 
ATOM      5  C   UNL     1      48.112   6.910  14.338  0.00  0.00    +0.000 A 
ATOM      6  C   UNL     1      48.959   6.744  15.437  0.00  0.00    +0.000 A 
ENDROOT
BRANCH   1   7
ATOM      7  C   UNL     1      51.173   7.084  16.603  0.00  0.00    +0.000 C 
BRANCH   7  10
ATOM      8  O   UNL     1      50.176   5.239  18.431  0.00  0.00    +0.000 OA
ATOM      9  C   UNL     1      51.028   4.864  17.632  0.00  0.00    +0.000 C 
ATOM     10  N   UNL     1      51.617   5.714  16.724  0.00  0.00    +0.000 N 
ATOM     11  H   UNL     1      52.276   5.370  16.036  0.00  0.00    +0.000 HD
BRANCH   9  12
ATOM     12  C   UNL     1      51.486   3.451  17.667  0.00  0.00    +0.000 A 
ATOM     13  C   UNL     1      52.786   3.208  18.138  0.00  0.00    +0.000 A 
ATOM     14  C   UNL     1      53.277   1.905  18.203  0.00  0.00    +0.000 A 
ATOM     15  C   UNL     1      52.448   0.874  17.800  0.00  0.00    +0.000 A 
ATOM     16  N   UNL     1      51.189   1.064  17.352  0.00  0.00    +0.000 NA
ATOM     17  C   UNL     1      50.735   2.341  17.302  0.00  0.00    +0.000 A 
ATOM     18 CL   UNL     1      49.095   2.400  16.773  0.00  0.00    +0.000 Cl
ENDBRANCH   9  12
ENDBRANCH   7  10
ENDBRANCH   1   7
BRANCH   4  19
ATOM     19  C   UNL     1      47.622   7.775  12.019  0.00  0.00    +0.000 C 
BRANCH  19  20
ATOM     20  N   UNL     1      46.925   6.546  11.734  0.00  0.00    +0.000 N 
ATOM     21  C   UNL     1      45.567   6.443  11.903  0.00  0.00    +0.000 C 
ATOM     22  O   UNL     1      44.883   7.401  12.254  0.00  0.00    +0.000 OA
ATOM     23  H   UNL     1      47.486   5.703  11.665  0.00  0.00    +0.000 HD
BRANCH  21  24
ATOM     24  C   UNL     1      44.959   5.146  11.585  0.00  0.00    +0.000 A 
ATOM     25  C   UNL     1      44.232   4.470  12.558  0.00  0.00    +0.000 A 
ATOM     26  S   UNL     1      43.548   3.007  12.011  0.00  0.00    +0.000 S 
ATOM     27  C   UNL     1      44.240   3.197  10.469  0.00  0.00    +0.000 A 
ATOM     28  N   UNL     1      44.060   2.257   9.502  0.00  0.00    +0.000 NA
ATOM     29  C   UNL     1      44.668   2.510   8.391  0.00  0.00    +0.000 A 
ATOM     30  N   UNL     1      45.435   3.621   8.158  0.00  0.00    +0.000 N 
ATOM     31  C   UNL     1      45.625   4.609   9.096  0.00  0.00    +0.000 A 
ATOM     32  O   UNL     1      46.291   5.608   8.843  0.00  0.00    +0.000 OA
ATOM     33  C   UNL     1      44.971   4.368  10.367  0.00  0.00    +0.000 A 
ATOM     34  H   UNL     1      45.881   3.764   7.264  0.00  0.00    +0.000 HD
ENDBRANCH  21  24
ENDBRANCH  19  20
ENDBRANCH   4  19
TORSDOF 6
ENDMDL
MODEL 2
REMARK VINA RESULT:    -7.377      1.315      1.962
REMARK INTER + INTRA:         -11.078
REMARK INTER:                 -10.072
REMARK INTRA:                  -1.006
REMARK UNBOUND:                -1.114
REMARK  Name = 
REMARK  6 active torsions:
REMARK  status: ('A' for Active; 'I' for Inactive)
REMARK    1  A    between atoms: C_2  and  C_25
REMARK    2  A    between atoms: N_3  and  C_4
REMARK    3  A    between atoms: C_4  and  C_5
REMARK    4  A    between atoms: C_8  and  C_9
REMARK    5  A    between atoms: C_9  and  N_10
REMARK    6  A    between atoms: C_11  and  C_13
REMARK                            x       y       z     vdW  Elec       q    Type
REMARK                         _______ _______ _______ _____ _____    ______ ____
ROOT
ATOM      1  C   UNL     1      50.074   7.237  15.693  0.00  0.00    +0.000 A 
ATOM      2  C   UNL     1      50.720   8.107  14.804  0.00  0.00    +0.000 A 
ATOM      3  C   UNL     1      50.153   8.405  13.560  0.00  0.00    +0.000 A 
ATOM      4  C   UNL     1      48.918   7.858  13.190  0.00  0.00    +0.000 A 
ATOM      5  C   UNL     1      48.272   6.990  14.080  0.00  0.00    +0.000 A 
ATOM      6  C   UNL     1      48.838   6.692  15.323  0.00  0.00    +0.000 A 
ENDROOT
BRANCH   1   7
ATOM      7  C   UNL     1      50.686   6.910  17.029  0.00  0.00    +0.000 C 
BRANCH   7  10
ATOM      8  O   UNL     1      49.894   4.813  18.677  0.00  0.00    +0.000 OA
ATOM      9  C   UNL     1      50.784   4.605  17.858  0.00  0.00    +0.000 C 
ATOM     10  N   UNL     1      51.278   5.592  17.035  0.00  0.00    +0.000 N 
ATOM     11  H   UNL     1      51.972   5.384  16.327  0.00  0.00    +0.000 HD
BRANCH   9  12
ATOM     12  C   UNL     1      51.396   3.253  17.775  0.00  0.00    +0.000 A 
ATOM     13  C   UNL     1      52.686   3.097  18.303  0.00  0.00    +0.000 A 
ATOM     14  C   UNL     1      53.317   1.855  18.263  0.00  0.00    +0.000 A 
ATOM     15  C   UNL     1      52.631   0.793  17.699  0.00  0.00    +0.000 A 
ATOM     16  N   UNL     1      51.386   0.898  17.191  0.00  0.00    +0.000 NA
ATOM     17  C   UNL     1      50.794   2.119  17.245  0.00  0.00    +0.000 A 
ATOM     18 CL   UNL     1      49.190   2.063  16.617  0.00  0.00    +0.000 Cl
ENDBRANCH   9  12
ENDBRANCH   7  10
ENDBRANCH   1   7
BRANCH   4  19
ATOM     19  C   UNL     1      48.310   8.155  11.842  0.00  0.00    +0.000 C 
BRANCH  19  20
ATOM     20  N   UNL     1      47.612   7.008  11.320  0.00  0.00    +0.000 N 
ATOM     21  C   UNL     1      46.241   6.962  11.291  0.00  0.00    +0.000 C 
ATOM     22  O   UNL     1      45.553   7.910  11.660  0.00  0.00    +0.000 OA
ATOM     23  H   UNL     1      48.143   6.148  11.224  0.00  0.00    +0.000 HD
BRANCH  21  24
ATOM     24  C   UNL     1      45.632   5.745  10.739  0.00  0.00    +0.000 A 
ATOM     25  C   UNL     1      45.783   5.453   9.389  0.00  0.00    +0.000 A 
ATOM     26  S   UNL     1      45.063   3.979   8.921  0.00  0.00    +0.000 S 
ATOM     27  C   UNL     1      44.479   3.704  10.494  0.00  0.00    +0.000 A 
ATOM     28  N   UNL     1      43.739   2.599  10.780  0.00  0.00    +0.000 NA
ATOM     29  C   UNL     1      43.331   2.530  12.004  0.00  0.00    +0.000 A 
ATOM     30  N   UNL     1      43.602   3.466  12.969  0.00  0.00    +0.000 N 
ATOM     31  C   UNL     1      44.366   4.584  12.733  0.00  0.00    +0.000 A 
ATOM     32  O   UNL     1      44.618   5.384  13.628  0.00  0.00    +0.000 OA
ATOM     33  C   UNL     1      44.841   4.714  11.369  0.00  0.00    +0.000 A 
ATOM     34  H   UNL     1      43.259   3.351  13.910  0.00  0.00    +0.000 HD
ENDBRANCH  21  24
ENDBRANCH  19  20
ENDBRANCH   4  19
TORSDOF 6
ENDMDL
MODEL 3
REMARK VINA RESULT:    -7.008      3.191      9.501
REMARK INTER + INTRA:         -10.579
REMARK INTER:                  -9.663
REMARK INTRA:                  -0.916
REMARK UNBOUND:                -1.114
REMARK  Name = 
REMARK  6 active torsions:
REMARK  status: ('A' for Active; 'I' for Inactive)
REMARK    1  A    between atoms: C_2  and  C_25
REMARK    2  A    between atoms: N_3  and  C_4
REMARK    3  A    between atoms: C_4  and  C_5
REMARK    4  A    between atoms: C_8  and  C_9
REMARK    5  A    between atoms: C_9  and  N_10
REMARK    6  A    between atoms: C_11  and  C_13
REMARK                            x       y       z     vdW  Elec       q    Type
REMARK                         _______ _______ _______ _____ _____    ______ ____
ROOT
ATOM      1  C   UNL     1      47.495   5.810  14.308  0.00  0.00    +0.000 A 
ATOM      2  C   UNL     1      46.908   4.559  14.541  0.00  0.00    +0.000 A 
ATOM      3  C   UNL     1      47.155   3.866  15.732  0.00  0.00    +0.000 A 
ATOM      4  C   UNL     1      47.976   4.421  16.722  0.00  0.00    +0.000 A 
ATOM      5  C   UNL     1      48.561   5.672  16.489  0.00  0.00    +0.000 A 
ATOM      6  C   UNL     1      48.314   6.365  15.300  0.00  0.00    +0.000 A 
ENDROOT
BRANCH   1   7
ATOM      7  C   UNL     1      47.234   6.554  13.025  0.00  0.00    +0.000 C 
BRANCH   7  10
ATOM      8  O   UNL     1      44.640   6.345  12.040  0.00  0.00    +0.000 OA
ATOM      9  C   UNL     1      45.517   5.664  11.519  0.00  0.00    +0.000 C 
ATOM     10  N   UNL     1      46.818   5.660  11.968  0.00  0.00    +0.000 N 
ATOM     11  H   UNL     1      47.536   5.134  11.487  0.00  0.00    +0.000 HD
BRANCH   9  12
ATOM     12  C   UNL     1      45.164   4.765  10.389  0.00  0.00    +0.000 A 
ATOM     13  C   UNL     1      45.758   5.030   9.146  0.00  0.00    +0.000 A 
ATOM     14  C   UNL     1      45.476   4.224   8.045  0.00  0.00    +0.000 A 
ATOM     15  C   UNL     1      44.606   3.161   8.221  0.00  0.00    +0.000 A 
ATOM     16  N   UNL     1      44.023   2.866   9.401  0.00  0.00    +0.000 NA
ATOM     17  C   UNL     1      44.318   3.666  10.457  0.00  0.00    +0.000 A 
ATOM     18 CL   UNL     1      43.545   3.112  11.894  0.00  0.00    +0.000 Cl
ENDBRANCH   9  12
ENDBRANCH   7  10
ENDBRANCH   1   7
BRANCH   4  19
ATOM     19  C   UNL     1      48.267   3.671  17.997  0.00  0.00    +0.000 C 
BRANCH  19  20
ATOM     20  N   UNL     1      49.671   3.370  18.118  0.00  0.00    +0.000 N 
ATOM     21  C   UNL     1      50.254   2.383  17.363  0.00  0.00    +0.000 C 
ATOM     22  O   UNL     1      49.621   1.751  16.522  0.00  0.00    +0.000 OA
ATOM     23  H   UNL     1      50.148   3.715  18.945  0.00  0.00    +0.000 HD
BRANCH  21  24
ATOM     24  C   UNL     1      51.691   2.159  17.566  0.00  0.00    +0.000 A 
ATOM     25  C   UNL     1      52.177   0.861  17.659  0.00  0.00    +0.000 A 
ATOM     26  S   UNL     1      53.871   0.774  17.839  0.00  0.00    +0.000 S 
ATOM     27  C   UNL     1      54.010   2.469  17.852  0.00  0.00    +0.000 A 
ATOM     28  N   UNL     1      55.222   3.069  18.004  0.00  0.00    +0.000 NA
ATOM     29  C   UNL     1      55.180   4.359  18.030  0.00  0.00    +0.000 A 
ATOM     30  N   UNL     1      54.036   5.104  17.912  0.00  0.00    +0.000 N 
ATOM     31  C   UNL     1      52.794   4.543  17.731  0.00  0.00    +0.000 A 
ATOM     32  O   UNL     1      51.793   5.241  17.595  0.00  0.00    +0.000 OA
ATOM     33  C   UNL     1      52.784   3.093  17.705  0.00  0.00    +0.000 A 
ATOM     34  H   UNL     1      54.070   6.112  17.934  0.00  0.00    +0.000 HD
ENDBRANCH  21  24
ENDBRANCH  19  20
ENDBRANCH   4  19
TORSDOF 6
ENDMDL
MODEL 4
REMARK VINA RESULT:    -6.823      2.944      8.911
REMARK INTER + INTRA:         -10.330
REMARK INTER:                  -9.192
REMARK INTRA:                  -1.138
REMARK UNBOUND:                -1.114
REMARK  Name = 
REMARK  6 active torsions:
REMARK  status: ('A' for Active; 'I' for Inactive)
REMARK    1  A    between atoms: C_2  and  C_25
REMARK    2  A    between atoms: N_3  and  C_4
REMARK    3  A    between atoms: C_4  and  C_5
REMARK    4  A    between atoms: C_8  and  C_9
REMARK    5  A    between atoms: C_9  and  N_10
REMARK    6  A    between atoms: C_11  and  C_13
REMARK                            x       y       z     vdW  Elec       q    Type
REMARK                         _______ _______ _______ _____ _____    ______ ____
ROOT
ATOM      1  C   UNL     1      47.672   7.767  13.265  0.00  0.00    +0.000 A 
ATOM      2  C   UNL     1      47.814   8.919  14.050  0.00  0.00    +0.000 A 
ATOM      3  C   UNL     1      48.305   8.837  15.357  0.00  0.00    +0.000 A 
ATOM      4  C   UNL     1      48.687   7.602  15.898  0.00  0.00    +0.000 A 
ATOM      5  C   UNL     1      48.547   6.451  15.112  0.00  0.00    +0.000 A 
ATOM      6  C   UNL     1      48.056   6.533  13.806  0.00  0.00    +0.000 A 
ENDROOT
BRANCH   1   7
ATOM      7  C   UNL     1      47.138   7.855  11.860  0.00  0.00    +0.000 C 
BRANCH   7  10
ATOM      8  O   UNL     1      44.486   7.173  11.362  0.00  0.00    +0.000 OA
ATOM      9  C   UNL     1      45.356   6.342  11.121  0.00  0.00    +0.000 C 
ATOM     10  N   UNL     1      46.688   6.567  11.381  0.00  0.00    +0.000 N 
ATOM     11  H   UNL     1      47.395   5.889  11.121  0.00  0.00    +0.000 HD
BRANCH   9  12
ATOM     12  C   UNL     1      44.964   5.017  10.573  0.00  0.00    +0.000 A 
ATOM     13  C   UNL     1      45.404   4.701   9.279  0.00  0.00    +0.000 A 
ATOM     14  C   UNL     1      45.076   3.473   8.706  0.00  0.00    +0.000 A 
ATOM     15  C   UNL     1      44.319   2.586   9.452  0.00  0.00    +0.000 A 
ATOM     16  N   UNL     1      43.886   2.847  10.702  0.00  0.00    +0.000 NA
ATOM     17  C   UNL     1      44.222   4.049  11.237  0.00  0.00    +0.000 A 
ATOM     18 CL   UNL     1      43.649   4.193  12.857  0.00  0.00    +0.000 Cl
ENDBRANCH   9  12
ENDBRANCH   7  10
ENDBRANCH   1   7
BRANCH   4  19
ATOM     19  C   UNL     1      49.196   7.499  17.313  0.00  0.00    +0.000 C 
BRANCH  19  20
ATOM     20  N   UNL     1      50.160   6.436  17.446  0.00  0.00    +0.000 N 
ATOM     21  C   UNL     1      50.519   5.952  18.678  0.00  0.00    +0.000 C 
ATOM     22  O   UNL     1      50.003   6.365  19.713  0.00  0.00    +0.000 OA
ATOM     23  H   UNL     1      50.749   6.245  16.642  0.00  0.00    +0.000 HD
BRANCH  21  24
ATOM     24  C   UNL     1      51.511   4.870  18.699  0.00  0.00    +0.000 A 
ATOM     25  C   UNL     1      52.729   5.065  19.339  0.00  0.00    +0.000 A 
ATOM     26  S   UNL     1      53.743   3.694  19.318  0.00  0.00    +0.000 S 
ATOM     27  C   UNL     1      52.614   2.806  18.408  0.00  0.00    +0.000 A 
ATOM     28  N   UNL     1      52.879   1.530  18.020  0.00  0.00    +0.000 NA
ATOM     29  C   UNL     1      51.951   0.984  17.307  0.00  0.00    +0.000 A 
ATOM     30  N   UNL     1      50.779   1.599  16.951  0.00  0.00    +0.000 N 
ATOM     31  C   UNL     1      50.456   2.877  17.340  0.00  0.00    +0.000 A 
ATOM     32  O   UNL     1      49.383   3.386  17.033  0.00  0.00    +0.000 OA
ATOM     33  C   UNL     1      51.471   3.540  18.137  0.00  0.00    +0.000 A 
ATOM     34  H   UNL     1      50.089   1.116  16.395  0.00  0.00    +0.000 HD
ENDBRANCH  21  24
ENDBRANCH  19  20
ENDBRANCH   4  19
TORSDOF 6
ENDMDL
MODEL 5
REMARK VINA RESULT:    -6.705      3.694      8.921
REMARK INTER + INTRA:         -10.171
REMARK INTER:                  -9.215
REMARK INTRA:                  -0.956
REMARK UNBOUND:                -1.114
REMARK  Name = 
REMARK  6 active torsions:
REMARK  status: ('A' for Active; 'I' for Inactive)
REMARK    1  A    between atoms: C_2  and  C_25
REMARK    2  A    between atoms: N_3  and  C_4
REMARK    3  A    between atoms: C_4  and  C_5
REMARK    4  A    between atoms: C_8  and  C_9
REMARK    5  A    between atoms: C_9  and  N_10
REMARK    6  A    between atoms: C_11  and  C_13
REMARK                            x       y       z     vdW  Elec       q    Type
REMARK                         _______ _______ _______ _____ _____    ______ ____
ROOT
ATOM      1  C   UNL     1      45.732   7.063  11.590  0.00  0.00    +0.000 A 
ATOM      2  C   UNL     1      45.527   8.408  11.927  0.00  0.00    +0.000 A 
ATOM      3  C   UNL     1      46.304   9.021  12.917  0.00  0.00    +0.000 A 
ATOM      4  C   UNL     1      47.316   8.308  13.572  0.00  0.00    +0.000 A 
ATOM      5  C   UNL     1      47.521   6.964  13.233  0.00  0.00    +0.000 A 
ATOM      6  C   UNL     1      46.745   6.351  12.244  0.00  0.00    +0.000 A 
ENDROOT
BRANCH   1   7
ATOM      7  C   UNL     1      44.893   6.401  10.529  0.00  0.00    +0.000 C 
BRANCH   7  10
ATOM      8  O   UNL     1      43.761   4.434   8.918  0.00  0.00    +0.000 OA
ATOM      9  C   UNL     1      44.983   4.471   9.019  0.00  0.00    +0.000 C 
ATOM     10  N   UNL     1      45.632   5.374   9.830  0.00  0.00    +0.000 N 
ATOM     11  H   UNL     1      46.644   5.424   9.854  0.00  0.00    +0.000 HD
BRANCH   9  12
ATOM     12  C   UNL     1      45.804   3.477   8.280  0.00  0.00    +0.000 A 
ATOM     13  C   UNL     1      46.815   3.973   7.442  0.00  0.00    +0.000 A 
ATOM     14  C   UNL     1      47.626   3.096   6.725  0.00  0.00    +0.000 A 
ATOM     15  C   UNL     1      47.407   1.737   6.871  0.00  0.00    +0.000 A 
ATOM     16  N   UNL     1      46.454   1.220   7.674  0.00  0.00    +0.000 NA
ATOM     17  C   UNL     1      45.681   2.096   8.363  0.00  0.00    +0.000 A 
ATOM     18 CL   UNL     1      44.565   1.273   9.386  0.00  0.00    +0.000 Cl
ENDBRANCH   9  12
ENDBRANCH   7  10
ENDBRANCH   1   7
BRANCH   4  19
ATOM     19  C   UNL     1      48.141   8.953  14.656  0.00  0.00    +0.000 C 
BRANCH  19  20
ATOM     20  N   UNL     1      48.081   8.195  15.880  0.00  0.00    +0.000 N 
ATOM     21  C   UNL     1      48.883   8.505  16.949  0.00  0.00    +0.000 C 
ATOM     22  O   UNL     1      49.648   9.466  16.928  0.00  0.00    +0.000 OA
ATOM     23  H   UNL     1      47.634   7.284  15.837  0.00  0.00    +0.000 HD
BRANCH  21  24
ATOM     24  C   UNL     1      48.741   7.667  18.146  0.00  0.00    +0.000 A 
ATOM     25  C   UNL     1      48.584   8.266  19.390  0.00  0.00    +0.000 A 
ATOM     26  S   UNL     1      48.378   7.154  20.666  0.00  0.00    +0.000 S 
ATOM     27  C   UNL     1      48.544   5.831  19.612  0.00  0.00    +0.000 A 
ATOM     28  N   UNL     1      48.490   4.554  20.079  0.00  0.00    +0.000 NA
ATOM     29  C   UNL     1      48.664   3.647  19.177  0.00  0.00    +0.000 A 
ATOM     30  N   UNL     1      48.880   3.901  17.848  0.00  0.00    +0.000 N 
ATOM     31  C   UNL     1      48.917   5.172  17.326  0.00  0.00    +0.000 A 
ATOM     32  O   UNL     1      49.079   5.363  16.125  0.00  0.00    +0.000 OA
ATOM     33  C   UNL     1      48.737   6.231  18.301  0.00  0.00    +0.000 A 
ATOM     34  H   UNL     1      49.004   3.146  17.190  0.00  0.00    +0.000 HD
ENDBRANCH  21  24
ENDBRANCH  19  20
ENDBRANCH   4  19
TORSDOF 6
ENDMDL
MODEL 6
REMARK VINA RESULT:    -6.547      6.150     10.415
REMARK INTER + INTRA:          -9.957
REMARK INTER:                  -8.976
REMARK INTRA:                  -0.981
REMARK UNBOUND:                -1.114
REMARK  Name = 
REMARK  6 active torsions:
REMARK  status: ('A' for Active; 'I' for Inactive)
REMARK    1  A    between atoms: C_2  and  C_25
REMARK    2  A    between atoms: N_3  and  C_4
REMARK    3  A    between atoms: C_4  and  C_5
REMARK    4  A    between atoms: C_8  and  C_9
REMARK    5  A    between atoms: C_9  and  N_10
REMARK    6  A    between atoms: C_11  and  C_13
REMARK                            x       y       z     vdW  Elec       q    Type
REMARK                         _______ _______ _______ _____ _____    ______ ____
ROOT
ATOM      1  C   UNL     1      43.877  11.774   9.410  0.00  0.00    +0.000 A 
ATOM      2  C   UNL     1      45.083  12.023  10.078  0.00  0.00    +0.000 A 
ATOM      3  C   UNL     1      45.538  11.154  11.076  0.00  0.00    +0.000 A 
ATOM      4  C   UNL     1      44.807  10.006  11.409  0.00  0.00    +0.000 A 
ATOM      5  C   UNL     1      43.602   9.757  10.739  0.00  0.00    +0.000 A 
ATOM      6  C   UNL     1      43.147  10.625   9.742  0.00  0.00    +0.000 A 
ENDROOT
BRANCH   1   7
ATOM      7  C   UNL     1      43.383  12.712   8.341  0.00  0.00    +0.000 C 
BRANCH   7  10
ATOM      8  O   UNL     1      43.577  10.942   6.202  0.00  0.00    +0.000 OA
ATOM      9  C   UNL     1      44.317  11.921   6.216  0.00  0.00    +0.000 C 
ATOM     10  N   UNL     1      44.330  12.825   7.254  0.00  0.00    +0.000 N 
ATOM     11  H   UNL     1      44.907  13.656   7.217  0.00  0.00    +0.000 HD
BRANCH   9  12
ATOM     12  C   UNL     1      45.275  12.124   5.099  0.00  0.00    +0.000 A 
ATOM     13  C   UNL     1      44.744  12.197   3.801  0.00  0.00    +0.000 A 
ATOM     14  C   UNL     1      45.586  12.392   2.708  0.00  0.00    +0.000 A 
ATOM     15  C   UNL     1      46.944  12.517   2.944  0.00  0.00    +0.000 A 
ATOM     16  N   UNL     1      47.493  12.464   4.175  0.00  0.00    +0.000 NA
ATOM     17  C   UNL     1      46.650  12.277   5.222  0.00  0.00    +0.000 A 
ATOM     18 CL   UNL     1      47.501  12.301   6.721  0.00  0.00    +0.000 Cl
ENDBRANCH   9  12
ENDBRANCH   7  10
ENDBRANCH   1   7
BRANCH   4  19
ATOM     19  C   UNL     1      45.277   9.076  12.498  0.00  0.00    +0.000 C 
BRANCH  19  20
ATOM     20  N   UNL     1      44.783   7.738  12.293  0.00  0.00    +0.000 N 
ATOM     21  C   UNL     1      45.626   6.714  11.942  0.00  0.00    +0.000 C 
ATOM     22  O   UNL     1      46.838   6.880  11.838  0.00  0.00    +0.000 OA
ATOM     23  H   UNL     1      43.782   7.632  12.154  0.00  0.00    +0.000 HD
BRANCH  21  24
ATOM     24  C   UNL     1      45.017   5.391  11.756  0.00  0.00    +0.000 A 
ATOM     25  C   UNL     1      44.362   4.781  12.819  0.00  0.00    +0.000 A 
ATOM     26  S   UNL     1      43.665   3.276  12.422  0.00  0.00    +0.000 S 
ATOM     27  C   UNL     1      44.257   3.361  10.830  0.00  0.00    +0.000 A 
ATOM     28  N   UNL     1      44.030   2.352   9.946  0.00  0.00    +0.000 NA
ATOM     29  C   UNL     1      44.564   2.530   8.783  0.00  0.00    +0.000 A 
ATOM     30  N   UNL     1      45.300   3.629   8.424  0.00  0.00    +0.000 N 
ATOM     31  C   UNL     1      45.534   4.683   9.275  0.00  0.00    +0.000 A 
ATOM     32  O   UNL     1      46.169   5.668   8.910  0.00  0.00    +0.000 OA
ATOM     33  C   UNL     1      44.964   4.528  10.599  0.00  0.00    +0.000 A 
ATOM     34  H   UNL     1      45.687   3.711   7.496  0.00  0.00    +0.000 HD
ENDBRANCH  21  24
ENDBRANCH  19  20
ENDBRANCH   4  19
TORSDOF 6
ENDMDL
MODEL 7
REMARK VINA RESULT:    -6.476      5.658      8.686
REMARK INTER + INTRA:          -9.861
REMARK INTER:                  -8.800
REMARK INTRA:                  -1.061
REMARK UNBOUND:                -1.114
REMARK  Name = 
REMARK  6 active torsions:
REMARK  status: ('A' for Active; 'I' for Inactive)
REMARK    1  A    between atoms: C_2  and  C_25
REMARK    2  A    between atoms: N_3  and  C_4
REMARK    3  A    between atoms: C_4  and  C_5
REMARK    4  A    between atoms: C_8  and  C_9
REMARK    5  A    between atoms: C_9  and  N_10
REMARK    6  A    between atoms: C_11  and  C_13
REMARK                            x       y       z     vdW  Elec       q    Type
REMARK                         _______ _______ _______ _____ _____    ______ ____
ROOT
ATOM      1  C   UNL     1      47.735   8.534  12.383  0.00  0.00    +0.000 A 
ATOM      2  C   UNL     1      48.226   9.846  12.355  0.00  0.00    +0.000 A 
ATOM      3  C   UNL     1      49.541  10.108  11.954  0.00  0.00    +0.000 A 
ATOM      4  C   UNL     1      50.383   9.064  11.551  0.00  0.00    +0.000 A 
ATOM      5  C   UNL     1      49.891   7.753  11.578  0.00  0.00    +0.000 A 
ATOM      6  C   UNL     1      48.578   7.491  11.979  0.00  0.00    +0.000 A 
ENDROOT
BRANCH   1   7
ATOM      7  C   UNL     1      46.322   8.252  12.821  0.00  0.00    +0.000 C 
BRANCH   7  10
ATOM      8  O   UNL     1      44.272   7.720  11.016  0.00  0.00    +0.000 OA
ATOM      9  C   UNL     1      44.898   6.772  11.481  0.00  0.00    +0.000 C 
ATOM     10  N   UNL     1      45.894   6.931  12.417  0.00  0.00    +0.000 N 
ATOM     11  H   UNL     1      46.436   6.141  12.744  0.00  0.00    +0.000 HD
BRANCH   9  12
ATOM     12  C   UNL     1      44.544   5.391  11.063  0.00  0.00    +0.000 A 
ATOM     13  C   UNL     1      45.191   4.876   9.929  0.00  0.00    +0.000 A 
ATOM     14  C   UNL     1      44.910   3.586   9.485  0.00  0.00    +0.000 A 
ATOM     15  C   UNL     1      43.989   2.836  10.197  0.00  0.00    +0.000 A 
ATOM     16  N   UNL     1      43.354   3.290  11.297  0.00  0.00    +0.000 NA
ATOM     17  C   UNL     1      43.649   4.549  11.710  0.00  0.00    +0.000 A 
ATOM     18 CL   UNL     1      42.806   4.944  13.160  0.00  0.00    +0.000 Cl
ENDBRANCH   9  12
ENDBRANCH   7  10
ENDBRANCH   1   7
BRANCH   4  19
ATOM     19  C   UNL     1      51.809   9.333  11.140  0.00  0.00    +0.000 C 
BRANCH  19  20
ATOM     20  N   UNL     1      52.125   8.680   9.895  0.00  0.00    +0.000 N 
ATOM     21  C   UNL     1      53.189   9.085   9.129  0.00  0.00    +0.000 C 
ATOM     22  O   UNL     1      53.943   9.984   9.492  0.00  0.00    +0.000 OA
ATOM     23  H   UNL     1      51.400   8.103   9.479  0.00  0.00    +0.000 HD
BRANCH  21  24
ATOM     24  C   UNL     1      53.420   8.351   7.879  0.00  0.00    +0.000 A 
ATOM     25  C   UNL     1      53.495   9.046   6.678  0.00  0.00    +0.000 A 
ATOM     26  S   UNL     1      53.822   8.054   5.330  0.00  0.00    +0.000 S 
ATOM     27  C   UNL     1      53.824   6.653   6.294  0.00  0.00    +0.000 A 
ATOM     28  N   UNL     1      54.026   5.426   5.743  0.00  0.00    +0.000 NA
ATOM     29  C   UNL     1      53.969   4.446   6.583  0.00  0.00    +0.000 A 
ATOM     30  N   UNL     1      53.734   4.584   7.926  0.00  0.00    +0.000 N 
ATOM     31  C   UNL     1      53.550   5.805   8.531  0.00  0.00    +0.000 A 
ATOM     32  O   UNL     1      53.376   5.896   9.743  0.00  0.00    +0.000 OA
ATOM     33  C   UNL     1      53.594   6.939   7.629  0.00  0.00    +0.000 A 
ATOM     34  H   UNL     1      53.707   3.778   8.532  0.00  0.00    +0.000 HD
ENDBRANCH  21  24
ENDBRANCH  19  20
ENDBRANCH   4  19
TORSDOF 6
ENDMDL
MODEL 8
REMARK VINA RESULT:    -6.460      3.540      9.185
REMARK INTER + INTRA:          -9.839
REMARK INTER:                  -8.705
REMARK INTRA:                  -1.134
REMARK UNBOUND:                -1.114
REMARK  Name = 
REMARK  6 active torsions:
REMARK  status: ('A' for Active; 'I' for Inactive)
REMARK    1  A    between atoms: C_2  and  C_25
REMARK    2  A    between atoms: N_3  and  C_4
REMARK    3  A    between atoms: C_4  and  C_5
REMARK    4  A    between atoms: C_8  and  C_9
REMARK    5  A    between atoms: C_9  and  N_10
REMARK    6  A    between atoms: C_11  and  C_13
REMARK                            x       y       z     vdW  Elec       q    Type
REMARK                         _______ _______ _______ _____ _____    ______ ____
ROOT
ATOM      1  C   UNL     1      46.724   7.532  13.264  0.00  0.00    +0.000 A 
ATOM      2  C   UNL     1      47.036   8.851  13.620  0.00  0.00    +0.000 A 
ATOM      3  C   UNL     1      48.235   9.148  14.278  0.00  0.00    +0.000 A 
ATOM      4  C   UNL     1      49.155   8.134  14.573  0.00  0.00    +0.000 A 
ATOM      5  C   UNL     1      48.843   6.816  14.216  0.00  0.00    +0.000 A 
ATOM      6  C   UNL     1      47.646   6.519  13.557  0.00  0.00    +0.000 A 
ENDROOT
BRANCH   1   7
ATOM      7  C   UNL     1      45.432   7.212  12.561  0.00  0.00    +0.000 C 
BRANCH   7  10
ATOM      8  O   UNL     1      43.339   5.957  11.224  0.00  0.00    +0.000 OA
ATOM      9  C   UNL     1      44.481   5.554  11.026  0.00  0.00    +0.000 C 
ATOM     10  N   UNL     1      45.574   6.077  11.678  0.00  0.00    +0.000 N 
ATOM     11  H   UNL     1      46.513   5.767  11.457  0.00  0.00    +0.000 HD
BRANCH   9  12
ATOM     12  C   UNL     1      44.700   4.425  10.085  0.00  0.00    +0.000 A 
ATOM     13  C   UNL     1      45.469   4.682   8.939  0.00  0.00    +0.000 A 
ATOM     14  C   UNL     1      45.719   3.667   8.018  0.00  0.00    +0.000 A 
ATOM     15  C   UNL     1      45.195   2.411   8.272  0.00  0.00    +0.000 A 
ATOM     16  N   UNL     1      44.461   2.120   9.366  0.00  0.00    +0.000 NA
ATOM     17  C   UNL     1      44.236   3.126  10.249  0.00  0.00    +0.000 A 
ATOM     18 CL   UNL     1      43.343   2.571  11.614  0.00  0.00    +0.000 Cl
ENDBRANCH   9  12
ENDBRANCH   7  10
ENDBRANCH   1   7
BRANCH   4  19
ATOM     19  C   UNL     1      50.439   8.440  15.303  0.00  0.00    +0.000 C 
BRANCH  19  20
ATOM     20  N   UNL     1      50.448   7.844  16.615  0.00  0.00    +0.000 N 
ATOM     21  C   UNL     1      51.339   6.852  16.940  0.00  0.00    +0.000 C 
ATOM     22  O   UNL     1      52.195   6.466  16.148  0.00  0.00    +0.000 OA
ATOM     23  H   UNL     1      49.625   7.985  17.192  0.00  0.00    +0.000 HD
BRANCH  21  24
ATOM     24  C   UNL     1      51.261   6.315  18.304  0.00  0.00    +0.000 A 
ATOM     25  C   UNL     1      52.397   6.305  19.105  0.00  0.00    +0.000 A 
ATOM     26  S   UNL     1      52.123   5.699  20.675  0.00  0.00    +0.000 S 
ATOM     27  C   UNL     1      50.490   5.379  20.325  0.00  0.00    +0.000 A 
ATOM     28  N   UNL     1      49.673   4.818  21.258  0.00  0.00    +0.000 NA
ATOM     29  C   UNL     1      48.468   4.599  20.849  0.00  0.00    +0.000 A 
ATOM     30  N   UNL     1      48.004   4.895  19.594  0.00  0.00    +0.000 N 
ATOM     31  C   UNL     1      48.785   5.485  18.629  0.00  0.00    +0.000 A 
ATOM     32  O   UNL     1      48.328   5.769  17.526  0.00  0.00    +0.000 OA
ATOM     33  C   UNL     1      50.153   5.744  19.034  0.00  0.00    +0.000 A 
ATOM     34  H   UNL     1      47.047   4.704  19.338  0.00  0.00    +0.000 HD
ENDBRANCH  21  24
ENDBRANCH  19  20
ENDBRANCH   4  19
TORSDOF 6
ENDMDL
MODEL 9
REMARK VINA RESULT:    -6.286      5.480      8.723
REMARK INTER + INTRA:          -9.605
REMARK INTER:                  -8.510
REMARK INTRA:                  -1.095
REMARK UNBOUND:                -1.114
REMARK  Name = 
REMARK  6 active torsions:
REMARK  status: ('A' for Active; 'I' for Inactive)
REMARK    1  A    between atoms: C_2  and  C_25
REMARK    2  A    between atoms: N_3  and  C_4
REMARK    3  A    between atoms: C_4  and  C_5
REMARK    4  A    between atoms: C_8  and  C_9
REMARK    5  A    between atoms: C_9  and  N_10
REMARK    6  A    between atoms: C_11  and  C_13
REMARK                            x       y       z     vdW  Elec       q    Type
REMARK                         _______ _______ _______ _____ _____    ______ ____
ROOT
ATOM      1  C   UNL     1      46.643   8.163  12.652  0.00  0.00    +0.000 A 
ATOM      2  C   UNL     1      46.343   9.467  12.236  0.00  0.00    +0.000 A 
ATOM      3  C   UNL     1      47.364  10.400  12.020  0.00  0.00    +0.000 A 
ATOM      4  C   UNL     1      48.707  10.039  12.194  0.00  0.00    +0.000 A 
ATOM      5  C   UNL     1      49.006   8.734  12.608  0.00  0.00    +0.000 A 
ATOM      6  C   UNL     1      47.986   7.803  12.824  0.00  0.00    +0.000 A 
ENDROOT
BRANCH   1   7
ATOM      7  C   UNL     1      45.544   7.161  12.890  0.00  0.00    +0.000 C 
BRANCH   7  10
ATOM      8  O   UNL     1      43.466   6.240  11.286  0.00  0.00    +0.000 OA
ATOM      9  C   UNL     1      44.561   5.694  11.190  0.00  0.00    +0.000 C 
ATOM     10  N   UNL     1      45.635   6.046  11.976  0.00  0.00    +0.000 N 
ATOM     11  H   UNL     1      46.544   5.621  11.840  0.00  0.00    +0.000 HD
BRANCH   9  12
ATOM     12  C   UNL     1      44.735   4.577  10.226  0.00  0.00    +0.000 A 
ATOM     13  C   UNL     1      45.508   4.827   9.083  0.00  0.00    +0.000 A 
ATOM     14  C   UNL     1      45.716   3.821   8.141  0.00  0.00    +0.000 A 
ATOM     15  C   UNL     1      45.147   2.581   8.374  0.00  0.00    +0.000 A 
ATOM     16  N   UNL     1      44.406   2.296   9.465  0.00  0.00    +0.000 NA
ATOM     17  C   UNL     1      44.222   3.293  10.367  0.00  0.00    +0.000 A 
ATOM     18 CL   UNL     1      43.314   2.745  11.726  0.00  0.00    +0.000 Cl
ENDBRANCH   9  12
ENDBRANCH   7  10
ENDBRANCH   1   7
BRANCH   4  19
ATOM     19  C   UNL     1      49.813  11.043  11.987  0.00  0.00    +0.000 C 
BRANCH  19  20
ATOM     20  N   UNL     1      51.025  10.400  11.547  0.00  0.00    +0.000 N 
ATOM     21  C   UNL     1      51.504  10.581  10.274  0.00  0.00    +0.000 C 
ATOM     22  O   UNL     1      50.952  11.332   9.474  0.00  0.00    +0.000 OA
ATOM     23  H   UNL     1      51.362   9.619  12.101  0.00  0.00    +0.000 HD
BRANCH  21  24
ATOM     24  C   UNL     1      52.747   9.879   9.930  0.00  0.00    +0.000 A 
ATOM     25  C   UNL     1      53.845  10.604   9.484  0.00  0.00    +0.000 A 
ATOM     26  S   UNL     1      55.223   9.646   9.180  0.00  0.00    +0.000 S 
ATOM     27  C   UNL     1      54.386   8.221   9.583  0.00  0.00    +0.000 A 
ATOM     28  N   UNL     1      54.998   7.008   9.509  0.00  0.00    +0.000 NA
ATOM     29  C   UNL     1      54.239   6.007   9.811  0.00  0.00    +0.000 A 
ATOM     30  N   UNL     1      52.924   6.112  10.185  0.00  0.00    +0.000 N 
ATOM     31  C   UNL     1      52.272   7.316  10.297  0.00  0.00    +0.000 A 
ATOM     32  O   UNL     1      51.104   7.377  10.668  0.00  0.00    +0.000 OA
ATOM     33  C   UNL     1      53.079   8.474   9.960  0.00  0.00    +0.000 A 
ATOM     34  H   UNL     1      52.385   5.290  10.413  0.00  0.00    +0.000 HD
ENDBRANCH  21  24
ENDBRANCH  19  20
ENDBRANCH   4  19
TORSDOF 6
ENDMDL
