MODEL 1
REMARK VINA RESULT:    -8.613      0.000      0.000
REMARK INTER + INTRA:         -13.951
REMARK INTER:                 -12.893
REMARK INTRA:                  -1.057
REMARK UNBOUND:                -1.057
REMARK  Name = 
REMARK  9 active torsions:
REMARK  status: ('A' for Active; 'I' for Inactive)
REMARK    1  A    between atoms: C_2  and  C_22
REMARK    2  A    between atoms: N_3  and  C_4
REMARK    3  A    between atoms: C_4  and  C_5
REMARK    4  A    between atoms: C_8  and  C_9
REMARK    5  A    between atoms: C_9  and  N_10
REMARK    6  A    between atoms: N_10  and  C_11
REMARK    7  A    between atoms: C_11  and  C_12
REMARK    8  A    between atoms: C_12  and  O_13
REMARK    9  A    between atoms: C_12  and  C_14
REMARK                            x       y       z     vdW  Elec       q    Type
REMARK                         _______ _______ _______ _____ _____    ______ ____
ROOT
ATOM      1  C   UNL     1      46.555   6.538  13.181  0.00  0.00    +0.000 A 
ATOM      2  C   UNL     1      46.830   5.188  13.432  0.00  0.00    +0.000 A 
ATOM      3  C   UNL     1      45.860   4.214  13.205  0.00  0.00    +0.000 A 
ATOM      4  C   UNL     1      44.594   4.570  12.727  0.00  0.00    +0.000 A 
ATOM      5  C   UNL     1      44.328   5.918  12.442  0.00  0.00    +0.000 A 
ATOM      6  C   UNL     1      45.306   6.892  12.661  0.00  0.00    +0.000 A 
ENDROOT
BRANCH   1   7
ATOM      7  C   UNL     1      47.608   7.582  13.441  0.00  0.00    +0.000 C 
BRANCH   7  10
ATOM      8  O   UNL     1      49.631   6.527  15.073  0.00  0.00    +0.000 OA
ATOM      9  C   UNL     1      48.813   7.298  15.568  0.00  0.00    +0.000 C 
ATOM     10  N   UNL     1      47.767   7.818  14.853  0.00  0.00    +0.000 N 
ATOM     11  H   UNL     1      47.235   8.593  15.240  0.00  0.00    +0.000 HD
BRANCH   9  12
ATOM     12  C   UNL     1      48.879   7.665  16.988  0.00  0.00    +0.000 A 
ATOM     13  C   UNL     1      49.467   8.867  17.357  0.00  0.00    +0.000 A 
ATOM     14  S   UNL     1      49.463   9.145  19.038  0.00  0.00    +0.000 S 
ATOM     15  C   UNL     1      48.636   7.687  19.331  0.00  0.00    +0.000 A 
ATOM     16  N   UNL     1      48.275   7.331  20.593  0.00  0.00    +0.000 NA
ATOM     17  C   UNL     1      47.617   6.223  20.666  0.00  0.00    +0.000 A 
ATOM     18  N   UNL     1      47.302   5.429  19.593  0.00  0.00    +0.000 N 
ATOM     19  C   UNL     1      47.715   5.709  18.312  0.00  0.00    +0.000 A 
ATOM     20  O   UNL     1      47.539   4.908  17.400  0.00  0.00    +0.000 OA
ATOM     21  C   UNL     1      48.404   6.978  18.166  0.00  0.00    +0.000 A 
ATOM     22  H   UNL     1      46.817   4.554  19.725  0.00  0.00    +0.000 HD
ENDBRANCH   9  12
ENDBRANCH   7  10
ENDBRANCH   1   7
BRANCH   4  23
ATOM     23  C   UNL     1      43.519   3.524  12.562  0.00  0.00    +0.000 C 
BRANCH  23  24
ATOM     24  N   UNL     1      43.056   3.379  11.180  0.00  0.00    +0.000 NA
ATOM     25  H   UNL     1      42.811   4.297  10.814  0.00  0.00    +0.000 HD
BRANCH  24  26
ATOM     26  C   UNL     1      44.046   2.759  10.281  0.00  0.00    +0.000 C 
BRANCH  26  27
ATOM     27  C   UNL     1      44.755   3.703   9.273  0.00  0.00    +0.000 C 
BRANCH  27  28
ATOM     28  C   UNL     1      45.618   2.943   8.283  0.00  0.00    +0.000 A 
ATOM     29  C   UNL     1      46.193   3.623   7.200  0.00  0.00    +0.000 A 
ATOM     30  C   UNL     1      47.089   2.979   6.345  0.00  0.00    +0.000 A 
ATOM     31  C   UNL     1      47.408   1.639   6.557  0.00  0.00    +0.000 A 
ATOM     32  C   UNL     1      46.823   0.941   7.610  0.00  0.00    +0.000 A 
ATOM     33  C   UNL     1      45.932   1.587   8.470  0.00  0.00    +0.000 A 
ENDBRANCH  27  28
BRANCH  27  34
ATOM     34  O   UNL     1      43.786   4.497   8.583  0.00  0.00    +0.000 OA
ATOM     35  H   UNL     1      44.042   5.428   8.689  0.00  0.00    +0.000 HD
ENDBRANCH  27  34
ENDBRANCH  26  27
ENDBRANCH  24  26
ENDBRANCH  23  24
ENDBRANCH   4  23
TORSDOF 9
ENDMDL
MODEL 2
REMARK VINA RESULT:    -8.264      1.936      2.283
REMARK INTER + INTRA:         -13.428
REMARK INTER:                 -12.212
REMARK INTRA:                  -1.215
REMARK UNBOUND:                -1.057
REMARK  Name = 
REMARK  9 active torsions:
REMARK  status: ('A' for Active; 'I' for Inactive)
REMARK    1  A    between atoms: C_2  and  C_22
REMARK    2  A    between atoms: N_3  and  C_4
REMARK    3  A    between atoms: C_4  and  C_5
REMARK    4  A    between atoms: C_8  and  C_9
REMARK    5  A    between atoms: C_9  and  N_10
REMARK    6  A    between atoms: N_10  and  C_11
REMARK    7  A    between atoms: C_11  and  C_12
REMARK    8  A    between atoms: C_12  and  O_13
REMARK    9  A    between atoms: C_12  and  C_14
REMARK                            x       y       z     vdW  Elec       q    Type
REMARK                         _______ _______ _______ _____ _____    ______ ____
ROOT
ATOM      1  C   UNL     1      46.484   6.568  13.097  0.00  0.00    +0.000 A 
ATOM      2  C   UNL     1      46.765   5.229  13.398  0.00  0.00    +0.000 A 
ATOM      3  C   UNL     1      45.802   4.242  13.196  0.00  0.00    +0.000 A 
ATOM      4  C   UNL     1      44.539   4.573  12.694  0.00  0.00    +0.000 A 
ATOM      5  C   UNL     1      44.268   5.908  12.360  0.00  0.00    +0.000 A 
ATOM      6  C   UNL     1      45.237   6.896  12.553  0.00  0.00    +0.000 A 
ENDROOT
BRANCH   1   7
ATOM      7  C   UNL     1      47.528   7.628  13.330  0.00  0.00    +0.000 C 
BRANCH   7  10
ATOM      8  O   UNL     1      49.224   9.075  15.032  0.00  0.00    +0.000 OA
ATOM      9  C   UNL     1      49.404   7.867  14.905  0.00  0.00    +0.000 C 
ATOM     10  N   UNL     1      48.652   7.097  14.058  0.00  0.00    +0.000 N 
ATOM     11  H   UNL     1      48.703   6.085  14.128  0.00  0.00    +0.000 HD
BRANCH   9  12
ATOM     12  C   UNL     1      50.485   7.182  15.623  0.00  0.00    +0.000 A 
ATOM     13  C   UNL     1      51.797   7.596  15.441  0.00  0.00    +0.000 A 
ATOM     14  S   UNL     1      52.931   6.701  16.345  0.00  0.00    +0.000 S 
ATOM     15  C   UNL     1      51.704   5.755  17.047  0.00  0.00    +0.000 A 
ATOM     16  N   UNL     1      52.000   4.801  17.971  0.00  0.00    +0.000 NA
ATOM     17  C   UNL     1      50.972   4.187  18.452  0.00  0.00    +0.000 A 
ATOM     18  N   UNL     1      49.674   4.428  18.080  0.00  0.00    +0.000 N 
ATOM     19  C   UNL     1      49.335   5.325  17.095  0.00  0.00    +0.000 A 
ATOM     20  O   UNL     1      48.181   5.414  16.687  0.00  0.00    +0.000 OA
ATOM     21  C   UNL     1      50.450   6.088  16.566  0.00  0.00    +0.000 A 
ATOM     22  H   UNL     1      48.917   3.885  18.469  0.00  0.00    +0.000 HD
ENDBRANCH   9  12
ENDBRANCH   7  10
ENDBRANCH   1   7
BRANCH   4  23
ATOM     23  C   UNL     1      43.472   3.515  12.556  0.00  0.00    +0.000 C 
BRANCH  23  24
ATOM     24  N   UNL     1      43.062   3.281  11.169  0.00  0.00    +0.000 NA
ATOM     25  H   UNL     1      42.723   4.154  10.771  0.00  0.00    +0.000 HD
BRANCH  24  26
ATOM     26  C   UNL     1      44.136   2.753  10.310  0.00  0.00    +0.000 C 
BRANCH  26  27
ATOM     27  C   UNL     1      44.756   3.744   9.288  0.00  0.00    +0.000 C 
BRANCH  27  28
ATOM     28  C   UNL     1      45.690   3.053   8.312  0.00  0.00    +0.000 A 
ATOM     29  C   UNL     1      46.012   1.700   8.500  0.00  0.00    +0.000 A 
ATOM     30  C   UNL     1      46.767   1.007   7.552  0.00  0.00    +0.000 A 
ATOM     31  C   UNL     1      47.222   1.665   6.411  0.00  0.00    +0.000 A 
ATOM     32  C   UNL     1      46.936   3.015   6.224  0.00  0.00    +0.000 A 
ATOM     33  C   UNL     1      46.175   3.707   7.168  0.00  0.00    +0.000 A 
ENDBRANCH  27  28
BRANCH  27  34
ATOM     34  O   UNL     1      43.719   4.432   8.583  0.00  0.00    +0.000 OA
ATOM     35  H   UNL     1      42.932   4.436   9.152  0.00  0.00    +0.000 HD
ENDBRANCH  27  34
ENDBRANCH  26  27
ENDBRANCH  24  26
ENDBRANCH  23  24
ENDBRANCH   4  23
TORSDOF 9
ENDMDL
MODEL 3
REMARK VINA RESULT:    -8.015      1.608      2.016
REMARK INTER + INTRA:         -13.054
REMARK INTER:                 -11.970
REMARK INTRA:                  -1.084
REMARK UNBOUND:                -1.057
REMARK  Name = 
REMARK  9 active torsions:
REMARK  status: ('A' for Active; 'I' for Inactive)
REMARK    1  A    between atoms: C_2  and  C_22
REMARK    2  A    between atoms: N_3  and  C_4
REMARK    3  A    between atoms: C_4  and  C_5
REMARK    4  A    between atoms: C_8  and  C_9
REMARK    5  A    between atoms: C_9  and  N_10
REMARK    6  A    between atoms: N_10  and  C_11
REMARK    7  A    between atoms: C_11  and  C_12
REMARK    8  A    between atoms: C_12  and  O_13
REMARK    9  A    between atoms: C_12  and  C_14
REMARK                            x       y       z     vdW  Elec       q    Type
REMARK                         _______ _______ _______ _____ _____    ______ ____
ROOT
ATOM      1  C   UNL     1      46.974   6.502  13.288  0.00  0.00    +0.000 A 
ATOM      2  C   UNL     1      46.166   5.401  13.602  0.00  0.00    +0.000 A 
ATOM      3  C   UNL     1      44.954   5.202  12.943  0.00  0.00    +0.000 A 
ATOM      4  C   UNL     1      44.523   6.102  11.961  0.00  0.00    +0.000 A 
ATOM      5  C   UNL     1      45.347   7.185  11.621  0.00  0.00    +0.000 A 
ATOM      6  C   UNL     1      46.567   7.378  12.276  0.00  0.00    +0.000 A 
ENDROOT
BRANCH   1   7
ATOM      7  C   UNL     1      48.276   6.712  14.014  0.00  0.00    +0.000 C 
BRANCH   7  10
ATOM      8  O   UNL     1      50.349   6.214  15.836  0.00  0.00    +0.000 OA
ATOM      9  C   UNL     1      49.198   6.290  16.257  0.00  0.00    +0.000 C 
ATOM     10  N   UNL     1      48.124   6.482  15.428  0.00  0.00    +0.000 N 
ATOM     11  H   UNL     1      47.224   6.731  15.828  0.00  0.00    +0.000 HD
BRANCH   9  12
ATOM     12  C   UNL     1      48.898   6.122  17.684  0.00  0.00    +0.000 A 
ATOM     13  C   UNL     1      49.193   4.916  18.307  0.00  0.00    +0.000 A 
ATOM     14  S   UNL     1      48.786   4.883  19.961  0.00  0.00    +0.000 S 
ATOM     15  C   UNL     1      48.242   6.494  19.915  0.00  0.00    +0.000 A 
ATOM     16  N   UNL     1      47.790   7.111  21.040  0.00  0.00    +0.000 NA
ATOM     17  C   UNL     1      47.448   8.344  20.872  0.00  0.00    +0.000 A 
ATOM     18  N   UNL     1      47.499   9.012  19.675  0.00  0.00    +0.000 N 
ATOM     19  C   UNL     1      47.873   8.407  18.499  0.00  0.00    +0.000 A 
ATOM     20  O   UNL     1      47.772   8.990  17.425  0.00  0.00    +0.000 OA
ATOM     21  C   UNL     1      48.329   7.037  18.645  0.00  0.00    +0.000 A 
ATOM     22  H   UNL     1      47.181   9.967  19.604  0.00  0.00    +0.000 HD
ENDBRANCH   9  12
ENDBRANCH   7  10
ENDBRANCH   1   7
BRANCH   4  23
ATOM     23  C   UNL     1      43.173   5.930  11.311  0.00  0.00    +0.000 C 
BRANCH  23  24
ATOM     24  N   UNL     1      43.001   4.626  10.665  0.00  0.00    +0.000 NA
ATOM     25  H   UNL     1      42.077   4.585  10.240  0.00  0.00    +0.000 HD
BRANCH  24  26
ATOM     26  C   UNL     1      44.012   4.332   9.635  0.00  0.00    +0.000 C 
BRANCH  26  27
ATOM     27  C   UNL     1      44.345   2.834   9.397  0.00  0.00    +0.000 C 
BRANCH  27  28
ATOM     28  C   UNL     1      45.412   2.644   8.335  0.00  0.00    +0.000 A 
ATOM     29  C   UNL     1      45.720   3.701   7.464  0.00  0.00    +0.000 A 
ATOM     30  C   UNL     1      46.779   3.597   6.562  0.00  0.00    +0.000 A 
ATOM     31  C   UNL     1      47.534   2.427   6.509  0.00  0.00    +0.000 A 
ATOM     32  C   UNL     1      47.223   1.358   7.345  0.00  0.00    +0.000 A 
ATOM     33  C   UNL     1      46.168   1.464   8.254  0.00  0.00    +0.000 A 
ENDBRANCH  27  28
BRANCH  27  34
ATOM     34  O   UNL     1      44.750   2.223  10.626  0.00  0.00    +0.000 OA
ATOM     35  H   UNL     1      43.945   1.991  11.116  0.00  0.00    +0.000 HD
ENDBRANCH  27  34
ENDBRANCH  26  27
ENDBRANCH  24  26
ENDBRANCH  23  24
ENDBRANCH   4  23
TORSDOF 9
ENDMDL
MODEL 4
REMARK VINA RESULT:    -7.976      1.875      2.330
REMARK INTER + INTRA:         -12.997
REMARK INTER:                 -11.674
REMARK INTRA:                  -1.323
REMARK UNBOUND:                -1.057
REMARK  Name = 
REMARK  9 active torsions:
REMARK  status: ('A' for Active; 'I' for Inactive)
REMARK    1  A    between atoms: C_2  and  C_22
REMARK    2  A    between atoms: N_3  and  C_4
REMARK    3  A    between atoms: C_4  and  C_5
REMARK    4  A    between atoms: C_8  and  C_9
REMARK    5  A    between atoms: C_9  and  N_10
REMARK    6  A    between atoms: N_10  and  C_11
REMARK    7  A    between atoms: C_11  and  C_12
REMARK    8  A    between atoms: C_12  and  O_13
REMARK    9  A    between atoms: C_12  and  C_14
REMARK                            x       y       z     vdW  Elec       q    Type
REMARK                         _______ _______ _______ _____ _____    ______ ____
ROOT
ATOM      1  C   UNL     1      47.467   7.817  12.790  0.00  0.00    +0.000 A 
ATOM      2  C   UNL     1      47.445   6.626  12.053  0.00  0.00    +0.000 A 
ATOM      3  C   UNL     1      46.262   6.176  11.470  0.00  0.00    +0.000 A 
ATOM      4  C   UNL     1      45.076   6.905  11.617  0.00  0.00    +0.000 A 
ATOM      5  C   UNL     1      45.103   8.115  12.326  0.00  0.00    +0.000 A 
ATOM      6  C   UNL     1      46.293   8.570  12.902  0.00  0.00    +0.000 A 
ENDROOT
BRANCH   1   7
ATOM      7  C   UNL     1      48.749   8.286  13.425  0.00  0.00    +0.000 C 
BRANCH   7  10
ATOM      8  O   UNL     1      48.124   9.055  16.049  0.00  0.00    +0.000 OA
ATOM      9  C   UNL     1      48.660   7.966  15.864  0.00  0.00    +0.000 C 
ATOM     10  N   UNL     1      49.041   7.537  14.620  0.00  0.00    +0.000 N 
ATOM     11  H   UNL     1      49.299   6.563  14.486  0.00  0.00    +0.000 HD
BRANCH   9  12
ATOM     12  C   UNL     1      48.976   7.075  16.987  0.00  0.00    +0.000 A 
ATOM     13  C   UNL     1      49.637   7.582  18.097  0.00  0.00    +0.000 A 
ATOM     14  S   UNL     1      49.928   6.422  19.311  0.00  0.00    +0.000 S 
ATOM     15  C   UNL     1      49.141   5.209  18.414  0.00  0.00    +0.000 A 
ATOM     16  N   UNL     1      48.998   3.952  18.915  0.00  0.00    +0.000 NA
ATOM     17  C   UNL     1      48.345   3.144  18.149  0.00  0.00    +0.000 A 
ATOM     18  N   UNL     1      47.838   3.473  16.918  0.00  0.00    +0.000 N 
ATOM     19  C   UNL     1      48.027   4.705  16.339  0.00  0.00    +0.000 A 
ATOM     20  O   UNL     1      47.685   4.921  15.181  0.00  0.00    +0.000 OA
ATOM     21  C   UNL     1      48.701   5.672  17.187  0.00  0.00    +0.000 A 
ATOM     22  H   UNL     1      47.369   2.781  16.353  0.00  0.00    +0.000 HD
ENDBRANCH   9  12
ENDBRANCH   7  10
ENDBRANCH   1   7
BRANCH   4  23
ATOM     23  C   UNL     1      43.780   6.372  11.057  0.00  0.00    +0.000 C 
BRANCH  23  24
ATOM     24  N   UNL     1      43.699   4.910  11.069  0.00  0.00    +0.000 NA
ATOM     25  H   UNL     1      42.801   4.630  11.458  0.00  0.00    +0.000 HD
BRANCH  24  26
ATOM     26  C   UNL     1      43.855   4.292   9.741  0.00  0.00    +0.000 C 
BRANCH  26  27
ATOM     27  C   UNL     1      44.456   2.861   9.708  0.00  0.00    +0.000 C 
BRANCH  27  28
ATOM     28  C   UNL     1      45.475   2.692   8.596  0.00  0.00    +0.000 A 
ATOM     29  C   UNL     1      46.091   1.446   8.404  0.00  0.00    +0.000 A 
ATOM     30  C   UNL     1      46.937   1.227   7.316  0.00  0.00    +0.000 A 
ATOM     31  C   UNL     1      47.189   2.260   6.414  0.00  0.00    +0.000 A 
ATOM     32  C   UNL     1      46.610   3.510   6.607  0.00  0.00    +0.000 A 
ATOM     33  C   UNL     1      45.757   3.728   7.692  0.00  0.00    +0.000 A 
ENDBRANCH  27  28
BRANCH  27  34
ATOM     34  O   UNL     1      45.043   2.548  10.974  0.00  0.00    +0.000 OA
ATOM     35  H   UNL     1      45.036   3.359  11.507  0.00  0.00    +0.000 HD
ENDBRANCH  27  34
ENDBRANCH  26  27
ENDBRANCH  24  26
ENDBRANCH  23  24
ENDBRANCH   4  23
TORSDOF 9
ENDMDL
MODEL 5
REMARK VINA RESULT:    -7.679      3.645      9.213
REMARK INTER + INTRA:         -12.553
REMARK INTER:                  -9.381
REMARK INTRA:                  -3.171
REMARK UNBOUND:                -1.057
REMARK  Name = 
REMARK  9 active torsions:
REMARK  status: ('A' for Active; 'I' for Inactive)
REMARK    1  A    between atoms: C_2  and  C_22
REMARK    2  A    between atoms: N_3  and  C_4
REMARK    3  A    between atoms: C_4  and  C_5
REMARK    4  A    between atoms: C_8  and  C_9
REMARK    5  A    between atoms: C_9  and  N_10
REMARK    6  A    between atoms: N_10  and  C_11
REMARK    7  A    between atoms: C_11  and  C_12
REMARK    8  A    between atoms: C_12  and  O_13
REMARK    9  A    between atoms: C_12  and  C_14
REMARK                            x       y       z     vdW  Elec       q    Type
REMARK                         _______ _______ _______ _____ _____    ______ ____
ROOT
ATOM      1  C   UNL     1      48.945   6.719  15.391  0.00  0.00    +0.000 A 
ATOM      2  C   UNL     1      50.269   6.880  15.817  0.00  0.00    +0.000 A 
ATOM      3  C   UNL     1      50.789   6.074  16.829  0.00  0.00    +0.000 A 
ATOM      4  C   UNL     1      49.994   5.097  17.438  0.00  0.00    +0.000 A 
ATOM      5  C   UNL     1      48.679   4.911  16.988  0.00  0.00    +0.000 A 
ATOM      6  C   UNL     1      48.162   5.713  15.967  0.00  0.00    +0.000 A 
ENDROOT
BRANCH   1   7
ATOM      7  C   UNL     1      48.391   7.603  14.305  0.00  0.00    +0.000 C 
BRANCH   7  10
ATOM      8  O   UNL     1      47.675   7.284  11.612  0.00  0.00    +0.000 OA
ATOM      9  C   UNL     1      46.881   6.933  12.480  0.00  0.00    +0.000 C 
ATOM     10  N   UNL     1      47.133   7.099  13.816  0.00  0.00    +0.000 N 
ATOM     11  H   UNL     1      46.546   6.624  14.497  0.00  0.00    +0.000 HD
BRANCH   9  12
ATOM     12  C   UNL     1      45.577   6.358  12.129  0.00  0.00    +0.000 A 
ATOM     13  C   UNL     1      44.606   7.167  11.554  0.00  0.00    +0.000 A 
ATOM     14  S   UNL     1      43.152   6.349  11.206  0.00  0.00    +0.000 S 
ATOM     15  C   UNL     1      43.783   4.874  11.771  0.00  0.00    +0.000 A 
ATOM     16  N   UNL     1      43.047   3.731  11.713  0.00  0.00    +0.000 NA
ATOM     17  C   UNL     1      43.662   2.679  12.136  0.00  0.00    +0.000 A 
ATOM     18  N   UNL     1      44.942   2.667  12.629  0.00  0.00    +0.000 N 
ATOM     19  C   UNL     1      45.693   3.808  12.779  0.00  0.00    +0.000 A 
ATOM     20  O   UNL     1      46.777   3.784  13.353  0.00  0.00    +0.000 OA
ATOM     21  C   UNL     1      45.071   5.012  12.259  0.00  0.00    +0.000 A 
ATOM     22  H   UNL     1      45.351   1.814  12.978  0.00  0.00    +0.000 HD
ENDBRANCH   9  12
ENDBRANCH   7  10
ENDBRANCH   1   7
BRANCH   4  23
ATOM     23  C   UNL     1      50.534   4.285  18.589  0.00  0.00    +0.000 C 
BRANCH  23  24
ATOM     24  N   UNL     1      49.545   4.041  19.642  0.00  0.00    +0.000 NA
ATOM     25  H   UNL     1      49.729   3.135  20.067  0.00  0.00    +0.000 HD
BRANCH  24  26
ATOM     26  C   UNL     1      49.533   5.068  20.699  0.00  0.00    +0.000 C 
BRANCH  26  27
ATOM     27  C   UNL     1      48.309   6.021  20.725  0.00  0.00    +0.000 C 
BRANCH  27  28
ATOM     28  C   UNL     1      48.537   7.272  19.897  0.00  0.00    +0.000 A 
ATOM     29  C   UNL     1      49.800   7.884  19.899  0.00  0.00    +0.000 A 
ATOM     30  C   UNL     1      50.074   8.960  19.053  0.00  0.00    +0.000 A 
ATOM     31  C   UNL     1      49.080   9.447  18.205  0.00  0.00    +0.000 A 
ATOM     32  C   UNL     1      47.813   8.871  18.213  0.00  0.00    +0.000 A 
ATOM     33  C   UNL     1      47.541   7.789  19.054  0.00  0.00    +0.000 A 
ENDBRANCH  27  28
BRANCH  27  34
ATOM     34  O   UNL     1      47.141   5.330  20.272  0.00  0.00    +0.000 OA
ATOM     35  H   UNL     1      46.911   4.672  20.947  0.00  0.00    +0.000 HD
ENDBRANCH  27  34
ENDBRANCH  26  27
ENDBRANCH  24  26
ENDBRANCH  23  24
ENDBRANCH   4  23
TORSDOF 9
ENDMDL
MODEL 6
REMARK VINA RESULT:    -7.363      4.132      6.048
REMARK INTER + INTRA:         -12.078
REMARK INTER:                 -10.906
REMARK INTRA:                  -1.172
REMARK UNBOUND:                -1.057
REMARK  Name = 
REMARK  9 active torsions:
REMARK  status: ('A' for Active; 'I' for Inactive)
REMARK    1  A    between atoms: C_2  and  C_22
REMARK    2  A    between atoms: N_3  and  C_4
REMARK    3  A    between atoms: C_4  and  C_5
REMARK    4  A    between atoms: C_8  and  C_9
REMARK    5  A    between atoms: C_9  and  N_10
REMARK    6  A    between atoms: N_10  and  C_11
REMARK    7  A    between atoms: C_11  and  C_12
REMARK    8  A    between atoms: C_12  and  O_13
REMARK    9  A    between atoms: C_12  and  C_14
REMARK                            x       y       z     vdW  Elec       q    Type
REMARK                         _______ _______ _______ _____ _____    ______ ____
ROOT
ATOM      1  C   UNL     1      47.845   6.696  13.080  0.00  0.00    +0.000 A 
ATOM      2  C   UNL     1      47.440   5.613  13.870  0.00  0.00    +0.000 A 
ATOM      3  C   UNL     1      46.311   4.871  13.527  0.00  0.00    +0.000 A 
ATOM      4  C   UNL     1      45.561   5.200  12.393  0.00  0.00    +0.000 A 
ATOM      5  C   UNL     1      45.985   6.263  11.581  0.00  0.00    +0.000 A 
ATOM      6  C   UNL     1      47.124   7.000  11.920  0.00  0.00    +0.000 A 
ENDROOT
BRANCH   1   7
ATOM      7  C   UNL     1      49.061   7.497  13.466  0.00  0.00    +0.000 C 
BRANCH   7  10
ATOM      8  O   UNL     1      49.653  10.237  13.545  0.00  0.00    +0.000 OA
ATOM      9  C   UNL     1      49.838   9.622  12.498  0.00  0.00    +0.000 C 
ATOM     10  N   UNL     1      49.529   8.295  12.362  0.00  0.00    +0.000 N 
ATOM     11  H   UNL     1      49.873   7.783  11.554  0.00  0.00    +0.000 HD
BRANCH   9  12
ATOM     12  C   UNL     1      50.356  10.297  11.302  0.00  0.00    +0.000 A 
ATOM     13  C   UNL     1      49.669  11.384  10.779  0.00  0.00    +0.000 A 
ATOM     14  S   UNL     1      50.400  12.055   9.394  0.00  0.00    +0.000 S 
ATOM     15  C   UNL     1      51.686  10.943   9.468  0.00  0.00    +0.000 A 
ATOM     16  N   UNL     1      52.708  10.997   8.573  0.00  0.00    +0.000 NA
ATOM     17  C   UNL     1      53.636  10.122   8.770  0.00  0.00    +0.000 A 
ATOM     18  N   UNL     1      53.627   9.186   9.772  0.00  0.00    +0.000 N 
ATOM     19  C   UNL     1      52.578   9.043  10.649  0.00  0.00    +0.000 A 
ATOM     20  O   UNL     1      52.536   8.108  11.441  0.00  0.00    +0.000 OA
ATOM     21  C   UNL     1      51.537  10.045  10.510  0.00  0.00    +0.000 A 
ATOM     22  H   UNL     1      54.368   8.505   9.848  0.00  0.00    +0.000 HD
ENDBRANCH   9  12
ENDBRANCH   7  10
ENDBRANCH   1   7
BRANCH   4  23
ATOM     23  C   UNL     1      44.293   4.449  12.072  0.00  0.00    +0.000 C 
BRANCH  23  24
ATOM     24  N   UNL     1      44.524   3.047  11.713  0.00  0.00    +0.000 NA
ATOM     25  H   UNL     1      43.968   2.452  12.324  0.00  0.00    +0.000 HD
BRANCH  24  26
ATOM     26  C   UNL     1      44.195   2.729  10.312  0.00  0.00    +0.000 C 
BRANCH  26  27
ATOM     27  C   UNL     1      44.801   3.661   9.229  0.00  0.00    +0.000 C 
BRANCH  27  28
ATOM     28  C   UNL     1      45.660   2.904   8.234  0.00  0.00    +0.000 A 
ATOM     29  C   UNL     1      46.260   3.594   7.169  0.00  0.00    +0.000 A 
ATOM     30  C   UNL     1      47.153   2.949   6.313  0.00  0.00    +0.000 A 
ATOM     31  C   UNL     1      47.444   1.599   6.502  0.00  0.00    +0.000 A 
ATOM     32  C   UNL     1      46.834   0.892   7.535  0.00  0.00    +0.000 A 
ATOM     33  C   UNL     1      45.946   1.539   8.397  0.00  0.00    +0.000 A 
ENDBRANCH  27  28
BRANCH  27  34
ATOM     34  O   UNL     1      43.757   4.366   8.552  0.00  0.00    +0.000 OA
ATOM     35  H   UNL     1      43.863   4.204   7.601  0.00  0.00    +0.000 HD
ENDBRANCH  27  34
ENDBRANCH  26  27
ENDBRANCH  24  26
ENDBRANCH  23  24
ENDBRANCH   4  23
TORSDOF 9
ENDMDL
MODEL 7
REMARK VINA RESULT:    -7.341      3.958      9.377
REMARK INTER + INTRA:         -12.047
REMARK INTER:                  -9.102
REMARK INTRA:                  -2.945
REMARK UNBOUND:                -1.057
REMARK  Name = 
REMARK  9 active torsions:
REMARK  status: ('A' for Active; 'I' for Inactive)
REMARK    1  A    between atoms: C_2  and  C_22
REMARK    2  A    between atoms: N_3  and  C_4
REMARK    3  A    between atoms: C_4  and  C_5
REMARK    4  A    between atoms: C_8  and  C_9
REMARK    5  A    between atoms: C_9  and  N_10
REMARK    6  A    between atoms: N_10  and  C_11
REMARK    7  A    between atoms: C_11  and  C_12
REMARK    8  A    between atoms: C_12  and  O_13
REMARK    9  A    between atoms: C_12  and  C_14
REMARK                            x       y       z     vdW  Elec       q    Type
REMARK                         _______ _______ _______ _____ _____    ______ ____
ROOT
ATOM      1  C   UNL     1      47.693   8.499  11.948  0.00  0.00    +0.000 A 
ATOM      2  C   UNL     1      48.225   9.789  11.827  0.00  0.00    +0.000 A 
ATOM      3  C   UNL     1      49.594   9.975  11.641  0.00  0.00    +0.000 A 
ATOM      4  C   UNL     1      50.458   8.876  11.578  0.00  0.00    +0.000 A 
ATOM      5  C   UNL     1      49.922   7.583  11.665  0.00  0.00    +0.000 A 
ATOM      6  C   UNL     1      48.549   7.397  11.841  0.00  0.00    +0.000 A 
ENDROOT
BRANCH   1   7
ATOM      7  C   UNL     1      46.214   8.311  12.160  0.00  0.00    +0.000 C 
BRANCH   7  10
ATOM      8  O   UNL     1      43.668   7.418  11.394  0.00  0.00    +0.000 OA
ATOM      9  C   UNL     1      44.570   6.595  11.521  0.00  0.00    +0.000 C 
ATOM     10  N   UNL     1      45.828   6.942  11.938  0.00  0.00    +0.000 N 
ATOM     11  H   UNL     1      46.586   6.272  11.843  0.00  0.00    +0.000 HD
BRANCH   9  12
ATOM     12  C   UNL     1      44.332   5.166  11.282  0.00  0.00    +0.000 A 
ATOM     13  C   UNL     1      43.556   4.443  12.177  0.00  0.00    +0.000 A 
ATOM     14  S   UNL     1      43.375   2.801  11.757  0.00  0.00    +0.000 S 
ATOM     15  C   UNL     1      44.293   3.008  10.340  0.00  0.00    +0.000 A 
ATOM     16  N   UNL     1      44.492   1.973   9.479  0.00  0.00    +0.000 NA
ATOM     17  C   UNL     1      45.170   2.278   8.425  0.00  0.00    +0.000 A 
ATOM     18  N   UNL     1      45.684   3.522   8.160  0.00  0.00    +0.000 N 
ATOM     19  C   UNL     1      45.577   4.575   9.037  0.00  0.00    +0.000 A 
ATOM     20  O   UNL     1      46.168   5.631   8.836  0.00  0.00    +0.000 OA
ATOM     21  C   UNL     1      44.767   4.301  10.210  0.00  0.00    +0.000 A 
ATOM     22  H   UNL     1      46.238   3.685   7.333  0.00  0.00    +0.000 HD
ENDBRANCH   9  12
ENDBRANCH   7  10
ENDBRANCH   1   7
BRANCH   4  23
ATOM     23  C   UNL     1      51.948   9.085  11.462  0.00  0.00    +0.000 C 
BRANCH  23  24
ATOM     24  N   UNL     1      52.727   8.220  12.352  0.00  0.00    +0.000 NA
ATOM     25  H   UNL     1      53.532   7.861  11.844  0.00  0.00    +0.000 HD
BRANCH  24  26
ATOM     26  C   UNL     1      53.197   8.892  13.575  0.00  0.00    +0.000 C 
BRANCH  26  27
ATOM     27  C   UNL     1      52.689   8.313  14.923  0.00  0.00    +0.000 C 
BRANCH  27  28
ATOM     28  C   UNL     1      51.185   8.444  15.075  0.00  0.00    +0.000 A 
ATOM     29  C   UNL     1      50.400   7.292  15.232  0.00  0.00    +0.000 A 
ATOM     30  C   UNL     1      49.034   7.388  15.497  0.00  0.00    +0.000 A 
ATOM     31  C   UNL     1      48.432   8.642  15.594  0.00  0.00    +0.000 A 
ATOM     32  C   UNL     1      49.191   9.795  15.411  0.00  0.00    +0.000 A 
ATOM     33  C   UNL     1      50.560   9.699  15.152  0.00  0.00    +0.000 A 
ENDBRANCH  27  28
BRANCH  27  34
ATOM     34  O   UNL     1      53.085   6.944  15.046  0.00  0.00    +0.000 OA
ATOM     35  H   UNL     1      54.007   6.932  15.347  0.00  0.00    +0.000 HD
ENDBRANCH  27  34
ENDBRANCH  26  27
ENDBRANCH  24  26
ENDBRANCH  23  24
ENDBRANCH   4  23
TORSDOF 9
ENDMDL
MODEL 8
REMARK VINA RESULT:    -7.312      2.939      9.052
REMARK INTER + INTRA:         -12.002
REMARK INTER:                 -10.169
REMARK INTRA:                  -1.833
REMARK UNBOUND:                -1.057
REMARK  Name = 
REMARK  9 active torsions:
REMARK  status: ('A' for Active; 'I' for Inactive)
REMARK    1  A    between atoms: C_2  and  C_22
REMARK    2  A    between atoms: N_3  and  C_4
REMARK    3  A    between atoms: C_4  and  C_5
REMARK    4  A    between atoms: C_8  and  C_9
REMARK    5  A    between atoms: C_9  and  N_10
REMARK    6  A    between atoms: N_10  and  C_11
REMARK    7  A    between atoms: C_11  and  C_12
REMARK    8  A    between atoms: C_12  and  O_13
REMARK    9  A    between atoms: C_12  and  C_14
REMARK                            x       y       z     vdW  Elec       q    Type
REMARK                         _______ _______ _______ _____ _____    ______ ____
ROOT
ATOM      1  C   UNL     1      48.131   7.931  13.375  0.00  0.00    +0.000 A 
ATOM      2  C   UNL     1      48.024   9.171  14.016  0.00  0.00    +0.000 A 
ATOM      3  C   UNL     1      48.455   9.327  15.332  0.00  0.00    +0.000 A 
ATOM      4  C   UNL     1      48.997   8.245  16.035  0.00  0.00    +0.000 A 
ATOM      5  C   UNL     1      49.137   7.011  15.383  0.00  0.00    +0.000 A 
ATOM      6  C   UNL     1      48.713   6.859  14.060  0.00  0.00    +0.000 A 
ENDROOT
BRANCH   1   7
ATOM      7  C   UNL     1      47.650   7.772  11.956  0.00  0.00    +0.000 C 
BRANCH   7  10
ATOM      8  O   UNL     1      44.865   7.450  12.026  0.00  0.00    +0.000 OA
ATOM      9  C   UNL     1      45.568   6.471  11.790  0.00  0.00    +0.000 C 
ATOM     10  N   UNL     1      46.936   6.533  11.786  0.00  0.00    +0.000 N 
ATOM     11  H   UNL     1      47.469   5.758  11.400  0.00  0.00    +0.000 HD
BRANCH   9  12
ATOM     12  C   UNL     1      44.974   5.150  11.551  0.00  0.00    +0.000 A 
ATOM     13  C   UNL     1      44.274   4.520  12.571  0.00  0.00    +0.000 A 
ATOM     14  S   UNL     1      43.647   2.997  12.132  0.00  0.00    +0.000 S 
ATOM     15  C   UNL     1      44.251   3.144  10.549  0.00  0.00    +0.000 A 
ATOM     16  N   UNL     1      44.021   2.177   9.620  0.00  0.00    +0.000 NA
ATOM     17  C   UNL     1      44.499   2.436   8.450  0.00  0.00    +0.000 A 
ATOM     18  N   UNL     1      45.204   3.567   8.128  0.00  0.00    +0.000 N 
ATOM     19  C   UNL     1      45.528   4.532   9.051  0.00  0.00    +0.000 A 
ATOM     20  O   UNL     1      46.279   5.459   8.764  0.00  0.00    +0.000 OA
ATOM     21  C   UNL     1      44.959   4.320  10.369  0.00  0.00    +0.000 A 
ATOM     22  H   UNL     1      45.583   3.691   7.201  0.00  0.00    +0.000 HD
ENDBRANCH   9  12
ENDBRANCH   7  10
ENDBRANCH   1   7
BRANCH   4  23
ATOM     23  C   UNL     1      49.385   8.396  17.485  0.00  0.00    +0.000 C 
BRANCH  23  24
ATOM     24  N   UNL     1      48.249   8.296  18.404  0.00  0.00    +0.000 NA
ATOM     25  H   UNL     1      47.389   8.232  17.863  0.00  0.00    +0.000 HD
BRANCH  24  26
ATOM     26  C   UNL     1      48.321   7.145  19.320  0.00  0.00    +0.000 C 
BRANCH  26  27
ATOM     27  C   UNL     1      47.341   5.974  19.041  0.00  0.00    +0.000 C 
BRANCH  27  28
ATOM     28  C   UNL     1      47.994   4.851  18.258  0.00  0.00    +0.000 A 
ATOM     29  C   UNL     1      49.376   4.635  18.377  0.00  0.00    +0.000 A 
ATOM     30  C   UNL     1      49.983   3.536  17.768  0.00  0.00    +0.000 A 
ATOM     31  C   UNL     1      49.215   2.646  17.018  0.00  0.00    +0.000 A 
ATOM     32  C   UNL     1      47.848   2.862  16.866  0.00  0.00    +0.000 A 
ATOM     33  C   UNL     1      47.239   3.958  17.481  0.00  0.00    +0.000 A 
ENDBRANCH  27  28
BRANCH  27  34
ATOM     34  O   UNL     1      46.808   5.479  20.273  0.00  0.00    +0.000 OA
ATOM     35  H   UNL     1      46.744   6.229  20.886  0.00  0.00    +0.000 HD
ENDBRANCH  27  34
ENDBRANCH  26  27
ENDBRANCH  24  26
ENDBRANCH  23  24
ENDBRANCH   4  23
TORSDOF 9
ENDMDL
MODEL 9
REMARK VINA RESULT:    -6.617      1.928      2.693
REMARK INTER + INTRA:         -10.963
REMARK INTER:                  -9.997
REMARK INTRA:                  -0.966
REMARK UNBOUND:                -1.057
REMARK  Name = 
REMARK  9 active torsions:
REMARK  status: ('A' for Active; 'I' for Inactive)
REMARK    1  A    between atoms: C_2  and  C_22
REMARK    2  A    between atoms: N_3  and  C_4
REMARK    3  A    between atoms: C_4  and  C_5
REMARK    4  A    between atoms: C_8  and  C_9
REMARK    5  A    between atoms: C_9  and  N_10
REMARK    6  A    between atoms: N_10  and  C_11
REMARK    7  A    between atoms: C_11  and  C_12
REMARK    8  A    between atoms: C_12  and  O_13
REMARK    9  A    between atoms: C_12  and  C_14
REMARK                            x       y       z     vdW  Elec       q    Type
REMARK                         _______ _______ _______ _____ _____    ______ ____
ROOT
ATOM      1  C   UNL     1      49.234   7.262  13.990  0.00  0.00    +0.000 A 
ATOM      2  C   UNL     1      48.289   6.278  14.305  0.00  0.00    +0.000 A 
ATOM      3  C   UNL     1      47.248   5.990  13.423  0.00  0.00    +0.000 A 
ATOM      4  C   UNL     1      47.129   6.683  12.214  0.00  0.00    +0.000 A 
ATOM      5  C   UNL     1      48.094   7.645  11.882  0.00  0.00    +0.000 A 
ATOM      6  C   UNL     1      49.143   7.926  12.762  0.00  0.00    +0.000 A 
ENDROOT
BRANCH   1   7
ATOM      7  C   UNL     1      50.347   7.573  14.956  0.00  0.00    +0.000 C 
BRANCH   7  10
ATOM      8  O   UNL     1      51.807   8.255  17.251  0.00  0.00    +0.000 OA
ATOM      9  C   UNL     1      50.679   7.790  17.385  0.00  0.00    +0.000 C 
ATOM     10  N   UNL     1      49.920   7.386  16.318  0.00  0.00    +0.000 N 
ATOM     11  H   UNL     1      48.932   7.192  16.455  0.00  0.00    +0.000 HD
BRANCH   9  12
ATOM     12  C   UNL     1      50.095   7.586  18.716  0.00  0.00    +0.000 A 
ATOM     13  C   UNL     1      49.861   8.681  19.535  0.00  0.00    +0.000 A 
ATOM     14  S   UNL     1      49.179   8.275  21.044  0.00  0.00    +0.000 S 
ATOM     15  C   UNL     1      49.132   6.624  20.639  0.00  0.00    +0.000 A 
ATOM     16  N   UNL     1      48.608   5.709  21.498  0.00  0.00    +0.000 NA
ATOM     17  C   UNL     1      48.597   4.500  21.048  0.00  0.00    +0.000 A 
ATOM     18  N   UNL     1      49.078   4.119  19.821  0.00  0.00    +0.000 N 
ATOM     19  C   UNL     1      49.687   4.994  18.954  0.00  0.00    +0.000 A 
ATOM     20  O   UNL     1      50.233   4.598  17.930  0.00  0.00    +0.000 OA
ATOM     21  C   UNL     1      49.668   6.380  19.387  0.00  0.00    +0.000 A 
ATOM     22  H   UNL     1      49.073   3.148  19.545  0.00  0.00    +0.000 HD
ENDBRANCH   9  12
ENDBRANCH   7  10
ENDBRANCH   1   7
BRANCH   4  23
ATOM     23  C   UNL     1      45.955   6.427  11.302  0.00  0.00    +0.000 C 
BRANCH  23  24
ATOM     24  N   UNL     1      44.922   5.582  11.907  0.00  0.00    +0.000 NA
ATOM     25  H   UNL     1      44.431   6.116  12.620  0.00  0.00    +0.000 HD
BRANCH  24  26
ATOM     26  C   UNL     1      43.938   5.060  10.943  0.00  0.00    +0.000 C 
BRANCH  26  27
ATOM     27  C   UNL     1      44.026   3.546  10.613  0.00  0.00    +0.000 C 
BRANCH  27  28
ATOM     28  C   UNL     1      44.981   3.261   9.469  0.00  0.00    +0.000 A 
ATOM     29  C   UNL     1      45.345   1.937   9.183  0.00  0.00    +0.000 A 
ATOM     30  C   UNL     1      46.122   1.635   8.063  0.00  0.00    +0.000 A 
ATOM     31  C   UNL     1      46.556   2.660   7.224  0.00  0.00    +0.000 A 
ATOM     32  C   UNL     1      46.229   3.982   7.511  0.00  0.00    +0.000 A 
ATOM     33  C   UNL     1      45.446   4.283   8.627  0.00  0.00    +0.000 A 
ENDBRANCH  27  28
BRANCH  27  34
ATOM     34  O   UNL     1      44.413   2.814  11.780  0.00  0.00    +0.000 OA
ATOM     35  H   UNL     1      44.119   1.896  11.660  0.00  0.00    +0.000 HD
ENDBRANCH  27  34
ENDBRANCH  26  27
ENDBRANCH  24  26
ENDBRANCH  23  24
ENDBRANCH   4  23
TORSDOF 9
ENDMDL
