MODEL 1
REMARK VINA RESULT:    -7.977      0.000      0.000
REMARK INTER + INTRA:         -10.287
REMARK INTER:                  -9.609
REMARK INTRA:                  -0.678
REMARK UNBOUND:                -0.678
REMARK  Name = 
REMARK  4 active torsions:
REMARK  status: ('A' for Active; 'I' for Inactive)
REMARK    1  A    between atoms: O_1  and  C_2
REMARK    2  A    between atoms: C_2  and  C_3
REMARK    3  A    between atoms: C_7  and  O_8
REMARK    4  A    between atoms: O_8  and  C_9
REMARK                            x       y       z     vdW  Elec       q    Type
REMARK                         _______ _______ _______ _____ _____    ______ ____
ROOT
ATOM      1  C   UNL     1      45.321   5.629  12.261  0.00  0.00    +0.000 A 
ATOM      2  C   UNL     1      44.385   5.088  13.164  0.00  0.00    +0.000 A 
ATOM      3  C   UNL     1      43.344   4.265  12.730  0.00  0.00    +0.000 A 
ATOM      4  C   UNL     1      43.208   3.977  11.376  0.00  0.00    +0.000 A 
ATOM      5  C   UNL     1      44.076   4.558  10.451  0.00  0.00    +0.000 A 
ATOM      6  C   UNL     1      45.138   5.357  10.891  0.00  0.00    +0.000 A 
ENDROOT
BRANCH   1   7
ATOM      7  C   UNL     1      46.477   6.493  12.782  0.00  0.00    +0.000 C 
ATOM      8  C   UNL     1      47.431   6.892  11.637  0.00  0.00    +0.000 C 
ATOM      9  C   UNL     1      48.681   7.600  12.158  0.00  0.00    +0.000 C 
ATOM     10  N   UNL     1      49.373   6.780  13.152  0.00  0.00    +0.000 NA
ATOM     11  C   UNL     1      48.504   6.531  14.305  0.00  0.00    +0.000 C 
ATOM     12  C   UNL     1      47.249   5.763  13.895  0.00  0.00    +0.000 C 
ATOM     13  H   UNL     1      50.206   7.277  13.470  0.00  0.00    +0.000 HD
BRANCH   7  14
ATOM     14  O   UNL     1      45.963   7.710  13.351  0.00  0.00    +0.000 OA
ATOM     15  H   UNL     1      45.753   7.520  14.283  0.00  0.00    +0.000 HD
ENDBRANCH   7  14
ENDBRANCH   1   7
BRANCH   5  16
ATOM     16  O   UNL     1      43.989   4.323   9.096  0.00  0.00    +0.000 OA
BRANCH  16  17
ATOM     17  C   UNL     1      45.018   3.601   8.497  0.00  0.00    +0.000 A 
ATOM     18  C   UNL     1      45.113   2.260   8.837  0.00  0.00    +0.000 A 
ATOM     19  C   UNL     1      46.121   1.501   8.244  0.00  0.00    +0.000 A 
ATOM     20  C   UNL     1      46.993   2.109   7.347  0.00  0.00    +0.000 A 
ATOM     21  C   UNL     1      46.835   3.460   7.089  0.00  0.00    +0.000 A 
ATOM     22  N   UNL     1      45.875   4.220   7.653  0.00  0.00    +0.000 NA
ENDBRANCH  16  17
ENDBRANCH   5  16
TORSDOF 4
ENDMDL
MODEL 2
REMARK VINA RESULT:    -7.527      1.111      1.406
REMARK INTER + INTRA:          -9.745
REMARK INTER:                  -9.162
REMARK INTRA:                  -0.583
REMARK UNBOUND:                -0.678
REMARK  Name = 
REMARK  4 active torsions:
REMARK  status: ('A' for Active; 'I' for Inactive)
REMARK    1  A    between atoms: O_1  and  C_2
REMARK    2  A    between atoms: C_2  and  C_3
REMARK    3  A    between atoms: C_7  and  O_8
REMARK    4  A    between atoms: O_8  and  C_9
REMARK                            x       y       z     vdW  Elec       q    Type
REMARK                         _______ _______ _______ _____ _____    ______ ____
ROOT
ATOM      1  C   UNL     1      45.286   5.607  12.075  0.00  0.00    +0.000 A 
ATOM      2  C   UNL     1      44.509   4.866  12.988  0.00  0.00    +0.000 A 
ATOM      3  C   UNL     1      43.645   3.858  12.560  0.00  0.00    +0.000 A 
ATOM      4  C   UNL     1      43.526   3.578  11.202  0.00  0.00    +0.000 A 
ATOM      5  C   UNL     1      44.227   4.344  10.271  0.00  0.00    +0.000 A 
ATOM      6  C   UNL     1      45.118   5.333  10.705  0.00  0.00    +0.000 A 
ENDROOT
BRANCH   1   7
ATOM      7  C   UNL     1      46.258   6.678  12.589  0.00  0.00    +0.000 C 
ATOM      8  C   UNL     1      45.586   8.067  12.622  0.00  0.00    +0.000 C 
ATOM      9  C   UNL     1      46.584   9.173  12.958  0.00  0.00    +0.000 C 
ATOM     10  N   UNL     1      47.714   9.162  12.029  0.00  0.00    +0.000 NA
ATOM     11  C   UNL     1      48.434   7.889  12.115  0.00  0.00    +0.000 C 
ATOM     12  C   UNL     1      47.534   6.718  11.729  0.00  0.00    +0.000 C 
ATOM     13  H   UNL     1      48.353   9.919  12.276  0.00  0.00    +0.000 HD
BRANCH   7  14
ATOM     14  O   UNL     1      46.663   6.369  13.934  0.00  0.00    +0.000 OA
ATOM     15  H   UNL     1      47.375   6.992  14.164  0.00  0.00    +0.000 HD
ENDBRANCH   7  14
ENDBRANCH   1   7
BRANCH   5  16
ATOM     16  O   UNL     1      44.146   4.127   8.912  0.00  0.00    +0.000 OA
BRANCH  16  17
ATOM     17  C   UNL     1      45.181   3.420   8.308  0.00  0.00    +0.000 A 
ATOM     18  C   UNL     1      45.334   2.095   8.691  0.00  0.00    +0.000 A 
ATOM     19  C   UNL     1      46.349   1.351   8.094  0.00  0.00    +0.000 A 
ATOM     20  C   UNL     1      47.172   1.955   7.149  0.00  0.00    +0.000 A 
ATOM     21  C   UNL     1      46.958   3.290   6.849  0.00  0.00    +0.000 A 
ATOM     22  N   UNL     1      45.990   4.036   7.416  0.00  0.00    +0.000 NA
ENDBRANCH  16  17
ENDBRANCH   5  16
TORSDOF 4
ENDMDL
MODEL 3
REMARK VINA RESULT:    -6.888      1.718      2.224
REMARK INTER + INTRA:          -8.975
REMARK INTER:                  -8.423
REMARK INTRA:                  -0.553
REMARK UNBOUND:                -0.678
REMARK  Name = 
REMARK  4 active torsions:
REMARK  status: ('A' for Active; 'I' for Inactive)
REMARK    1  A    between atoms: O_1  and  C_2
REMARK    2  A    between atoms: C_2  and  C_3
REMARK    3  A    between atoms: C_7  and  O_8
REMARK    4  A    between atoms: O_8  and  C_9
REMARK                            x       y       z     vdW  Elec       q    Type
REMARK                         _______ _______ _______ _____ _____    ______ ____
ROOT
ATOM      1  C   UNL     1      45.442   4.548  12.964  0.00  0.00    +0.000 A 
ATOM      2  C   UNL     1      44.341   5.372  13.267  0.00  0.00    +0.000 A 
ATOM      3  C   UNL     1      43.139   5.271  12.565  0.00  0.00    +0.000 A 
ATOM      4  C   UNL     1      43.018   4.350  11.529  0.00  0.00    +0.000 A 
ATOM      5  C   UNL     1      44.115   3.572  11.159  0.00  0.00    +0.000 A 
ATOM      6  C   UNL     1      45.309   3.653  11.885  0.00  0.00    +0.000 A 
ENDROOT
BRANCH   1   7
ATOM      7  C   UNL     1      46.732   4.660  13.788  0.00  0.00    +0.000 C 
ATOM      8  C   UNL     1      46.486   4.265  15.260  0.00  0.00    +0.000 C 
ATOM      9  C   UNL     1      47.708   4.539  16.133  0.00  0.00    +0.000 C 
ATOM     10  N   UNL     1      48.125   5.937  16.032  0.00  0.00    +0.000 NA
ATOM     11  C   UNL     1      48.498   6.260  14.652  0.00  0.00    +0.000 C 
ATOM     12  C   UNL     1      47.315   6.081  13.704  0.00  0.00    +0.000 C 
ATOM     13  H   UNL     1      48.934   6.086  16.636  0.00  0.00    +0.000 HD
BRANCH   7  14
ATOM     14  O   UNL     1      47.727   3.761  13.267  0.00  0.00    +0.000 OA
ATOM     15  H   UNL     1      48.056   4.155  12.439  0.00  0.00    +0.000 HD
ENDBRANCH   7  14
ENDBRANCH   1   7
BRANCH   5  16
ATOM     16  O   UNL     1      44.065   2.650  10.136  0.00  0.00    +0.000 OA
BRANCH  16  17
ATOM     17  C   UNL     1      44.991   2.778   9.105  0.00  0.00    +0.000 A 
ATOM     18  C   UNL     1      45.658   1.623   8.723  0.00  0.00    +0.000 A 
ATOM     19  C   UNL     1      46.580   1.709   7.682  0.00  0.00    +0.000 A 
ATOM     20  C   UNL     1      46.804   2.939   7.071  0.00  0.00    +0.000 A 
ATOM     21  C   UNL     1      46.108   4.041   7.536  0.00  0.00    +0.000 A 
ATOM     22  N   UNL     1      45.217   3.989   8.546  0.00  0.00    +0.000 NA
ENDBRANCH  16  17
ENDBRANCH   5  16
TORSDOF 4
ENDMDL
MODEL 4
REMARK VINA RESULT:    -6.618      1.166      5.884
REMARK INTER + INTRA:          -8.649
REMARK INTER:                  -7.991
REMARK INTRA:                  -0.658
REMARK UNBOUND:                -0.678
REMARK  Name = 
REMARK  4 active torsions:
REMARK  status: ('A' for Active; 'I' for Inactive)
REMARK    1  A    between atoms: O_1  and  C_2
REMARK    2  A    between atoms: C_2  and  C_3
REMARK    3  A    between atoms: C_7  and  O_8
REMARK    4  A    between atoms: O_8  and  C_9
REMARK                            x       y       z     vdW  Elec       q    Type
REMARK                         _______ _______ _______ _____ _____    ______ ____
ROOT
ATOM      1  C   UNL     1      44.669   4.159  10.089  0.00  0.00    +0.000 A 
ATOM      2  C   UNL     1      43.681   3.540  10.880  0.00  0.00    +0.000 A 
ATOM      3  C   UNL     1      43.205   4.135  12.049  0.00  0.00    +0.000 A 
ATOM      4  C   UNL     1      43.720   5.359  12.463  0.00  0.00    +0.000 A 
ATOM      5  C   UNL     1      44.751   5.959  11.739  0.00  0.00    +0.000 A 
ATOM      6  C   UNL     1      45.205   5.377  10.550  0.00  0.00    +0.000 A 
ENDROOT
BRANCH   1   7
ATOM      7  C   UNL     1      45.135   3.494   8.787  0.00  0.00    +0.000 C 
ATOM      8  C   UNL     1      45.646   2.061   9.048  0.00  0.00    +0.000 C 
ATOM      9  C   UNL     1      46.279   1.448   7.800  0.00  0.00    +0.000 C 
ATOM     10  N   UNL     1      47.351   2.297   7.282  0.00  0.00    +0.000 NA
ATOM     11  C   UNL     1      46.825   3.609   6.899  0.00  0.00    +0.000 C 
ATOM     12  C   UNL     1      46.226   4.336   8.101  0.00  0.00    +0.000 C 
ATOM     13  H   UNL     1      47.758   1.852   6.458  0.00  0.00    +0.000 HD
BRANCH   7  14
ATOM     14  O   UNL     1      44.036   3.393   7.866  0.00  0.00    +0.000 OA
ATOM     15  H   UNL     1      43.894   2.444   7.698  0.00  0.00    +0.000 HD
ENDBRANCH   7  14
ENDBRANCH   1   7
BRANCH   5  16
ATOM     16  O   UNL     1      45.313   7.164  12.101  0.00  0.00    +0.000 OA
BRANCH  16  17
ATOM     17  C   UNL     1      46.625   7.152  12.566  0.00  0.00    +0.000 A 
ATOM     18  C   UNL     1      47.530   7.958  11.890  0.00  0.00    +0.000 A 
ATOM     19  C   UNL     1      48.849   7.985  12.337  0.00  0.00    +0.000 A 
ATOM     20  C   UNL     1      49.214   7.206  13.430  0.00  0.00    +0.000 A 
ATOM     21  C   UNL     1      48.246   6.414  14.026  0.00  0.00    +0.000 A 
ATOM     22  N   UNL     1      46.965   6.363  13.610  0.00  0.00    +0.000 NA
ENDBRANCH  16  17
ENDBRANCH   5  16
TORSDOF 4
ENDMDL
MODEL 5
REMARK VINA RESULT:    -6.462      2.957      3.573
REMARK INTER + INTRA:          -8.462
REMARK INTER:                  -7.834
REMARK INTRA:                  -0.627
REMARK UNBOUND:                -0.678
REMARK  Name = 
REMARK  4 active torsions:
REMARK  status: ('A' for Active; 'I' for Inactive)
REMARK    1  A    between atoms: O_1  and  C_2
REMARK    2  A    between atoms: C_2  and  C_3
REMARK    3  A    between atoms: C_7  and  O_8
REMARK    4  A    between atoms: O_8  and  C_9
REMARK                            x       y       z     vdW  Elec       q    Type
REMARK                         _______ _______ _______ _____ _____    ______ ____
ROOT
ATOM      1  C   UNL     1      45.258   7.864  11.960  0.00  0.00    +0.000 A 
ATOM      2  C   UNL     1      46.175   7.329  12.885  0.00  0.00    +0.000 A 
ATOM      3  C   UNL     1      46.402   5.955  12.976  0.00  0.00    +0.000 A 
ATOM      4  C   UNL     1      45.701   5.082  12.150  0.00  0.00    +0.000 A 
ATOM      5  C   UNL     1      44.734   5.578  11.276  0.00  0.00    +0.000 A 
ATOM      6  C   UNL     1      44.531   6.958  11.164  0.00  0.00    +0.000 A 
ENDROOT
BRANCH   1   7
ATOM      7  C   UNL     1      45.069   9.384  11.860  0.00  0.00    +0.000 C 
ATOM      8  C   UNL     1      44.250   9.760  10.608  0.00  0.00    +0.000 C 
ATOM      9  C   UNL     1      44.202  11.272  10.393  0.00  0.00    +0.000 C 
ATOM     10  N   UNL     1      45.550  11.836  10.322  0.00  0.00    +0.000 NA
ATOM     11  C   UNL     1      46.270  11.600  11.577  0.00  0.00    +0.000 C 
ATOM     12  C   UNL     1      46.429  10.105  11.849  0.00  0.00    +0.000 C 
ATOM     13  H   UNL     1      45.481  12.842  10.167  0.00  0.00    +0.000 HD
BRANCH   7  14
ATOM     14  O   UNL     1      44.343   9.865  13.005  0.00  0.00    +0.000 OA
ATOM     15  H   UNL     1      43.471   9.431  12.989  0.00  0.00    +0.000 HD
ENDBRANCH   7  14
ENDBRANCH   1   7
BRANCH   5  16
ATOM     16  O   UNL     1      43.997   4.767  10.439  0.00  0.00    +0.000 OA
BRANCH  16  17
ATOM     17  C   UNL     1      44.693   3.920   9.582  0.00  0.00    +0.000 A 
ATOM     18  C   UNL     1      45.455   4.528   8.594  0.00  0.00    +0.000 A 
ATOM     19  C   UNL     1      46.180   3.713   7.727  0.00  0.00    +0.000 A 
ATOM     20  C   UNL     1      46.111   2.332   7.873  0.00  0.00    +0.000 A 
ATOM     21  C   UNL     1      45.305   1.816   8.874  0.00  0.00    +0.000 A 
ATOM     22  N   UNL     1      44.587   2.580   9.721  0.00  0.00    +0.000 NA
ENDBRANCH  16  17
ENDBRANCH   5  16
TORSDOF 4
ENDMDL
MODEL 6
REMARK VINA RESULT:    -6.412      2.050      6.692
REMARK INTER + INTRA:          -8.402
REMARK INTER:                  -7.838
REMARK INTRA:                  -0.564
REMARK UNBOUND:                -0.678
REMARK  Name = 
REMARK  4 active torsions:
REMARK  status: ('A' for Active; 'I' for Inactive)
REMARK    1  A    between atoms: O_1  and  C_2
REMARK    2  A    between atoms: C_2  and  C_3
REMARK    3  A    between atoms: C_7  and  O_8
REMARK    4  A    between atoms: O_8  and  C_9
REMARK                            x       y       z     vdW  Elec       q    Type
REMARK                         _______ _______ _______ _____ _____    ______ ____
ROOT
ATOM      1  C   UNL     1      45.447   6.021  11.482  0.00  0.00    +0.000 A 
ATOM      2  C   UNL     1      44.889   7.301  11.664  0.00  0.00    +0.000 A 
ATOM      3  C   UNL     1      45.496   8.251  12.486  0.00  0.00    +0.000 A 
ATOM      4  C   UNL     1      46.671   7.935  13.159  0.00  0.00    +0.000 A 
ATOM      5  C   UNL     1      47.207   6.651  13.056  0.00  0.00    +0.000 A 
ATOM      6  C   UNL     1      46.614   5.710  12.205  0.00  0.00    +0.000 A 
ENDROOT
BRANCH   1   7
ATOM      7  C   UNL     1      44.774   5.019  10.535  0.00  0.00    +0.000 C 
ATOM      8  C   UNL     1      44.670   3.623  11.186  0.00  0.00    +0.000 C 
ATOM      9  C   UNL     1      44.168   2.571  10.199  0.00  0.00    +0.000 C 
ATOM     10  N   UNL     1      45.009   2.527   9.003  0.00  0.00    +0.000 NA
ATOM     11  C   UNL     1      44.982   3.818   8.311  0.00  0.00    +0.000 C 
ATOM     12  C   UNL     1      45.532   4.933   9.198  0.00  0.00    +0.000 C 
ATOM     13  H   UNL     1      44.652   1.808   8.373  0.00  0.00    +0.000 HD
BRANCH   7  14
ATOM     14  O   UNL     1      43.434   5.449  10.236  0.00  0.00    +0.000 OA
ATOM     15  H   UNL     1      43.414   5.668   9.287  0.00  0.00    +0.000 HD
ENDBRANCH   7  14
ENDBRANCH   1   7
BRANCH   5  16
ATOM     16  O   UNL     1      48.361   6.269  13.705  0.00  0.00    +0.000 OA
BRANCH  16  17
ATOM     17  C   UNL     1      48.258   5.899  15.043  0.00  0.00    +0.000 A 
ATOM     18  C   UNL     1      48.819   6.765  15.971  0.00  0.00    +0.000 A 
ATOM     19  C   UNL     1      48.721   6.436  17.321  0.00  0.00    +0.000 A 
ATOM     20  C   UNL     1      48.076   5.260  17.690  0.00  0.00    +0.000 A 
ATOM     21  C   UNL     1      47.568   4.447  16.691  0.00  0.00    +0.000 A 
ATOM     22  N   UNL     1      47.656   4.736  15.378  0.00  0.00    +0.000 NA
ENDBRANCH  16  17
ENDBRANCH   5  16
TORSDOF 4
ENDMDL
MODEL 7
REMARK VINA RESULT:    -6.238      3.914      6.636
REMARK INTER + INTRA:          -8.192
REMARK INTER:                  -7.560
REMARK INTRA:                  -0.632
REMARK UNBOUND:                -0.678
REMARK  Name = 
REMARK  4 active torsions:
REMARK  status: ('A' for Active; 'I' for Inactive)
REMARK    1  A    between atoms: O_1  and  C_2
REMARK    2  A    between atoms: C_2  and  C_3
REMARK    3  A    between atoms: C_7  and  O_8
REMARK    4  A    between atoms: O_8  and  C_9
REMARK                            x       y       z     vdW  Elec       q    Type
REMARK                         _______ _______ _______ _____ _____    ______ ____
ROOT
ATOM      1  C   UNL     1      45.201   6.554  11.332  0.00  0.00    +0.000 A 
ATOM      2  C   UNL     1      46.589   6.485  11.567  0.00  0.00    +0.000 A 
ATOM      3  C   UNL     1      47.300   7.581  12.057  0.00  0.00    +0.000 A 
ATOM      4  C   UNL     1      46.640   8.779  12.309  0.00  0.00    +0.000 A 
ATOM      5  C   UNL     1      45.281   8.898  12.017  0.00  0.00    +0.000 A 
ATOM      6  C   UNL     1      44.563   7.789  11.556  0.00  0.00    +0.000 A 
ENDROOT
BRANCH   1   7
ATOM      7  C   UNL     1      44.446   5.314  10.834  0.00  0.00    +0.000 C 
ATOM      8  C   UNL     1      44.254   4.288  11.971  0.00  0.00    +0.000 C 
ATOM      9  C   UNL     1      43.666   2.975  11.458  0.00  0.00    +0.000 C 
ATOM     10  N   UNL     1      44.486   2.415  10.384  0.00  0.00    +0.000 NA
ATOM     11  C   UNL     1      44.540   3.338   9.247  0.00  0.00    +0.000 C 
ATOM     12  C   UNL     1      45.179   4.667   9.645  0.00  0.00    +0.000 C 
ATOM     13  H   UNL     1      44.071   1.536  10.074  0.00  0.00    +0.000 HD
BRANCH   7  14
ATOM     14  O   UNL     1      43.137   5.688  10.372  0.00  0.00    +0.000 OA
ATOM     15  H   UNL     1      42.835   4.980   9.776  0.00  0.00    +0.000 HD
ENDBRANCH   7  14
ENDBRANCH   1   7
BRANCH   5  16
ATOM     16  O   UNL     1      44.570  10.059  12.233  0.00  0.00    +0.000 OA
BRANCH  16  17
ATOM     17  C   UNL     1      43.818  10.562  11.176  0.00  0.00    +0.000 A 
ATOM     18  C   UNL     1      44.526  11.119  10.121  0.00  0.00    +0.000 A 
ATOM     19  C   UNL     1      43.808  11.618   9.036  0.00  0.00    +0.000 A 
ATOM     20  C   UNL     1      42.419  11.549   9.050  0.00  0.00    +0.000 A 
ATOM     21  C   UNL     1      41.798  10.997  10.158  0.00  0.00    +0.000 A 
ATOM     22  N   UNL     1      42.467  10.514  11.223  0.00  0.00    +0.000 NA
ENDBRANCH  16  17
ENDBRANCH   5  16
TORSDOF 4
ENDMDL
MODEL 8
REMARK VINA RESULT:    -6.142      3.372      7.205
REMARK INTER + INTRA:          -8.076
REMARK INTER:                  -7.637
REMARK INTRA:                  -0.439
REMARK UNBOUND:                -0.678
REMARK  Name = 
REMARK  4 active torsions:
REMARK  status: ('A' for Active; 'I' for Inactive)
REMARK    1  A    between atoms: O_1  and  C_2
REMARK    2  A    between atoms: C_2  and  C_3
REMARK    3  A    between atoms: C_7  and  O_8
REMARK    4  A    between atoms: O_8  and  C_9
REMARK                            x       y       z     vdW  Elec       q    Type
REMARK                         _______ _______ _______ _____ _____    ______ ____
ROOT
ATOM      1  C   UNL     1      46.365   5.079  13.461  0.00  0.00    +0.000 A 
ATOM      2  C   UNL     1      47.178   6.168  13.089  0.00  0.00    +0.000 A 
ATOM      3  C   UNL     1      48.198   6.634  13.920  0.00  0.00    +0.000 A 
ATOM      4  C   UNL     1      48.417   6.028  15.153  0.00  0.00    +0.000 A 
ATOM      5  C   UNL     1      47.581   4.996  15.579  0.00  0.00    +0.000 A 
ATOM      6  C   UNL     1      46.580   4.509  14.730  0.00  0.00    +0.000 A 
ENDROOT
BRANCH   1   7
ATOM      7  C   UNL     1      45.283   4.568  12.500  0.00  0.00    +0.000 C 
ATOM      8  C   UNL     1      45.600   4.969  11.044  0.00  0.00    +0.000 C 
ATOM      9  C   UNL     1      44.451   4.627  10.098  0.00  0.00    +0.000 C 
ATOM     10  N   UNL     1      43.200   5.239  10.546  0.00  0.00    +0.000 NA
ATOM     11  C   UNL     1      42.832   4.736  11.873  0.00  0.00    +0.000 C 
ATOM     12  C   UNL     1      43.895   5.089  12.911  0.00  0.00    +0.000 C 
ATOM     13  H   UNL     1      42.459   4.999   9.887  0.00  0.00    +0.000 HD
BRANCH   7  14
ATOM     14  O   UNL     1      45.226   3.131  12.544  0.00  0.00    +0.000 OA
ATOM     15  H   UNL     1      46.142   2.815  12.648  0.00  0.00    +0.000 HD
ENDBRANCH   7  14
ENDBRANCH   1   7
BRANCH   5  16
ATOM     16  O   UNL     1      47.737   4.362  16.793  0.00  0.00    +0.000 OA
BRANCH  16  17
ATOM     17  C   UNL     1      48.961   3.752  17.051  0.00  0.00    +0.000 A 
ATOM     18  C   UNL     1      49.899   4.510  17.738  0.00  0.00    +0.000 A 
ATOM     19  C   UNL     1      51.130   3.927  18.029  0.00  0.00    +0.000 A 
ATOM     20  C   UNL     1      51.379   2.621  17.620  0.00  0.00    +0.000 A 
ATOM     21  C   UNL     1      50.391   1.952  16.919  0.00  0.00    +0.000 A 
ATOM     22  N   UNL     1      49.194   2.493  16.616  0.00  0.00    +0.000 NA
ENDBRANCH  16  17
ENDBRANCH   5  16
TORSDOF 4
ENDMDL
MODEL 9
REMARK VINA RESULT:    -5.911      2.008      6.367
REMARK INTER + INTRA:          -7.798
REMARK INTER:                  -7.210
REMARK INTRA:                  -0.588
REMARK UNBOUND:                -0.678
REMARK  Name = 
REMARK  4 active torsions:
REMARK  status: ('A' for Active; 'I' for Inactive)
REMARK    1  A    between atoms: O_1  and  C_2
REMARK    2  A    between atoms: C_2  and  C_3
REMARK    3  A    between atoms: C_7  and  O_8
REMARK    4  A    between atoms: O_8  and  C_9
REMARK                            x       y       z     vdW  Elec       q    Type
REMARK                         _______ _______ _______ _____ _____    ______ ____
ROOT
ATOM      1  C   UNL     1      45.246   6.277  11.712  0.00  0.00    +0.000 A 
ATOM      2  C   UNL     1      44.717   7.580  11.786  0.00  0.00    +0.000 A 
ATOM      3  C   UNL     1      45.441   8.629  12.355  0.00  0.00    +0.000 A 
ATOM      4  C   UNL     1      46.708   8.392  12.878  0.00  0.00    +0.000 A 
ATOM      5  C   UNL     1      47.226   7.097  12.884  0.00  0.00    +0.000 A 
ATOM      6  C   UNL     1      46.512   6.053  12.285  0.00  0.00    +0.000 A 
ENDROOT
BRANCH   1   7
ATOM      7  C   UNL     1      44.437   5.159  11.040  0.00  0.00    +0.000 C 
ATOM      8  C   UNL     1      44.065   4.057  12.053  0.00  0.00    +0.000 C 
ATOM      9  C   UNL     1      43.417   2.853  11.372  0.00  0.00    +0.000 C 
ATOM     10  N   UNL     1      44.276   2.321  10.315  0.00  0.00    +0.000 NA
ATOM     11  C   UNL     1      44.502   3.334   9.281  0.00  0.00    +0.000 C 
ATOM     12  C   UNL     1      45.212   4.559   9.853  0.00  0.00    +0.000 C 
ATOM     13  H   UNL     1      43.818   1.513   9.890  0.00  0.00    +0.000 HD
BRANCH   7  14
ATOM     14  O   UNL     1      43.206   5.690  10.517  0.00  0.00    +0.000 OA
ATOM     15  H   UNL     1      42.754   6.134  11.256  0.00  0.00    +0.000 HD
ENDBRANCH   7  14
ENDBRANCH   1   7
BRANCH   5  16
ATOM     16  O   UNL     1      48.469   6.793  13.396  0.00  0.00    +0.000 OA
BRANCH  16  17
ATOM     17  C   UNL     1      49.551   7.556  12.965  0.00  0.00    +0.000 A 
ATOM     18  C   UNL     1      49.868   7.475  11.617  0.00  0.00    +0.000 A 
ATOM     19  C   UNL     1      50.934   8.237  11.144  0.00  0.00    +0.000 A 
ATOM     20  C   UNL     1      51.642   9.041  12.032  0.00  0.00    +0.000 A 
ATOM     21  C   UNL     1      51.267   9.038  13.365  0.00  0.00    +0.000 A 
ATOM     22  N   UNL     1      50.246   8.305  13.850  0.00  0.00    +0.000 NA
ENDBRANCH  16  17
ENDBRANCH   5  16
TORSDOF 4
ENDMDL
