MODEL 1
REMARK VINA RESULT:    -8.381      0.000      0.000
REMARK INTER + INTRA:         -12.081
REMARK INTER:                 -11.321
REMARK INTRA:                  -0.760
REMARK UNBOUND:                -0.760
REMARK  Name = 
REMARK  6 active torsions:
REMARK  status: ('A' for Active; 'I' for Inactive)
REMARK    1  A    between atoms: C_2  and  C_26
REMARK    2  A    between atoms: N_3  and  C_4
REMARK    3  A    between atoms: C_4  and  C_5
REMARK    4  A    between atoms: C_8  and  C_9
REMARK    5  A    between atoms: C_9  and  N_10
REMARK    6  A    between atoms: C_11  and  C_13
REMARK                            x       y       z     vdW  Elec       q    Type
REMARK                         _______ _______ _______ _____ _____    ______ ____
ROOT
ATOM      1  C   UNL     1      45.179   6.164  11.489  0.00  0.00    +0.000 A 
ATOM      2  C   UNL     1      44.993   7.536  11.684  0.00  0.00    +0.000 A 
ATOM      3  C   UNL     1      45.794   8.247  12.586  0.00  0.00    +0.000 A 
ATOM      4  C   UNL     1      46.824   7.609  13.296  0.00  0.00    +0.000 A 
ATOM      5  C   UNL     1      47.008   6.233  13.092  0.00  0.00    +0.000 A 
ATOM      6  C   UNL     1      46.202   5.521  12.195  0.00  0.00    +0.000 A 
ENDROOT
BRANCH   1   7
ATOM      7  C   UNL     1      44.295   5.415  10.532  0.00  0.00    +0.000 C 
BRANCH   7  10
ATOM      8  O   UNL     1      44.003   2.706   9.925  0.00  0.00    +0.000 OA
ATOM      9  C   UNL     1      44.845   3.364   9.323  0.00  0.00    +0.000 C 
ATOM     10  N   UNL     1      45.072   4.701   9.550  0.00  0.00    +0.000 N 
ATOM     11  H   UNL     1      45.579   5.241   8.861  0.00  0.00    +0.000 HD
BRANCH   9  12
ATOM     12  C   UNL     1      45.651   2.752   8.237  0.00  0.00    +0.000 A 
ATOM     13  C   UNL     1      45.969   3.538   7.124  0.00  0.00    +0.000 A 
ATOM     14  C   UNL     1      46.776   3.017   6.113  0.00  0.00    +0.000 A 
ATOM     15  C   UNL     1      47.251   1.709   6.204  0.00  0.00    +0.000 A 
ATOM     16  C   UNL     1      46.907   0.911   7.296  0.00  0.00    +0.000 A 
ATOM     17  C   UNL     1      46.104   1.429   8.314  0.00  0.00    +0.000 A 
ENDBRANCH   9  12
ENDBRANCH   7  10
ENDBRANCH   1   7
BRANCH   4  18
ATOM     18  C   UNL     1      47.756   8.349  14.230  0.00  0.00    +0.000 C 
BRANCH  18  19
ATOM     19  N   UNL     1      48.131   7.595  15.408  0.00  0.00    +0.000 N 
ATOM     20  C   UNL     1      49.393   7.034  15.509  0.00  0.00    +0.000 C 
ATOM     21  O   UNL     1      50.260   7.115  14.663  0.00  0.00    +0.000 OA
ATOM     22  H   UNL     1      47.642   7.799  16.266  0.00  0.00    +0.000 HD
BRANCH  20  23
ATOM     23  C   UNL     1      49.653   6.333  16.793  0.00  0.00    +0.000 A 
ATOM     24  C   UNL     1      50.840   5.635  16.996  0.00  0.00    +0.000 A 
ATOM     25  N   UNL     1      51.161   5.015  18.165  0.00  0.00    +0.000 NA
ATOM     26  C   UNL     1      50.265   5.098  19.170  0.00  0.00    +0.000 A 
ATOM     27  N   UNL     1      50.589   4.549  20.404  0.00  0.00    +0.000 N 
ATOM     28  C   UNL     1      49.802   4.847  21.469  0.00  0.00    +0.000 A 
ATOM     29  N   UNL     1      48.653   5.429  21.441  0.00  0.00    +0.000 NA
ATOM     30  C   UNL     1      48.145   5.771  20.205  0.00  0.00    +0.000 A 
ATOM     31  O   UNL     1      46.981   6.109  20.029  0.00  0.00    +0.000 OA
ATOM     32  C   UNL     1      49.046   5.753  19.031  0.00  0.00    +0.000 A 
ATOM     33  C   UNL     1      48.724   6.378  17.829  0.00  0.00    +0.000 A 
ATOM     34  H   UNL     1      51.513   4.149  20.481  0.00  0.00    +0.000 HD
ENDBRANCH  20  23
ENDBRANCH  18  19
ENDBRANCH   4  18
TORSDOF 6
ENDMDL
MODEL 2
REMARK VINA RESULT:    -7.953      1.695      2.707
REMARK INTER + INTRA:         -11.502
REMARK INTER:                 -11.143
REMARK INTRA:                  -0.359
REMARK UNBOUND:                -0.760
REMARK  Name = 
REMARK  6 active torsions:
REMARK  status: ('A' for Active; 'I' for Inactive)
REMARK    1  A    between atoms: C_2  and  C_26
REMARK    2  A    between atoms: N_3  and  C_4
REMARK    3  A    between atoms: C_4  and  C_5
REMARK    4  A    between atoms: C_8  and  C_9
REMARK    5  A    between atoms: C_9  and  N_10
REMARK    6  A    between atoms: C_11  and  C_13
REMARK                            x       y       z     vdW  Elec       q    Type
REMARK                         _______ _______ _______ _____ _____    ______ ____
ROOT
ATOM      1  C   UNL     1      44.628   5.294  11.452  0.00  0.00    +0.000 A 
ATOM      2  C   UNL     1      45.606   4.646  12.211  0.00  0.00    +0.000 A 
ATOM      3  C   UNL     1      46.534   5.379  12.961  0.00  0.00    +0.000 A 
ATOM      4  C   UNL     1      46.491   6.782  12.991  0.00  0.00    +0.000 A 
ATOM      5  C   UNL     1      45.504   7.426  12.229  0.00  0.00    +0.000 A 
ATOM      6  C   UNL     1      44.579   6.693  11.476  0.00  0.00    +0.000 A 
ENDROOT
BRANCH   1   7
ATOM      7  C   UNL     1      43.652   4.490  10.638  0.00  0.00    +0.000 C 
BRANCH   7  10
ATOM      8  O   UNL     1      45.404   5.235   8.597  0.00  0.00    +0.000 OA
ATOM      9  C   UNL     1      45.183   4.044   8.787  0.00  0.00    +0.000 C 
ATOM     10  N   UNL     1      44.333   3.572   9.761  0.00  0.00    +0.000 N 
ATOM     11  H   UNL     1      44.391   2.602  10.039  0.00  0.00    +0.000 HD
BRANCH   9  12
ATOM     12  C   UNL     1      45.887   3.006   7.993  0.00  0.00    +0.000 A 
ATOM     13  C   UNL     1      46.491   3.388   6.790  0.00  0.00    +0.000 A 
ATOM     14  C   UNL     1      47.214   2.453   6.048  0.00  0.00    +0.000 A 
ATOM     15  C   UNL     1      47.318   1.136   6.497  0.00  0.00    +0.000 A 
ATOM     16  C   UNL     1      46.687   0.745   7.678  0.00  0.00    +0.000 A 
ATOM     17  C   UNL     1      45.966   1.677   8.428  0.00  0.00    +0.000 A 
ENDBRANCH   9  12
ENDBRANCH   7  10
ENDBRANCH   1   7
BRANCH   4  18
ATOM     18  C   UNL     1      47.431   7.613  13.837  0.00  0.00    +0.000 C 
BRANCH  18  19
ATOM     19  N   UNL     1      48.239   6.837  14.755  0.00  0.00    +0.000 N 
ATOM     20  C   UNL     1      48.744   7.417  15.907  0.00  0.00    +0.000 C 
ATOM     21  O   UNL     1      48.568   8.571  16.240  0.00  0.00    +0.000 OA
ATOM     22  H   UNL     1      48.113   5.837  14.754  0.00  0.00    +0.000 HD
BRANCH  20  23
ATOM     23  C   UNL     1      49.510   6.488  16.777  0.00  0.00    +0.000 A 
ATOM     24  C   UNL     1      48.870   5.749  17.767  0.00  0.00    +0.000 A 
ATOM     25  N   UNL     1      49.503   4.844  18.564  0.00  0.00    +0.000 NA
ATOM     26  C   UNL     1      50.827   4.669  18.361  0.00  0.00    +0.000 A 
ATOM     27  N   UNL     1      51.493   3.698  19.096  0.00  0.00    +0.000 N 
ATOM     28  C   UNL     1      52.752   3.357  18.720  0.00  0.00    +0.000 A 
ATOM     29  N   UNL     1      53.498   3.973  17.869  0.00  0.00    +0.000 NA
ATOM     30  C   UNL     1      52.986   5.114  17.287  0.00  0.00    +0.000 A 
ATOM     31  O   UNL     1      53.671   5.907  16.652  0.00  0.00    +0.000 OA
ATOM     32  C   UNL     1      51.538   5.394  17.411  0.00  0.00    +0.000 A 
ATOM     33  C   UNL     1      50.882   6.321  16.606  0.00  0.00    +0.000 A 
ATOM     34  H   UNL     1      50.924   3.146  19.720  0.00  0.00    +0.000 HD
ENDBRANCH  20  23
ENDBRANCH  18  19
ENDBRANCH   4  18
TORSDOF 6
ENDMDL
MODEL 3
REMARK VINA RESULT:    -7.913      1.880      2.575
REMARK INTER + INTRA:         -11.448
REMARK INTER:                 -10.809
REMARK INTRA:                  -0.639
REMARK UNBOUND:                -0.760
REMARK  Name = 
REMARK  6 active torsions:
REMARK  status: ('A' for Active; 'I' for Inactive)
REMARK    1  A    between atoms: C_2  and  C_26
REMARK    2  A    between atoms: N_3  and  C_4
REMARK    3  A    between atoms: C_4  and  C_5
REMARK    4  A    between atoms: C_8  and  C_9
REMARK    5  A    between atoms: C_9  and  N_10
REMARK    6  A    between atoms: C_11  and  C_13
REMARK                            x       y       z     vdW  Elec       q    Type
REMARK                         _______ _______ _______ _____ _____    ______ ____
ROOT
ATOM      1  C   UNL     1      45.094   6.137  11.486  0.00  0.00    +0.000 A 
ATOM      2  C   UNL     1      44.793   7.500  11.410  0.00  0.00    +0.000 A 
ATOM      3  C   UNL     1      45.510   8.435  12.167  0.00  0.00    +0.000 A 
ATOM      4  C   UNL     1      46.567   8.033  12.999  0.00  0.00    +0.000 A 
ATOM      5  C   UNL     1      46.866   6.664  13.067  0.00  0.00    +0.000 A 
ATOM      6  C   UNL     1      46.145   5.728  12.314  0.00  0.00    +0.000 A 
ENDROOT
BRANCH   1   7
ATOM      7  C   UNL     1      44.300   5.147  10.681  0.00  0.00    +0.000 C 
BRANCH   7  10
ATOM      8  O   UNL     1      44.065   2.497   9.833  0.00  0.00    +0.000 OA
ATOM      9  C   UNL     1      44.908   3.219   9.310  0.00  0.00    +0.000 C 
ATOM     10  N   UNL     1      45.109   4.534   9.658  0.00  0.00    +0.000 N 
ATOM     11  H   UNL     1      45.620   5.140   9.030  0.00  0.00    +0.000 HD
BRANCH   9  12
ATOM     12  C   UNL     1      45.747   2.717   8.192  0.00  0.00    +0.000 A 
ATOM     13  C   UNL     1      46.189   1.391   8.239  0.00  0.00    +0.000 A 
ATOM     14  C   UNL     1      46.928   0.866   7.178  0.00  0.00    +0.000 A 
ATOM     15  C   UNL     1      47.239   1.670   6.081  0.00  0.00    +0.000 A 
ATOM     16  C   UNL     1      46.829   3.003   6.048  0.00  0.00    +0.000 A 
ATOM     17  C   UNL     1      46.085   3.532   7.104  0.00  0.00    +0.000 A 
ENDBRANCH   9  12
ENDBRANCH   7  10
ENDBRANCH   1   7
BRANCH   4  18
ATOM     18  C   UNL     1      47.411   9.014  13.784  0.00  0.00    +0.000 C 
BRANCH  18  19
ATOM     19  N   UNL     1      47.404   8.786  15.214  0.00  0.00    +0.000 N 
ATOM     20  C   UNL     1      48.229   9.524  16.046  0.00  0.00    +0.000 C 
ATOM     21  O   UNL     1      48.999  10.386  15.675  0.00  0.00    +0.000 OA
ATOM     22  H   UNL     1      46.569   8.391  15.617  0.00  0.00    +0.000 HD
BRANCH  20  23
ATOM     23  C   UNL     1      48.077   9.216  17.491  0.00  0.00    +0.000 A 
ATOM     24  C   UNL     1      47.729  10.213  18.398  0.00  0.00    +0.000 A 
ATOM     25  N   UNL     1      47.525   9.990  19.726  0.00  0.00    +0.000 NA
ATOM     26  C   UNL     1      47.670   8.721  20.164  0.00  0.00    +0.000 A 
ATOM     27  N   UNL     1      47.391   8.436  21.493  0.00  0.00    +0.000 N 
ATOM     28  C   UNL     1      47.298   7.134  21.867  0.00  0.00    +0.000 A 
ATOM     29  N   UNL     1      47.637   6.104  21.171  0.00  0.00    +0.000 NA
ATOM     30  C   UNL     1      48.175   6.333  19.921  0.00  0.00    +0.000 A 
ATOM     31  O   UNL     1      48.744   5.467  19.268  0.00  0.00    +0.000 OA
ATOM     32  C   UNL     1      48.044   7.679  19.321  0.00  0.00    +0.000 A 
ATOM     33  C   UNL     1      48.258   7.921  17.967  0.00  0.00    +0.000 A 
ATOM     34  H   UNL     1      47.052   9.206  22.050  0.00  0.00    +0.000 HD
ENDBRANCH  20  23
ENDBRANCH  18  19
ENDBRANCH   4  18
TORSDOF 6
ENDMDL
MODEL 4
REMARK VINA RESULT:    -7.911      2.037      2.303
REMARK INTER + INTRA:         -11.446
REMARK INTER:                 -10.734
REMARK INTRA:                  -0.711
REMARK UNBOUND:                -0.760
REMARK  Name = 
REMARK  6 active torsions:
REMARK  status: ('A' for Active; 'I' for Inactive)
REMARK    1  A    between atoms: C_2  and  C_26
REMARK    2  A    between atoms: N_3  and  C_4
REMARK    3  A    between atoms: C_4  and  C_5
REMARK    4  A    between atoms: C_8  and  C_9
REMARK    5  A    between atoms: C_9  and  N_10
REMARK    6  A    between atoms: C_11  and  C_13
REMARK                            x       y       z     vdW  Elec       q    Type
REMARK                         _______ _______ _______ _____ _____    ______ ____
ROOT
ATOM      1  C   UNL     1      45.103   6.053  11.637  0.00  0.00    +0.000 A 
ATOM      2  C   UNL     1      44.799   7.411  11.507  0.00  0.00    +0.000 A 
ATOM      3  C   UNL     1      45.514   8.378  12.225  0.00  0.00    +0.000 A 
ATOM      4  C   UNL     1      46.573   8.011  13.072  0.00  0.00    +0.000 A 
ATOM      5  C   UNL     1      46.874   6.646  13.194  0.00  0.00    +0.000 A 
ATOM      6  C   UNL     1      46.155   5.680  12.480  0.00  0.00    +0.000 A 
ENDROOT
BRANCH   1   7
ATOM      7  C   UNL     1      44.310   5.030  10.872  0.00  0.00    +0.000 C 
BRANCH   7  10
ATOM      8  O   UNL     1      43.959   2.437   9.899  0.00  0.00    +0.000 OA
ATOM      9  C   UNL     1      44.842   3.139   9.419  0.00  0.00    +0.000 C 
ATOM     10  N   UNL     1      45.101   4.426   9.830  0.00  0.00    +0.000 N 
ATOM     11  H   UNL     1      45.649   5.035   9.236  0.00  0.00    +0.000 HD
BRANCH   9  12
ATOM     12  C   UNL     1      45.669   2.649   8.288  0.00  0.00    +0.000 A 
ATOM     13  C   UNL     1      45.937   3.529   7.233  0.00  0.00    +0.000 A 
ATOM     14  C   UNL     1      46.761   3.124   6.183  0.00  0.00    +0.000 A 
ATOM     15  C   UNL     1      47.301   1.838   6.176  0.00  0.00    +0.000 A 
ATOM     16  C   UNL     1      47.007   0.947   7.209  0.00  0.00    +0.000 A 
ATOM     17  C   UNL     1      46.187   1.348   8.266  0.00  0.00    +0.000 A 
ENDBRANCH   9  12
ENDBRANCH   7  10
ENDBRANCH   1   7
BRANCH   4  18
ATOM     18  C   UNL     1      47.415   9.024  13.816  0.00  0.00    +0.000 C 
BRANCH  18  19
ATOM     19  N   UNL     1      47.451   8.821  15.250  0.00  0.00    +0.000 N 
ATOM     20  C   UNL     1      48.589   8.316  15.858  0.00  0.00    +0.000 C 
ATOM     21  O   UNL     1      49.610   8.010  15.278  0.00  0.00    +0.000 OA
ATOM     22  H   UNL     1      46.830   9.379  15.815  0.00  0.00    +0.000 HD
BRANCH  20  23
ATOM     23  C   UNL     1      48.498   8.209  17.337  0.00  0.00    +0.000 A 
ATOM     24  C   UNL     1      49.153   7.187  18.018  0.00  0.00    +0.000 A 
ATOM     25  N   UNL     1      49.152   7.060  19.374  0.00  0.00    +0.000 NA
ATOM     26  C   UNL     1      48.475   7.994  20.076  0.00  0.00    +0.000 A 
ATOM     27  N   UNL     1      48.517   7.948  21.463  0.00  0.00    +0.000 N 
ATOM     28  C   UNL     1      48.049   9.016  22.157  0.00  0.00    +0.000 A 
ATOM     29  N   UNL     1      47.373  10.008  21.686  0.00  0.00    +0.000 NA
ATOM     30  C   UNL     1      47.066   9.984  20.341  0.00  0.00    +0.000 A 
ATOM     31  O   UNL     1      46.244  10.734  19.828  0.00  0.00    +0.000 OA
ATOM     32  C   UNL     1      47.774   9.026  19.462  0.00  0.00    +0.000 A 
ATOM     33  C   UNL     1      47.775   9.141  18.075  0.00  0.00    +0.000 A 
ATOM     34  H   UNL     1      49.097   7.227  21.866  0.00  0.00    +0.000 HD
ENDBRANCH  20  23
ENDBRANCH  18  19
ENDBRANCH   4  18
TORSDOF 6
ENDMDL
MODEL 5
REMARK VINA RESULT:    -7.796      1.987      2.582
REMARK INTER + INTRA:         -11.291
REMARK INTER:                 -10.531
REMARK INTRA:                  -0.760
REMARK UNBOUND:                -0.760
REMARK  Name = 
REMARK  6 active torsions:
REMARK  status: ('A' for Active; 'I' for Inactive)
REMARK    1  A    between atoms: C_2  and  C_26
REMARK    2  A    between atoms: N_3  and  C_4
REMARK    3  A    between atoms: C_4  and  C_5
REMARK    4  A    between atoms: C_8  and  C_9
REMARK    5  A    between atoms: C_9  and  N_10
REMARK    6  A    between atoms: C_11  and  C_13
REMARK                            x       y       z     vdW  Elec       q    Type
REMARK                         _______ _______ _______ _____ _____    ______ ____
ROOT
ATOM      1  C   UNL     1      45.046   4.936  12.072  0.00  0.00    +0.000 A 
ATOM      2  C   UNL     1      46.246   4.913  12.789  0.00  0.00    +0.000 A 
ATOM      3  C   UNL     1      46.876   6.105  13.169  0.00  0.00    +0.000 A 
ATOM      4  C   UNL     1      46.306   7.352  12.865  0.00  0.00    +0.000 A 
ATOM      5  C   UNL     1      45.100   7.366  12.149  0.00  0.00    +0.000 A 
ATOM      6  C   UNL     1      44.473   6.174  11.764  0.00  0.00    +0.000 A 
ENDROOT
BRANCH   1   7
ATOM      7  C   UNL     1      44.395   3.646  11.656  0.00  0.00    +0.000 C 
BRANCH   7  10
ATOM      8  O   UNL     1      43.985   4.230   8.957  0.00  0.00    +0.000 OA
ATOM      9  C   UNL     1      44.829   3.395   9.265  0.00  0.00    +0.000 C 
ATOM     10  N   UNL     1      45.104   3.031  10.563  0.00  0.00    +0.000 N 
ATOM     11  H   UNL     1      45.968   2.546  10.768  0.00  0.00    +0.000 HD
BRANCH   9  12
ATOM     12  C   UNL     1      45.672   2.751   8.227  0.00  0.00    +0.000 A 
ATOM     13  C   UNL     1      46.041   3.508   7.109  0.00  0.00    +0.000 A 
ATOM     14  C   UNL     1      46.883   2.957   6.143  0.00  0.00    +0.000 A 
ATOM     15  C   UNL     1      47.342   1.647   6.283  0.00  0.00    +0.000 A 
ATOM     16  C   UNL     1      46.947   0.878   7.379  0.00  0.00    +0.000 A 
ATOM     17  C   UNL     1      46.109   1.426   8.352  0.00  0.00    +0.000 A 
ENDBRANCH   9  12
ENDBRANCH   7  10
ENDBRANCH   1   7
BRANCH   4  18
ATOM     18  C   UNL     1      46.917   8.662  13.312  0.00  0.00    +0.000 C 
BRANCH  18  19
ATOM     19  N   UNL     1      47.218   8.720  14.727  0.00  0.00    +0.000 N 
ATOM     20  C   UNL     1      48.510   8.507  15.179  0.00  0.00    +0.000 C 
ATOM     21  O   UNL     1      49.464   8.264  14.468  0.00  0.00    +0.000 OA
ATOM     22  H   UNL     1      46.605   9.267  15.311  0.00  0.00    +0.000 HD
BRANCH  20  23
ATOM     23  C   UNL     1      48.678   8.648  16.648  0.00  0.00    +0.000 A 
ATOM     24  C   UNL     1      47.877   9.524  17.375  0.00  0.00    +0.000 A 
ATOM     25  N   UNL     1      47.945   9.664  18.728  0.00  0.00    +0.000 NA
ATOM     26  C   UNL     1      48.844   8.896  19.380  0.00  0.00    +0.000 A 
ATOM     27  N   UNL     1      48.889   8.948  20.766  0.00  0.00    +0.000 N 
ATOM     28  C   UNL     1      49.612   8.006  21.424  0.00  0.00    +0.000 A 
ATOM     29  N   UNL     1      50.442   7.168  20.905  0.00  0.00    +0.000 NA
ATOM     30  C   UNL     1      50.644   7.237  19.542  0.00  0.00    +0.000 A 
ATOM     31  O   UNL     1      51.565   6.665  18.971  0.00  0.00    +0.000 OA
ATOM     32  C   UNL     1      49.698   8.021  18.716  0.00  0.00    +0.000 A 
ATOM     33  C   UNL     1      49.625   7.891  17.332  0.00  0.00    +0.000 A 
ATOM     34  H   UNL     1      48.203   9.541  21.210  0.00  0.00    +0.000 HD
ENDBRANCH  20  23
ENDBRANCH  18  19
ENDBRANCH   4  18
TORSDOF 6
ENDMDL
MODEL 6
REMARK VINA RESULT:    -7.608      2.024      2.416
REMARK INTER + INTRA:         -11.037
REMARK INTER:                 -10.304
REMARK INTRA:                  -0.733
REMARK UNBOUND:                -0.760
REMARK  Name = 
REMARK  6 active torsions:
REMARK  status: ('A' for Active; 'I' for Inactive)
REMARK    1  A    between atoms: C_2  and  C_26
REMARK    2  A    between atoms: N_3  and  C_4
REMARK    3  A    between atoms: C_4  and  C_5
REMARK    4  A    between atoms: C_8  and  C_9
REMARK    5  A    between atoms: C_9  and  N_10
REMARK    6  A    between atoms: C_11  and  C_13
REMARK                            x       y       z     vdW  Elec       q    Type
REMARK                         _______ _______ _______ _____ _____    ______ ____
ROOT
ATOM      1  C   UNL     1      45.517   6.427  11.841  0.00  0.00    +0.000 A 
ATOM      2  C   UNL     1      45.163   7.736  12.181  0.00  0.00    +0.000 A 
ATOM      3  C   UNL     1      46.020   8.534  12.950  0.00  0.00    +0.000 A 
ATOM      4  C   UNL     1      47.267   8.050  13.377  0.00  0.00    +0.000 A 
ATOM      5  C   UNL     1      47.616   6.736  13.029  0.00  0.00    +0.000 A 
ATOM      6  C   UNL     1      46.757   5.937  12.265  0.00  0.00    +0.000 A 
ENDROOT
BRANCH   1   7
ATOM      7  C   UNL     1      44.574   5.581  11.032  0.00  0.00    +0.000 C 
BRANCH   7  10
ATOM      8  O   UNL     1      43.764   3.098  10.046  0.00  0.00    +0.000 OA
ATOM      9  C   UNL     1      44.792   3.605   9.611  0.00  0.00    +0.000 C 
ATOM     10  N   UNL     1      45.281   4.820  10.032  0.00  0.00    +0.000 N 
ATOM     11  H   UNL     1      45.968   5.301   9.467  0.00  0.00    +0.000 HD
BRANCH   9  12
ATOM     12  C   UNL     1      45.561   2.948   8.524  0.00  0.00    +0.000 A 
ATOM     13  C   UNL     1      45.947   3.721   7.424  0.00  0.00    +0.000 A 
ATOM     14  C   UNL     1      46.723   3.153   6.413  0.00  0.00    +0.000 A 
ATOM     15  C   UNL     1      47.097   1.811   6.492  0.00  0.00    +0.000 A 
ATOM     16  C   UNL     1      46.684   1.029   7.571  0.00  0.00    +0.000 A 
ATOM     17  C   UNL     1      45.912   1.594   8.588  0.00  0.00    +0.000 A 
ENDBRANCH   9  12
ENDBRANCH   7  10
ENDBRANCH   1   7
BRANCH   4  18
ATOM     18  C   UNL     1      48.252   8.896  14.153  0.00  0.00    +0.000 C 
BRANCH  18  19
ATOM     19  N   UNL     1      49.383   8.156  14.675  0.00  0.00    +0.000 N 
ATOM     20  C   UNL     1      49.352   7.642  15.960  0.00  0.00    +0.000 C 
ATOM     21  O   UNL     1      48.423   7.757  16.733  0.00  0.00    +0.000 OA
ATOM     22  H   UNL     1      49.992   7.709  14.009  0.00  0.00    +0.000 HD
BRANCH  20  23
ATOM     23  C   UNL     1      50.560   6.865  16.339  0.00  0.00    +0.000 A 
ATOM     24  C   UNL     1      51.834   7.386  16.137  0.00  0.00    +0.000 A 
ATOM     25  N   UNL     1      52.979   6.748  16.507  0.00  0.00    +0.000 NA
ATOM     26  C   UNL     1      52.846   5.545  17.105  0.00  0.00    +0.000 A 
ATOM     27  N   UNL     1      53.983   4.900  17.571  0.00  0.00    +0.000 N 
ATOM     28  C   UNL     1      53.826   3.823  18.382  0.00  0.00    +0.000 A 
ATOM     29  N   UNL     1      52.729   3.189  18.622  0.00  0.00    +0.000 NA
ATOM     30  C   UNL     1      51.591   3.626  17.975  0.00  0.00    +0.000 A 
ATOM     31  O   UNL     1      50.552   2.977  17.935  0.00  0.00    +0.000 OA
ATOM     32  C   UNL     1      51.606   4.949  17.313  0.00  0.00    +0.000 A 
ATOM     33  C   UNL     1      50.442   5.607  16.924  0.00  0.00    +0.000 A 
ATOM     34  H   UNL     1      54.852   5.401  17.465  0.00  0.00    +0.000 HD
ENDBRANCH  20  23
ENDBRANCH  18  19
ENDBRANCH   4  18
TORSDOF 6
ENDMDL
MODEL 7
REMARK VINA RESULT:    -7.378      4.344      5.906
REMARK INTER + INTRA:         -10.725
REMARK INTER:                  -9.921
REMARK INTRA:                  -0.804
REMARK UNBOUND:                -0.760
REMARK  Name = 
REMARK  6 active torsions:
REMARK  status: ('A' for Active; 'I' for Inactive)
REMARK    1  A    between atoms: C_2  and  C_26
REMARK    2  A    between atoms: N_3  and  C_4
REMARK    3  A    between atoms: C_4  and  C_5
REMARK    4  A    between atoms: C_8  and  C_9
REMARK    5  A    between atoms: C_9  and  N_10
REMARK    6  A    between atoms: C_11  and  C_13
REMARK                            x       y       z     vdW  Elec       q    Type
REMARK                         _______ _______ _______ _____ _____    ______ ____
ROOT
ATOM      1  C   UNL     1      44.661   5.069  11.745  0.00  0.00    +0.000 A 
ATOM      2  C   UNL     1      44.319   6.423  11.682  0.00  0.00    +0.000 A 
ATOM      3  C   UNL     1      45.100   7.391  12.327  0.00  0.00    +0.000 A 
ATOM      4  C   UNL     1      46.261   7.030  13.029  0.00  0.00    +0.000 A 
ATOM      5  C   UNL     1      46.600   5.670  13.084  0.00  0.00    +0.000 A 
ATOM      6  C   UNL     1      45.816   4.703  12.444  0.00  0.00    +0.000 A 
ENDROOT
BRANCH   1   7
ATOM      7  C   UNL     1      43.799   4.044  11.062  0.00  0.00    +0.000 C 
BRANCH   7  10
ATOM      8  O   UNL     1      44.698   4.964   8.584  0.00  0.00    +0.000 OA
ATOM      9  C   UNL     1      44.959   3.815   8.925  0.00  0.00    +0.000 C 
ATOM     10  N   UNL     1      44.560   3.264  10.120  0.00  0.00    +0.000 N 
ATOM     11  H   UNL     1      45.015   2.425  10.455  0.00  0.00    +0.000 HD
BRANCH   9  12
ATOM     12  C   UNL     1      45.801   2.943   8.067  0.00  0.00    +0.000 A 
ATOM     13  C   UNL     1      45.938   1.597   8.421  0.00  0.00    +0.000 A 
ATOM     14  C   UNL     1      46.671   0.734   7.607  0.00  0.00    +0.000 A 
ATOM     15  C   UNL     1      47.281   1.218   6.450  0.00  0.00    +0.000 A 
ATOM     16  C   UNL     1      47.176   2.568   6.112  0.00  0.00    +0.000 A 
ATOM     17  C   UNL     1      46.439   3.435   6.921  0.00  0.00    +0.000 A 
ENDBRANCH   9  12
ENDBRANCH   7  10
ENDBRANCH   1   7
BRANCH   4  18
ATOM     18  C   UNL     1      47.170   8.047  13.685  0.00  0.00    +0.000 C 
BRANCH  18  19
ATOM     19  N   UNL     1      48.570   7.888  13.351  0.00  0.00    +0.000 N 
ATOM     20  C   UNL     1      49.158   8.695  12.391  0.00  0.00    +0.000 C 
ATOM     21  O   UNL     1      48.586   9.567  11.771  0.00  0.00    +0.000 OA
ATOM     22  H   UNL     1      49.172   7.482  14.050  0.00  0.00    +0.000 HD
BRANCH  20  23
ATOM     23  C   UNL     1      50.610   8.453  12.191  0.00  0.00    +0.000 A 
ATOM     24  C   UNL     1      51.529   8.774  13.185  0.00  0.00    +0.000 A 
ATOM     25  N   UNL     1      52.866   8.532  13.086  0.00  0.00    +0.000 NA
ATOM     26  C   UNL     1      53.300   7.943  11.951  0.00  0.00    +0.000 A 
ATOM     27  N   UNL     1      54.642   7.605  11.843  0.00  0.00    +0.000 N 
ATOM     28  C   UNL     1      55.023   6.800  10.819  0.00  0.00    +0.000 A 
ATOM     29  N   UNL     1      54.315   6.461   9.797  0.00  0.00    +0.000 NA
ATOM     30  C   UNL     1      53.040   6.983   9.708  0.00  0.00    +0.000 A 
ATOM     31  O   UNL     1      52.363   6.929   8.689  0.00  0.00    +0.000 OA
ATOM     32  C   UNL     1      52.443   7.621  10.903  0.00  0.00    +0.000 A 
ATOM     33  C   UNL     1      51.080   7.880  11.012  0.00  0.00    +0.000 A 
ATOM     34  H   UNL     1      55.212   7.789  12.655  0.00  0.00    +0.000 HD
ENDBRANCH  20  23
ENDBRANCH  18  19
ENDBRANCH   4  18
TORSDOF 6
ENDMDL
MODEL 8
REMARK VINA RESULT:    -7.329      3.628      4.964
REMARK INTER + INTRA:         -10.660
REMARK INTER:                  -9.985
REMARK INTRA:                  -0.675
REMARK UNBOUND:                -0.760
REMARK  Name = 
REMARK  6 active torsions:
REMARK  status: ('A' for Active; 'I' for Inactive)
REMARK    1  A    between atoms: C_2  and  C_26
REMARK    2  A    between atoms: N_3  and  C_4
REMARK    3  A    between atoms: C_4  and  C_5
REMARK    4  A    between atoms: C_8  and  C_9
REMARK    5  A    between atoms: C_9  and  N_10
REMARK    6  A    between atoms: C_11  and  C_13
REMARK                            x       y       z     vdW  Elec       q    Type
REMARK                         _______ _______ _______ _____ _____    ______ ____
ROOT
ATOM      1  C   UNL     1      44.508   4.792  11.764  0.00  0.00    +0.000 A 
ATOM      2  C   UNL     1      45.563   4.725  12.678  0.00  0.00    +0.000 A 
ATOM      3  C   UNL     1      46.162   5.893  13.167  0.00  0.00    +0.000 A 
ATOM      4  C   UNL     1      45.703   7.160  12.773  0.00  0.00    +0.000 A 
ATOM      5  C   UNL     1      44.641   7.219  11.858  0.00  0.00    +0.000 A 
ATOM      6  C   UNL     1      44.046   6.051  11.365  0.00  0.00    +0.000 A 
ENDROOT
BRANCH   1   7
ATOM      7  C   UNL     1      43.890   3.527  11.236  0.00  0.00    +0.000 C 
BRANCH   7  10
ATOM      8  O   UNL     1      44.103   4.343   8.575  0.00  0.00    +0.000 OA
ATOM      9  C   UNL     1      44.770   3.389   8.961  0.00  0.00    +0.000 C 
ATOM     10  N   UNL     1      44.734   2.905  10.248  0.00  0.00    +0.000 N 
ATOM     11  H   UNL     1      45.480   2.303  10.570  0.00  0.00    +0.000 HD
BRANCH   9  12
ATOM     12  C   UNL     1      45.731   2.719   8.050  0.00  0.00    +0.000 A 
ATOM     13  C   UNL     1      46.096   1.397   8.327  0.00  0.00    +0.000 A 
ATOM     14  C   UNL     1      46.949   0.714   7.460  0.00  0.00    +0.000 A 
ATOM     15  C   UNL     1      47.451   1.355   6.328  0.00  0.00    +0.000 A 
ATOM     16  C   UNL     1      47.116   2.685   6.067  0.00  0.00    +0.000 A 
ATOM     17  C   UNL     1      46.259   3.371   6.929  0.00  0.00    +0.000 A 
ENDBRANCH   9  12
ENDBRANCH   7  10
ENDBRANCH   1   7
BRANCH   4  18
ATOM     18  C   UNL     1      46.276   8.447  13.325  0.00  0.00    +0.000 C 
BRANCH  18  19
ATOM     19  N   UNL     1      47.661   8.347  13.737  0.00  0.00    +0.000 N 
ATOM     20  C   UNL     1      48.682   8.527  12.818  0.00  0.00    +0.000 C 
ATOM     21  O   UNL     1      48.521   8.774  11.640  0.00  0.00    +0.000 OA
ATOM     22  H   UNL     1      47.872   8.523  14.707  0.00  0.00    +0.000 HD
BRANCH  20  23
ATOM     23  C   UNL     1      50.048   8.445  13.394  0.00  0.00    +0.000 A 
ATOM     24  C   UNL     1      50.249   7.961  14.683  0.00  0.00    +0.000 A 
ATOM     25  N   UNL     1      51.477   7.813  15.252  0.00  0.00    +0.000 NA
ATOM     26  C   UNL     1      52.546   8.158  14.503  0.00  0.00    +0.000 A 
ATOM     27  N   UNL     1      53.819   7.946  15.015  0.00  0.00    +0.000 N 
ATOM     28  C   UNL     1      54.878   8.060  14.174  0.00  0.00    +0.000 A 
ATOM     29  N   UNL     1      54.869   8.544  12.980  0.00  0.00    +0.000 NA
ATOM     30  C   UNL     1      53.667   9.021  12.499  0.00  0.00    +0.000 A 
ATOM     31  O   UNL     1      53.575   9.708  11.489  0.00  0.00    +0.000 OA
ATOM     32  C   UNL     1      52.420   8.676  13.218  0.00  0.00    +0.000 A 
ATOM     33  C   UNL     1      51.159   8.831  12.649  0.00  0.00    +0.000 A 
ATOM     34  H   UNL     1      53.864   7.500  15.919  0.00  0.00    +0.000 HD
ENDBRANCH  20  23
ENDBRANCH  18  19
ENDBRANCH   4  18
TORSDOF 6
ENDMDL
MODEL 9
REMARK VINA RESULT:    -7.305      4.801      6.633
REMARK INTER + INTRA:         -10.627
REMARK INTER:                  -9.995
REMARK INTRA:                  -0.632
REMARK UNBOUND:                -0.760
REMARK  Name = 
REMARK  6 active torsions:
REMARK  status: ('A' for Active; 'I' for Inactive)
REMARK    1  A    between atoms: C_2  and  C_26
REMARK    2  A    between atoms: N_3  and  C_4
REMARK    3  A    between atoms: C_4  and  C_5
REMARK    4  A    between atoms: C_8  and  C_9
REMARK    5  A    between atoms: C_9  and  N_10
REMARK    6  A    between atoms: C_11  and  C_13
REMARK                            x       y       z     vdW  Elec       q    Type
REMARK                         _______ _______ _______ _____ _____    ______ ____
ROOT
ATOM      1  C   UNL     1      44.683   4.617  11.950  0.00  0.00    +0.000 A 
ATOM      2  C   UNL     1      43.893   5.767  11.863  0.00  0.00    +0.000 A 
ATOM      3  C   UNL     1      44.384   7.008  12.287  0.00  0.00    +0.000 A 
ATOM      4  C   UNL     1      45.691   7.135  12.785  0.00  0.00    +0.000 A 
ATOM      5  C   UNL     1      46.478   5.977  12.867  0.00  0.00    +0.000 A 
ATOM      6  C   UNL     1      45.985   4.736  12.447  0.00  0.00    +0.000 A 
ENDROOT
BRANCH   1   7
ATOM      7  C   UNL     1      44.130   3.291  11.508  0.00  0.00    +0.000 C 
BRANCH   7  10
ATOM      8  O   UNL     1      44.057   4.204   8.871  0.00  0.00    +0.000 OA
ATOM      9  C   UNL     1      44.794   3.266   9.157  0.00  0.00    +0.000 C 
ATOM     10  N   UNL     1      44.900   2.738  10.423  0.00  0.00    +0.000 N 
ATOM     11  H   UNL     1      45.696   2.158  10.652  0.00  0.00    +0.000 HD
BRANCH   9  12
ATOM     12  C   UNL     1      45.690   2.667   8.136  0.00  0.00    +0.000 A 
ATOM     13  C   UNL     1      46.063   3.452   7.039  0.00  0.00    +0.000 A 
ATOM     14  C   UNL     1      46.952   2.944   6.092  0.00  0.00    +0.000 A 
ATOM     15  C   UNL     1      47.453   1.650   6.229  0.00  0.00    +0.000 A 
ATOM     16  C   UNL     1      47.056   0.853   7.303  0.00  0.00    +0.000 A 
ATOM     17  C   UNL     1      46.170   1.357   8.257  0.00  0.00    +0.000 A 
ENDBRANCH   9  12
ENDBRANCH   7  10
ENDBRANCH   1   7
BRANCH   4  18
ATOM     18  C   UNL     1      46.286   8.465  13.194  0.00  0.00    +0.000 C 
BRANCH  18  19
ATOM     19  N   UNL     1      47.642   8.672  12.730  0.00  0.00    +0.000 N 
ATOM     20  C   UNL     1      48.031   9.901  12.223  0.00  0.00    +0.000 C 
ATOM     21  O   UNL     1      47.309  10.871  12.124  0.00  0.00    +0.000 OA
ATOM     22  H   UNL     1      48.360   8.079  13.116  0.00  0.00    +0.000 HD
BRANCH  20  23
ATOM     23  C   UNL     1      49.462   9.979  11.835  0.00  0.00    +0.000 A 
ATOM     24  C   UNL     1      50.420   9.209  12.488  0.00  0.00    +0.000 A 
ATOM     25  N   UNL     1      51.739   9.196  12.149  0.00  0.00    +0.000 NA
ATOM     26  C   UNL     1      52.115   9.980  11.115  0.00  0.00    +0.000 A 
ATOM     27  N   UNL     1      53.434   9.933  10.685  0.00  0.00    +0.000 N 
ATOM     28  C   UNL     1      53.748  10.526   9.505  0.00  0.00    +0.000 A 
ATOM     29  N   UNL     1      52.999  11.313   8.812  0.00  0.00    +0.000 NA
ATOM     30  C   UNL     1      51.752  11.614   9.322  0.00  0.00    +0.000 A 
ATOM     31  O   UNL     1      51.050  12.518   8.886  0.00  0.00    +0.000 OA
ATOM     32  C   UNL     1      51.218  10.797  10.435  0.00  0.00    +0.000 A 
ATOM     33  C   UNL     1      49.873  10.808  10.795  0.00  0.00    +0.000 A 
ATOM     34  H   UNL     1      54.032   9.273  11.159  0.00  0.00    +0.000 HD
ENDBRANCH  20  23
ENDBRANCH  18  19
ENDBRANCH   4  18
TORSDOF 6
ENDMDL
