MODEL 1
REMARK VINA RESULT:    -6.567      0.000      0.000
REMARK INTER + INTRA:          -8.726
REMARK INTER:                  -8.102
REMARK INTRA:                  -0.624
REMARK UNBOUND:                -0.624
REMARK  Name = 
REMARK  4 active torsions:
REMARK  status: ('A' for Active; 'I' for Inactive)
REMARK    1  A    between atoms: C_2  and  C_4
REMARK    2  A    between atoms: C_8  and  S_9
REMARK    3  A    between atoms: S_9  and  C_10
REMARK    4  A    between atoms: C_10  and  C_11
REMARK                            x       y       z     vdW  Elec       q    Type
REMARK                         _______ _______ _______ _____ _____    ______ ____
ROOT
ATOM      1  C   UNL     1      49.288   7.152  13.835  0.00  0.00    +0.000 C 
ENDROOT
BRANCH   1   2
ATOM      2  C   UNL     1      47.843   7.384  13.434  0.00  0.00    +0.000 A 
ATOM      3  C   UNL     1      47.313   8.669  13.391  0.00  0.00    +0.000 A 
ATOM      4  C   UNL     1      46.001   8.820  12.976  0.00  0.00    +0.000 A 
ATOM      5  N   UNL     1      45.201   7.798  12.594  0.00  0.00    +0.000 NA
ATOM      6  C   UNL     1      45.686   6.540  12.655  0.00  0.00    +0.000 A 
ATOM      7  N   UNL     1      44.941   5.497  12.146  0.00  0.00    +0.000 N 
ATOM      8  C   UNL     1      44.978   4.141  12.705  0.00  0.00    +0.000 C 
ATOM      9  C   UNL     1      44.763   3.132  11.564  0.00  0.00    +0.000 C 
ATOM     10  O   UNL     1      43.538   3.390  10.856  0.00  0.00    +0.000 OA
ATOM     11  C   UNL     1      43.547   4.722  10.308  0.00  0.00    +0.000 C 
ATOM     12  C   UNL     1      43.709   5.790  11.406  0.00  0.00    +0.000 C 
ATOM     13  C   UNL     1      46.986   6.321  13.109  0.00  0.00    +0.000 A 
ENDBRANCH   1   2
BRANCH   1  14
ATOM     14  S   UNL     1      49.719   7.946  15.428  0.00  0.00    +0.000 S 
BRANCH  14  19
ATOM     15  C   UNL     1      47.812   4.881  17.214  0.00  0.00    +0.000 A 
ATOM     16  C   UNL     1      47.516   5.348  18.497  0.00  0.00    +0.000 A 
ATOM     17  C   UNL     1      47.860   6.652  18.856  0.00  0.00    +0.000 A 
ATOM     18  C   UNL     1      48.513   7.490  17.944  0.00  0.00    +0.000 A 
ATOM     19  C   UNL     1      48.831   7.030  16.666  0.00  0.00    +0.000 A 
ATOM     20  C   UNL     1      48.468   5.721  16.308  0.00  0.00    +0.000 A 
BRANCH  15  22
ATOM     21  N   UNL     1      46.932   2.659  17.698  0.00  0.00    +0.000 N 
ATOM     22  C   UNL     1      47.498   3.495  16.778  0.00  0.00    +0.000 C 
ATOM     23  O   UNL     1      47.700   3.118  15.632  0.00  0.00    +0.000 OA
ATOM     24  H   UNL     1      46.628   1.758  17.349  0.00  0.00    +0.000 HD
ATOM     25  H   UNL     1      46.514   2.995  18.552  0.00  0.00    +0.000 HD
ENDBRANCH  15  22
ENDBRANCH  14  19
ENDBRANCH   1  14
TORSDOF 4
ENDMDL
MODEL 2
REMARK VINA RESULT:    -6.416      2.511      6.588
REMARK INTER + INTRA:          -8.540
REMARK INTER:                  -8.018
REMARK INTRA:                  -0.522
REMARK UNBOUND:                -0.624
REMARK  Name = 
REMARK  4 active torsions:
REMARK  status: ('A' for Active; 'I' for Inactive)
REMARK    1  A    between atoms: C_2  and  C_4
REMARK    2  A    between atoms: C_8  and  S_9
REMARK    3  A    between atoms: S_9  and  C_10
REMARK    4  A    between atoms: C_10  and  C_11
REMARK                            x       y       z     vdW  Elec       q    Type
REMARK                         _______ _______ _______ _____ _____    ______ ____
ROOT
ATOM      1  C   UNL     1      47.057   6.844  11.532  0.00  0.00    +0.000 C 
ENDROOT
BRANCH   1   2
ATOM      2  C   UNL     1      47.990   7.054  12.710  0.00  0.00    +0.000 A 
ATOM      3  C   UNL     1      48.984   8.026  12.666  0.00  0.00    +0.000 A 
ATOM      4  C   UNL     1      49.776   8.200  13.788  0.00  0.00    +0.000 A 
ATOM      5  N   UNL     1      49.638   7.495  14.934  0.00  0.00    +0.000 NA
ATOM      6  C   UNL     1      48.697   6.528  14.989  0.00  0.00    +0.000 A 
ATOM      7  N   UNL     1      48.445   5.889  16.185  0.00  0.00    +0.000 N 
ATOM      8  C   UNL     1      48.023   4.486  16.268  0.00  0.00    +0.000 C 
ATOM      9  C   UNL     1      47.096   4.323  17.485  0.00  0.00    +0.000 C 
ATOM     10  O   UNL     1      47.733   4.767  18.696  0.00  0.00    +0.000 OA
ATOM     11  C   UNL     1      48.116   6.150  18.581  0.00  0.00    +0.000 C 
ATOM     12  C   UNL     1      49.088   6.379  17.409  0.00  0.00    +0.000 C 
ATOM     13  C   UNL     1      47.900   6.276  13.874  0.00  0.00    +0.000 A 
ENDBRANCH   1   2
BRANCH   1  14
ATOM     14  S   UNL     1      45.296   7.092  11.968  0.00  0.00    +0.000 S 
BRANCH  14  19
ATOM     15  C   UNL     1      44.252   3.507  10.459  0.00  0.00    +0.000 A 
ATOM     16  C   UNL     1      43.566   2.872  11.497  0.00  0.00    +0.000 A 
ATOM     17  C   UNL     1      43.361   3.543  12.704  0.00  0.00    +0.000 A 
ATOM     18  C   UNL     1      43.850   4.842  12.884  0.00  0.00    +0.000 A 
ATOM     19  C   UNL     1      44.553   5.480  11.862  0.00  0.00    +0.000 A 
ATOM     20  C   UNL     1      44.742   4.803  10.647  0.00  0.00    +0.000 A 
BRANCH  15  22
ATOM     21  N   UNL     1      44.320   3.564   8.022  0.00  0.00    +0.000 N 
ATOM     22  C   UNL     1      44.529   2.838   9.160  0.00  0.00    +0.000 C 
ATOM     23  O   UNL     1      44.961   1.695   9.102  0.00  0.00    +0.000 OA
ATOM     24  H   UNL     1      44.617   3.127   7.158  0.00  0.00    +0.000 HD
ATOM     25  H   UNL     1      44.222   4.568   8.028  0.00  0.00    +0.000 HD
ENDBRANCH  15  22
ENDBRANCH  14  19
ENDBRANCH   1  14
TORSDOF 4
ENDMDL
MODEL 3
REMARK VINA RESULT:    -6.013      2.048      2.389
REMARK INTER + INTRA:          -8.043
REMARK INTER:                  -7.741
REMARK INTRA:                  -0.302
REMARK UNBOUND:                -0.624
REMARK  Name = 
REMARK  4 active torsions:
REMARK  status: ('A' for Active; 'I' for Inactive)
REMARK    1  A    between atoms: C_2  and  C_4
REMARK    2  A    between atoms: C_8  and  S_9
REMARK    3  A    between atoms: S_9  and  C_10
REMARK    4  A    between atoms: C_10  and  C_11
REMARK                            x       y       z     vdW  Elec       q    Type
REMARK                         _______ _______ _______ _____ _____    ______ ____
ROOT
ATOM      1  C   UNL     1      48.459   5.932  15.473  0.00  0.00    +0.000 C 
ENDROOT
BRANCH   1   2
ATOM      2  C   UNL     1      47.853   6.169  14.102  0.00  0.00    +0.000 A 
ATOM      3  C   UNL     1      48.434   7.067  13.213  0.00  0.00    +0.000 A 
ATOM      4  C   UNL     1      47.861   7.208  11.961  0.00  0.00    +0.000 A 
ATOM      5  N   UNL     1      46.778   6.518  11.537  0.00  0.00    +0.000 NA
ATOM      6  C   UNL     1      46.181   5.661  12.393  0.00  0.00    +0.000 A 
ATOM      7  N   UNL     1      45.162   4.847  11.945  0.00  0.00    +0.000 N 
ATOM      8  C   UNL     1      44.045   4.424  12.796  0.00  0.00    +0.000 C 
ATOM      9  C   UNL     1      43.600   3.018  12.360  0.00  0.00    +0.000 C 
ATOM     10  O   UNL     1      43.257   2.983  10.964  0.00  0.00    +0.000 OA
ATOM     11  C   UNL     1      44.382   3.388  10.162  0.00  0.00    +0.000 C 
ATOM     12  C   UNL     1      44.851   4.813  10.512  0.00  0.00    +0.000 C 
ATOM     13  C   UNL     1      46.686   5.511  13.684  0.00  0.00    +0.000 A 
ENDBRANCH   1   2
BRANCH   1  14
ATOM     14  S   UNL     1      49.081   7.469  16.250  0.00  0.00    +0.000 S 
BRANCH  14  19
ATOM     15  C   UNL     1      48.155   6.081  19.916  0.00  0.00    +0.000 A 
ATOM     16  C   UNL     1      47.629   7.185  20.590  0.00  0.00    +0.000 A 
ATOM     17  C   UNL     1      47.501   8.406  19.925  0.00  0.00    +0.000 A 
ATOM     18  C   UNL     1      47.908   8.533  18.592  0.00  0.00    +0.000 A 
ATOM     19  C   UNL     1      48.453   7.443  17.913  0.00  0.00    +0.000 A 
ATOM     20  C   UNL     1      48.565   6.216  18.585  0.00  0.00    +0.000 A 
BRANCH  15  22
ATOM     21  N   UNL     1      48.558   3.680  19.766  0.00  0.00    +0.000 N 
ATOM     22  C   UNL     1      48.344   4.761  20.574  0.00  0.00    +0.000 C 
ATOM     23  O   UNL     1      48.346   4.642  21.791  0.00  0.00    +0.000 OA
ATOM     24  H   UNL     1      48.791   2.815  20.238  0.00  0.00    +0.000 HD
ATOM     25  H   UNL     1      48.823   3.770  18.797  0.00  0.00    +0.000 HD
ENDBRANCH  15  22
ENDBRANCH  14  19
ENDBRANCH   1  14
TORSDOF 4
ENDMDL
MODEL 4
REMARK VINA RESULT:    -5.954      1.860      2.300
REMARK INTER + INTRA:          -7.970
REMARK INTER:                  -7.289
REMARK INTRA:                  -0.681
REMARK UNBOUND:                -0.624
REMARK  Name = 
REMARK  4 active torsions:
REMARK  status: ('A' for Active; 'I' for Inactive)
REMARK    1  A    between atoms: C_2  and  C_4
REMARK    2  A    between atoms: C_8  and  S_9
REMARK    3  A    between atoms: S_9  and  C_10
REMARK    4  A    between atoms: C_10  and  C_11
REMARK                            x       y       z     vdW  Elec       q    Type
REMARK                         _______ _______ _______ _____ _____    ______ ____
ROOT
ATOM      1  C   UNL     1      49.164   8.160  15.501  0.00  0.00    +0.000 C 
ENDROOT
BRANCH   1   2
ATOM      2  C   UNL     1      48.771   7.903  14.059  0.00  0.00    +0.000 A 
ATOM      3  C   UNL     1      49.649   8.190  13.019  0.00  0.00    +0.000 A 
ATOM      4  C   UNL     1      49.250   7.893  11.727  0.00  0.00    +0.000 A 
ATOM      5  N   UNL     1      48.064   7.326  11.408  0.00  0.00    +0.000 NA
ATOM      6  C   UNL     1      47.185   7.064  12.399  0.00  0.00    +0.000 A 
ATOM      7  N   UNL     1      46.030   6.365  12.119  0.00  0.00    +0.000 N 
ATOM      8  C   UNL     1      44.767   6.589  12.833  0.00  0.00    +0.000 C 
ATOM      9  C   UNL     1      44.003   5.256  12.909  0.00  0.00    +0.000 C 
ATOM     10  O   UNL     1      43.791   4.695  11.602  0.00  0.00    +0.000 OA
ATOM     11  C   UNL     1      45.051   4.475  10.941  0.00  0.00    +0.000 C 
ATOM     12  C   UNL     1      45.851   5.782  10.785  0.00  0.00    +0.000 C 
ATOM     13  C   UNL     1      47.513   7.384  13.716  0.00  0.00    +0.000 A 
ENDBRANCH   1   2
BRANCH   1  14
ATOM     14  S   UNL     1      50.773   7.406  15.944  0.00  0.00    +0.000 S 
BRANCH  14  19
ATOM     15  C   UNL     1      48.656   4.133  16.956  0.00  0.00    +0.000 A 
ATOM     16  C   UNL     1      49.537   3.363  17.719  0.00  0.00    +0.000 A 
ATOM     17  C   UNL     1      50.821   3.842  17.987  0.00  0.00    +0.000 A 
ATOM     18  C   UNL     1      51.234   5.082  17.487  0.00  0.00    +0.000 A 
ATOM     19  C   UNL     1      50.369   5.852  16.708  0.00  0.00    +0.000 A 
ATOM     20  C   UNL     1      49.076   5.369  16.455  0.00  0.00    +0.000 A 
BRANCH  15  22
ATOM     21  N   UNL     1      46.878   3.823  15.317  0.00  0.00    +0.000 N 
ATOM     22  C   UNL     1      47.286   3.669  16.611  0.00  0.00    +0.000 C 
ATOM     23  O   UNL     1      46.559   3.136  17.437  0.00  0.00    +0.000 OA
ATOM     24  H   UNL     1      45.987   3.403  15.081  0.00  0.00    +0.000 HD
ATOM     25  H   UNL     1      47.521   4.008  14.562  0.00  0.00    +0.000 HD
ENDBRANCH  15  22
ENDBRANCH  14  19
ENDBRANCH   1  14
TORSDOF 4
ENDMDL
MODEL 5
REMARK VINA RESULT:    -5.636      2.303      5.820
REMARK INTER + INTRA:          -7.577
REMARK INTER:                  -6.736
REMARK INTRA:                  -0.842
REMARK UNBOUND:                -0.624
REMARK  Name = 
REMARK  4 active torsions:
REMARK  status: ('A' for Active; 'I' for Inactive)
REMARK    1  A    between atoms: C_2  and  C_4
REMARK    2  A    between atoms: C_8  and  S_9
REMARK    3  A    between atoms: S_9  and  C_10
REMARK    4  A    between atoms: C_10  and  C_11
REMARK                            x       y       z     vdW  Elec       q    Type
REMARK                         _______ _______ _______ _____ _____    ______ ____
ROOT
ATOM      1  C   UNL     1      49.387   9.263  14.530  0.00  0.00    +0.000 C 
ENDROOT
BRANCH   1   2
ATOM      2  C   UNL     1      48.988   8.708  15.885  0.00  0.00    +0.000 A 
ATOM      3  C   UNL     1      48.206   9.456  16.758  0.00  0.00    +0.000 A 
ATOM      4  C   UNL     1      47.838   8.879  17.962  0.00  0.00    +0.000 A 
ATOM      5  N   UNL     1      48.179   7.626  18.341  0.00  0.00    +0.000 NA
ATOM      6  C   UNL     1      48.961   6.893  17.521  0.00  0.00    +0.000 A 
ATOM      7  N   UNL     1      49.209   5.569  17.819  0.00  0.00    +0.000 N 
ATOM      8  C   UNL     1      50.468   4.896  17.477  0.00  0.00    +0.000 C 
ATOM      9  C   UNL     1      50.168   3.417  17.178  0.00  0.00    +0.000 C 
ATOM     10  O   UNL     1      49.499   2.781  18.281  0.00  0.00    +0.000 OA
ATOM     11  C   UNL     1      48.262   3.459  18.574  0.00  0.00    +0.000 C 
ATOM     12  C   UNL     1      48.493   4.939  18.933  0.00  0.00    +0.000 C 
ATOM     13  C   UNL     1      49.400   7.438  16.315  0.00  0.00    +0.000 A 
ENDBRANCH   1   2
BRANCH   1  14
ATOM     14  S   UNL     1      49.545   7.964  13.249  0.00  0.00    +0.000 S 
BRANCH  14  19
ATOM     15  C   UNL     1      46.543   5.283  13.103  0.00  0.00    +0.000 A 
ATOM     16  C   UNL     1      45.397   6.047  12.867  0.00  0.00    +0.000 A 
ATOM     17  C   UNL     1      45.508   7.429  12.704  0.00  0.00    +0.000 A 
ATOM     18  C   UNL     1      46.757   8.055  12.789  0.00  0.00    +0.000 A 
ATOM     19  C   UNL     1      47.906   7.306  13.042  0.00  0.00    +0.000 A 
ATOM     20  C   UNL     1      47.787   5.915  13.190  0.00  0.00    +0.000 A 
BRANCH  15  22
ATOM     21  N   UNL     1      45.528   3.115  12.640  0.00  0.00    +0.000 N 
ATOM     22  C   UNL     1      46.490   3.812  13.313  0.00  0.00    +0.000 C 
ATOM     23  O   UNL     1      47.295   3.235  14.031  0.00  0.00    +0.000 OA
ATOM     24  H   UNL     1      45.581   2.106  12.713  0.00  0.00    +0.000 HD
ATOM     25  H   UNL     1      45.027   3.501  11.854  0.00  0.00    +0.000 HD
ENDBRANCH  15  22
ENDBRANCH  14  19
ENDBRANCH   1  14
TORSDOF 4
ENDMDL
MODEL 6
REMARK VINA RESULT:    -5.584      1.748      2.197
REMARK INTER + INTRA:          -7.513
REMARK INTER:                  -6.957
REMARK INTRA:                  -0.557
REMARK UNBOUND:                -0.624
REMARK  Name = 
REMARK  4 active torsions:
REMARK  status: ('A' for Active; 'I' for Inactive)
REMARK    1  A    between atoms: C_2  and  C_4
REMARK    2  A    between atoms: C_8  and  S_9
REMARK    3  A    between atoms: S_9  and  C_10
REMARK    4  A    between atoms: C_10  and  C_11
REMARK                            x       y       z     vdW  Elec       q    Type
REMARK                         _______ _______ _______ _____ _____    ______ ____
ROOT
ATOM      1  C   UNL     1      49.099   7.209  14.001  0.00  0.00    +0.000 C 
ENDROOT
BRANCH   1   2
ATOM      2  C   UNL     1      47.679   7.446  13.525  0.00  0.00    +0.000 A 
ATOM      3  C   UNL     1      47.182   8.737  13.377  0.00  0.00    +0.000 A 
ATOM      4  C   UNL     1      45.893   8.889  12.897  0.00  0.00    +0.000 A 
ATOM      5  N   UNL     1      45.084   7.862  12.547  0.00  0.00    +0.000 NA
ATOM      6  C   UNL     1      45.535   6.600  12.709  0.00  0.00    +0.000 A 
ATOM      7  N   UNL     1      44.787   5.542  12.236  0.00  0.00    +0.000 N 
ATOM      8  C   UNL     1      44.768   4.225  12.882  0.00  0.00    +0.000 C 
ATOM      9  C   UNL     1      44.576   3.150  11.799  0.00  0.00    +0.000 C 
ATOM     10  O   UNL     1      43.388   3.388  11.024  0.00  0.00    +0.000 OA
ATOM     11  C   UNL     1      43.453   4.681  10.393  0.00  0.00    +0.000 C 
ATOM     12  C   UNL     1      43.594   5.814  11.426  0.00  0.00    +0.000 C 
ATOM     13  C   UNL     1      46.810   6.383  13.231  0.00  0.00    +0.000 A 
ENDBRANCH   1   2
BRANCH   1  14
ATOM     14  S   UNL     1      49.363   7.734  15.736  0.00  0.00    +0.000 S 
BRANCH  14  19
ATOM     15  C   UNL     1      48.072   5.726  18.979  0.00  0.00    +0.000 A 
ATOM     16  C   UNL     1      47.672   4.481  18.489  0.00  0.00    +0.000 A 
ATOM     17  C   UNL     1      47.821   4.191  17.132  0.00  0.00    +0.000 A 
ATOM     18  C   UNL     1      48.355   5.145  16.257  0.00  0.00    +0.000 A 
ATOM     19  C   UNL     1      48.740   6.399  16.731  0.00  0.00    +0.000 A 
ATOM     20  C   UNL     1      48.601   6.677  18.100  0.00  0.00    +0.000 A 
BRANCH  15  22
ATOM     21  N   UNL     1      46.882   5.543  21.100  0.00  0.00    +0.000 N 
ATOM     22  C   UNL     1      47.915   6.108  20.408  0.00  0.00    +0.000 C 
ATOM     23  O   UNL     1      48.696   6.870  20.961  0.00  0.00    +0.000 OA
ATOM     24  H   UNL     1      46.860   5.732  22.095  0.00  0.00    +0.000 HD
ATOM     25  H   UNL     1      46.387   4.729  20.768  0.00  0.00    +0.000 HD
ENDBRANCH  15  22
ENDBRANCH  14  19
ENDBRANCH   1  14
TORSDOF 4
ENDMDL
MODEL 7
REMARK VINA RESULT:    -5.540      2.204      2.400
REMARK INTER + INTRA:          -7.459
REMARK INTER:                  -6.928
REMARK INTRA:                  -0.531
REMARK UNBOUND:                -0.624
REMARK  Name = 
REMARK  4 active torsions:
REMARK  status: ('A' for Active; 'I' for Inactive)
REMARK    1  A    between atoms: C_2  and  C_4
REMARK    2  A    between atoms: C_8  and  S_9
REMARK    3  A    between atoms: S_9  and  C_10
REMARK    4  A    between atoms: C_10  and  C_11
REMARK                            x       y       z     vdW  Elec       q    Type
REMARK                         _______ _______ _______ _____ _____    ______ ____
ROOT
ATOM      1  C   UNL     1      49.369   7.227  13.559  0.00  0.00    +0.000 C 
ENDROOT
BRANCH   1   2
ATOM      2  C   UNL     1      47.884   7.392  13.300  0.00  0.00    +0.000 A 
ATOM      3  C   UNL     1      47.279   8.642  13.392  0.00  0.00    +0.000 A 
ATOM      4  C   UNL     1      45.929   8.737  13.102  0.00  0.00    +0.000 A 
ATOM      5  N   UNL     1      45.157   7.694  12.719  0.00  0.00    +0.000 NA
ATOM      6  C   UNL     1      45.717   6.467  12.650  0.00  0.00    +0.000 A 
ATOM      7  N   UNL     1      44.990   5.414  12.134  0.00  0.00    +0.000 N 
ATOM      8  C   UNL     1      45.154   4.030  12.592  0.00  0.00    +0.000 C 
ATOM      9  C   UNL     1      44.896   3.086  11.405  0.00  0.00    +0.000 C 
ATOM     10  O   UNL     1      43.600   3.312  10.824  0.00  0.00    +0.000 OA
ATOM     11  C   UNL     1      43.485   4.674  10.372  0.00  0.00    +0.000 C 
ATOM     12  C   UNL     1      43.682   5.677  11.524  0.00  0.00    +0.000 C 
ATOM     13  C   UNL     1      47.062   6.302  12.975  0.00  0.00    +0.000 A 
ENDBRANCH   1   2
BRANCH   1  14
ATOM     14  S   UNL     1      49.860   7.754  15.243  0.00  0.00    +0.000 S 
BRANCH  14  19
ATOM     15  C   UNL     1      50.920   4.740  17.695  0.00  0.00    +0.000 A 
ATOM     16  C   UNL     1      49.724   4.076  17.977  0.00  0.00    +0.000 A 
ATOM     17  C   UNL     1      48.535   4.509  17.388  0.00  0.00    +0.000 A 
ATOM     18  C   UNL     1      48.532   5.613  16.527  0.00  0.00    +0.000 A 
ATOM     19  C   UNL     1      49.717   6.297  16.252  0.00  0.00    +0.000 A 
ATOM     20  C   UNL     1      50.910   5.845  16.838  0.00  0.00    +0.000 A 
BRANCH  15  22
ATOM     21  N   UNL     1      52.180   3.843  19.580  0.00  0.00    +0.000 N 
ATOM     22  C   UNL     1      52.215   4.347  18.311  0.00  0.00    +0.000 C 
ATOM     23  O   UNL     1      53.272   4.433  17.701  0.00  0.00    +0.000 OA
ATOM     24  H   UNL     1      53.057   3.482  19.937  0.00  0.00    +0.000 HD
ATOM     25  H   UNL     1      51.329   3.515  20.011  0.00  0.00    +0.000 HD
ENDBRANCH  15  22
ENDBRANCH  14  19
ENDBRANCH   1  14
TORSDOF 4
ENDMDL
MODEL 8
REMARK VINA RESULT:    -5.476      2.655      6.864
REMARK INTER + INTRA:          -7.380
REMARK INTER:                  -6.860
REMARK INTRA:                  -0.520
REMARK UNBOUND:                -0.624
REMARK  Name = 
REMARK  4 active torsions:
REMARK  status: ('A' for Active; 'I' for Inactive)
REMARK    1  A    between atoms: C_2  and  C_4
REMARK    2  A    between atoms: C_8  and  S_9
REMARK    3  A    between atoms: S_9  and  C_10
REMARK    4  A    between atoms: C_10  and  C_11
REMARK                            x       y       z     vdW  Elec       q    Type
REMARK                         _______ _______ _______ _____ _____    ______ ____
ROOT
ATOM      1  C   UNL     1      48.021   8.690  13.895  0.00  0.00    +0.000 C 
ENDROOT
BRANCH   1   2
ATOM      2  C   UNL     1      49.136   7.991  14.649  0.00  0.00    +0.000 A 
ATOM      3  C   UNL     1      50.468   8.314  14.412  0.00  0.00    +0.000 A 
ATOM      4  C   UNL     1      51.439   7.673  15.163  0.00  0.00    +0.000 A 
ATOM      5  N   UNL     1      51.177   6.759  16.126  0.00  0.00    +0.000 NA
ATOM      6  C   UNL     1      49.893   6.411  16.354  0.00  0.00    +0.000 A 
ATOM      7  N   UNL     1      49.588   5.587  17.417  0.00  0.00    +0.000 N 
ATOM      8  C   UNL     1      48.474   4.632  17.395  0.00  0.00    +0.000 C 
ATOM      9  C   UNL     1      47.909   4.503  18.819  0.00  0.00    +0.000 C 
ATOM     10  O   UNL     1      48.928   4.120  19.759  0.00  0.00    +0.000 OA
ATOM     11  C   UNL     1      49.994   5.089  19.764  0.00  0.00    +0.000 C 
ATOM     12  C   UNL     1      50.642   5.233  18.374  0.00  0.00    +0.000 C 
ATOM     13  C   UNL     1      48.875   6.989  15.597  0.00  0.00    +0.000 A 
ENDBRANCH   1   2
BRANCH   1  14
ATOM     14  S   UNL     1      47.920   8.176  12.140  0.00  0.00    +0.000 S 
BRANCH  14  19
ATOM     15  C   UNL     1      45.512   5.299  10.675  0.00  0.00    +0.000 A 
ATOM     16  C   UNL     1      45.007   4.650  11.805  0.00  0.00    +0.000 A 
ATOM     17  C   UNL     1      45.361   5.101  13.078  0.00  0.00    +0.000 A 
ATOM     18  C   UNL     1      46.228   6.189  13.229  0.00  0.00    +0.000 A 
ATOM     19  C   UNL     1      46.754   6.834  12.109  0.00  0.00    +0.000 A 
ATOM     20  C   UNL     1      46.382   6.383  10.833  0.00  0.00    +0.000 A 
BRANCH  15  22
ATOM     21  N   UNL     1      43.943   4.364   9.060  0.00  0.00    +0.000 N 
ATOM     22  C   UNL     1      45.197   4.852   9.293  0.00  0.00    +0.000 C 
ATOM     23  O   UNL     1      46.010   4.946   8.384  0.00  0.00    +0.000 OA
ATOM     24  H   UNL     1      43.717   4.168   8.092  0.00  0.00    +0.000 HD
ATOM     25  H   UNL     1      43.176   4.511   9.698  0.00  0.00    +0.000 HD
ENDBRANCH  15  22
ENDBRANCH  14  19
ENDBRANCH   1  14
TORSDOF 4
ENDMDL
MODEL 9
REMARK VINA RESULT:    -5.445      3.140      8.193
REMARK INTER + INTRA:          -7.342
REMARK INTER:                  -7.069
REMARK INTRA:                  -0.273
REMARK UNBOUND:                -0.624
REMARK  Name = 
REMARK  4 active torsions:
REMARK  status: ('A' for Active; 'I' for Inactive)
REMARK    1  A    between atoms: C_2  and  C_4
REMARK    2  A    between atoms: C_8  and  S_9
REMARK    3  A    between atoms: S_9  and  C_10
REMARK    4  A    between atoms: C_10  and  C_11
REMARK                            x       y       z     vdW  Elec       q    Type
REMARK                         _______ _______ _______ _____ _____    ______ ____
ROOT
ATOM      1  C   UNL     1      47.177   5.078  14.856  0.00  0.00    +0.000 C 
ENDROOT
BRANCH   1   2
ATOM      2  C   UNL     1      47.719   4.644  16.205  0.00  0.00    +0.000 A 
ATOM      3  C   UNL     1      47.381   3.407  16.745  0.00  0.00    +0.000 A 
ATOM      4  C   UNL     1      47.941   3.050  17.959  0.00  0.00    +0.000 A 
ATOM      5  N   UNL     1      48.812   3.820  18.652  0.00  0.00    +0.000 NA
ATOM      6  C   UNL     1      49.133   5.035  18.161  0.00  0.00    +0.000 A 
ATOM      7  N   UNL     1      50.117   5.781  18.775  0.00  0.00    +0.000 N 
ATOM      8  C   UNL     1      50.101   7.248  18.814  0.00  0.00    +0.000 C 
ATOM      9  C   UNL     1      51.552   7.756  18.791  0.00  0.00    +0.000 C 
ATOM     10  O   UNL     1      52.325   7.196  19.867  0.00  0.00    +0.000 OA
ATOM     11  C   UNL     1      52.331   5.759  19.784  0.00  0.00    +0.000 C 
ATOM     12  C   UNL     1      50.907   5.176  19.853  0.00  0.00    +0.000 C 
ATOM     13  C   UNL     1      48.564   5.469  16.964  0.00  0.00    +0.000 A 
ENDBRANCH   1   2
BRANCH   1  14
ATOM     14  S   UNL     1      46.941   3.676  13.702  0.00  0.00    +0.000 S 
BRANCH  14  19
ATOM     15  C   UNL     1      44.290   3.790  10.672  0.00  0.00    +0.000 A 
ATOM     16  C   UNL     1      43.173   4.440  11.203  0.00  0.00    +0.000 A 
ATOM     17  C   UNL     1      43.205   4.909  12.517  0.00  0.00    +0.000 A 
ATOM     18  C   UNL     1      44.343   4.720  13.310  0.00  0.00    +0.000 A 
ATOM     19  C   UNL     1      45.457   4.055  12.798  0.00  0.00    +0.000 A 
ATOM     20  C   UNL     1      45.422   3.600  11.471  0.00  0.00    +0.000 A 
BRANCH  15  22
ATOM     21  N   UNL     1      44.244   4.135   8.258  0.00  0.00    +0.000 N 
ATOM     22  C   UNL     1      44.311   3.242   9.290  0.00  0.00    +0.000 C 
ATOM     23  O   UNL     1      44.420   2.043   9.073  0.00  0.00    +0.000 OA
ATOM     24  H   UNL     1      44.369   3.749   7.331  0.00  0.00    +0.000 HD
ATOM     25  H   UNL     1      44.417   5.121   8.382  0.00  0.00    +0.000 HD
ENDBRANCH  15  22
ENDBRANCH  14  19
ENDBRANCH   1  14
TORSDOF 4
ENDMDL
