MODEL 1
REMARK VINA RESULT:    -8.452      0.000      0.000
REMARK INTER + INTRA:         -15.034
REMARK INTER:                 -13.146
REMARK INTRA:                  -1.888
REMARK UNBOUND:                -1.888
REMARK  Name = 
REMARK  10 active torsions:
REMARK  status: ('A' for Active; 'I' for Inactive)
REMARK    1  A    between atoms: C_2  and  C_23
REMARK    2  A    between atoms: N_3  and  C_4
REMARK    3  A    between atoms: C_4  and  C_5
REMARK    4  A    between atoms: C_8  and  C_9
REMARK    5  A    between atoms: C_9  and  N_10
REMARK    6  A    between atoms: N_10  and  C_11
REMARK    7  A    between atoms: N_10  and  C_14
REMARK    8  A    between atoms: C_11  and  C_12
REMARK    9  A    between atoms: C_12  and  O_13
REMARK   10  A    between atoms: C_14  and  C_15
REMARK                            x       y       z     vdW  Elec       q    Type
REMARK                         _______ _______ _______ _____ _____    ______ ____
ROOT
ATOM      1  C   UNL     1      46.591   7.827  12.643  0.00  0.00    +0.000 A 
ATOM      2  C   UNL     1      47.074   6.731  11.918  0.00  0.00    +0.000 A 
ATOM      3  C   UNL     1      46.210   5.977  11.127  0.00  0.00    +0.000 A 
ATOM      4  C   UNL     1      44.850   6.307  11.049  0.00  0.00    +0.000 A 
ATOM      5  C   UNL     1      44.397   7.479  11.669  0.00  0.00    +0.000 A 
ATOM      6  C   UNL     1      45.265   8.238  12.457  0.00  0.00    +0.000 A 
ENDROOT
BRANCH   1   7
ATOM      7  C   UNL     1      47.481   8.525  13.632  0.00  0.00    +0.000 C 
BRANCH   7  10
ATOM      8  O   UNL     1      49.971   7.352  14.207  0.00  0.00    +0.000 OA
ATOM      9  C   UNL     1      49.033   7.179  14.979  0.00  0.00    +0.000 C 
ATOM     10  N   UNL     1      47.786   7.691  14.760  0.00  0.00    +0.000 N 
ATOM     11  H   UNL     1      47.092   7.670  15.499  0.00  0.00    +0.000 HD
BRANCH   9  12
ATOM     12  C   UNL     1      49.176   6.342  16.179  0.00  0.00    +0.000 A 
ATOM     13  C   UNL     1      50.097   6.697  17.156  0.00  0.00    +0.000 A 
ATOM     14  S   UNL     1      50.142   5.619  18.475  0.00  0.00    +0.000 S 
ATOM     15  C   UNL     1      48.902   4.663  17.805  0.00  0.00    +0.000 A 
ATOM     16  N   UNL     1      48.427   3.574  18.468  0.00  0.00    +0.000 NA
ATOM     17  C   UNL     1      47.461   2.963  17.865  0.00  0.00    +0.000 A 
ATOM     18  N   UNL     1      46.942   3.330  16.651  0.00  0.00    +0.000 N 
ATOM     19  C   UNL     1      47.443   4.373  15.912  0.00  0.00    +0.000 A 
ATOM     20  O   UNL     1      47.051   4.582  14.768  0.00  0.00    +0.000 OA
ATOM     21  C   UNL     1      48.489   5.134  16.575  0.00  0.00    +0.000 A 
ATOM     22  H   UNL     1      46.209   2.788  16.218  0.00  0.00    +0.000 HD
ENDBRANCH   9  12
ENDBRANCH   7  10
ENDBRANCH   1   7
BRANCH   4  23
ATOM     23  C   UNL     1      43.879   5.363  10.369  0.00  0.00    +0.000 C 
BRANCH  23  24
ATOM     24  N   UNL     1      44.444   4.003  10.155  0.00  0.00    +0.000 NA
BRANCH  24  25
ATOM     25  C   UNL     1      43.742   3.005  11.000  0.00  0.00    +0.000 C 
BRANCH  25  26
ATOM     26  C   UNL     1      44.019   3.108  12.513  0.00  0.00    +0.000 C 
BRANCH  26  27
ATOM     27  O   UNL     1      45.395   2.847  12.788  0.00  0.00    +0.000 OA
ATOM     28  H   UNL     1      45.425   2.086  13.394  0.00  0.00    +0.000 HD
ENDBRANCH  26  27
ENDBRANCH  25  26
ENDBRANCH  24  25
BRANCH  24  29
ATOM     29  C   UNL     1      44.339   3.631   8.731  0.00  0.00    +0.000 C 
BRANCH  29  30
ATOM     30  C   UNL     1      45.558   2.947   8.153  0.00  0.00    +0.000 A 
ATOM     31  C   UNL     1      45.781   1.578   8.360  0.00  0.00    +0.000 A 
ATOM     32  C   UNL     1      46.850   0.934   7.734  0.00  0.00    +0.000 A 
ATOM     33  C   UNL     1      47.707   1.652   6.902  0.00  0.00    +0.000 A 
ATOM     34  C   UNL     1      47.509   3.017   6.709  0.00  0.00    +0.000 A 
ATOM     35  C   UNL     1      46.440   3.663   7.331  0.00  0.00    +0.000 A 
ENDBRANCH  29  30
ENDBRANCH  24  29
ENDBRANCH  23  24
ENDBRANCH   4  23
TORSDOF 10
ENDMDL
MODEL 2
REMARK VINA RESULT:    -7.507      2.189      2.742
REMARK INTER + INTRA:         -13.564
REMARK INTER:                 -12.153
REMARK INTRA:                  -1.411
REMARK UNBOUND:                -1.888
REMARK  Name = 
REMARK  10 active torsions:
REMARK  status: ('A' for Active; 'I' for Inactive)
REMARK    1  A    between atoms: C_2  and  C_23
REMARK    2  A    between atoms: N_3  and  C_4
REMARK    3  A    between atoms: C_4  and  C_5
REMARK    4  A    between atoms: C_8  and  C_9
REMARK    5  A    between atoms: C_9  and  N_10
REMARK    6  A    between atoms: N_10  and  C_11
REMARK    7  A    between atoms: N_10  and  C_14
REMARK    8  A    between atoms: C_11  and  C_12
REMARK    9  A    between atoms: C_12  and  O_13
REMARK   10  A    between atoms: C_14  and  C_15
REMARK                            x       y       z     vdW  Elec       q    Type
REMARK                         _______ _______ _______ _____ _____    ______ ____
ROOT
ATOM      1  C   UNL     1      48.163   6.668  13.495  0.00  0.00    +0.000 A 
ATOM      2  C   UNL     1      47.243   5.686  13.879  0.00  0.00    +0.000 A 
ATOM      3  C   UNL     1      46.168   5.369  13.052  0.00  0.00    +0.000 A 
ATOM      4  C   UNL     1      45.997   6.031  11.828  0.00  0.00    +0.000 A 
ATOM      5  C   UNL     1      46.989   6.917  11.388  0.00  0.00    +0.000 A 
ATOM      6  C   UNL     1      48.069   7.229  12.215  0.00  0.00    +0.000 A 
ENDROOT
BRANCH   1   7
ATOM      7  C   UNL     1      49.213   7.134  14.465  0.00  0.00    +0.000 C 
BRANCH   7  10
ATOM      8  O   UNL     1      50.920   5.944  16.356  0.00  0.00    +0.000 OA
ATOM      9  C   UNL     1      49.777   6.243  16.684  0.00  0.00    +0.000 C 
ATOM     10  N   UNL     1      48.877   6.799  15.820  0.00  0.00    +0.000 N 
ATOM     11  H   UNL     1      48.008   7.185  16.172  0.00  0.00    +0.000 HD
BRANCH   9  12
ATOM     12  C   UNL     1      49.270   5.960  18.035  0.00  0.00    +0.000 A 
ATOM     13  C   UNL     1      49.441   4.693  18.579  0.00  0.00    +0.000 A 
ATOM     14  S   UNL     1      48.791   4.531  20.146  0.00  0.00    +0.000 S 
ATOM     15  C   UNL     1      48.295   6.159  20.167  0.00  0.00    +0.000 A 
ATOM     16  N   UNL     1      47.690   6.689  21.265  0.00  0.00    +0.000 NA
ATOM     17  C   UNL     1      47.403   7.944  21.161  0.00  0.00    +0.000 A 
ATOM     18  N   UNL     1      47.646   8.712  20.052  0.00  0.00    +0.000 N 
ATOM     19  C   UNL     1      48.182   8.201  18.896  0.00  0.00    +0.000 A 
ATOM     20  O   UNL     1      48.250   8.881  17.877  0.00  0.00    +0.000 OA
ATOM     21  C   UNL     1      48.583   6.807  18.982  0.00  0.00    +0.000 A 
ATOM     22  H   UNL     1      47.365   9.680  20.023  0.00  0.00    +0.000 HD
ENDBRANCH   9  12
ENDBRANCH   7  10
ENDBRANCH   1   7
BRANCH   4  23
ATOM     23  C   UNL     1      44.717   5.844  11.038  0.00  0.00    +0.000 C 
BRANCH  23  24
ATOM     24  N   UNL     1      44.476   4.428  10.650  0.00  0.00    +0.000 NA
BRANCH  24  25
ATOM     25  C   UNL     1      43.245   3.909  11.300  0.00  0.00    +0.000 C 
BRANCH  25  26
ATOM     26  C   UNL     1      43.423   2.608  12.106  0.00  0.00    +0.000 C 
BRANCH  26  27
ATOM     27  O   UNL     1      44.788   2.440  12.490  0.00  0.00    +0.000 OA
ATOM     28  H   UNL     1      45.283   2.202  11.687  0.00  0.00    +0.000 HD
ENDBRANCH  26  27
ENDBRANCH  25  26
ENDBRANCH  24  25
BRANCH  24  29
ATOM     29  C   UNL     1      44.363   4.318   9.183  0.00  0.00    +0.000 C 
BRANCH  29  30
ATOM     30  C   UNL     1      45.373   3.404   8.526  0.00  0.00    +0.000 A 
ATOM     31  C   UNL     1      45.385   2.028   8.801  0.00  0.00    +0.000 A 
ATOM     32  C   UNL     1      46.250   1.178   8.111  0.00  0.00    +0.000 A 
ATOM     33  C   UNL     1      47.113   1.693   7.145  0.00  0.00    +0.000 A 
ATOM     34  C   UNL     1      47.126   3.061   6.881  0.00  0.00    +0.000 A 
ATOM     35  C   UNL     1      46.261   3.913   7.568  0.00  0.00    +0.000 A 
ENDBRANCH  29  30
ENDBRANCH  24  29
ENDBRANCH  23  24
ENDBRANCH   4  23
TORSDOF 10
ENDMDL
MODEL 3
REMARK VINA RESULT:    -7.480      1.843      2.194
REMARK INTER + INTRA:         -13.522
REMARK INTER:                 -12.168
REMARK INTRA:                  -1.354
REMARK UNBOUND:                -1.888
REMARK  Name = 
REMARK  10 active torsions:
REMARK  status: ('A' for Active; 'I' for Inactive)
REMARK    1  A    between atoms: C_2  and  C_23
REMARK    2  A    between atoms: N_3  and  C_4
REMARK    3  A    between atoms: C_4  and  C_5
REMARK    4  A    between atoms: C_8  and  C_9
REMARK    5  A    between atoms: C_9  and  N_10
REMARK    6  A    between atoms: N_10  and  C_11
REMARK    7  A    between atoms: N_10  and  C_14
REMARK    8  A    between atoms: C_11  and  C_12
REMARK    9  A    between atoms: C_12  and  O_13
REMARK   10  A    between atoms: C_14  and  C_15
REMARK                            x       y       z     vdW  Elec       q    Type
REMARK                         _______ _______ _______ _____ _____    ______ ____
ROOT
ATOM      1  C   UNL     1      48.346   6.762  13.163  0.00  0.00    +0.000 A 
ATOM      2  C   UNL     1      47.448   5.771  13.578  0.00  0.00    +0.000 A 
ATOM      3  C   UNL     1      46.356   5.435  12.781  0.00  0.00    +0.000 A 
ATOM      4  C   UNL     1      46.144   6.087  11.558  0.00  0.00    +0.000 A 
ATOM      5  C   UNL     1      47.113   6.982  11.086  0.00  0.00    +0.000 A 
ATOM      6  C   UNL     1      48.210   7.313  11.883  0.00  0.00    +0.000 A 
ENDROOT
BRANCH   1   7
ATOM      7  C   UNL     1      49.414   7.248  14.101  0.00  0.00    +0.000 C 
BRANCH   7  10
ATOM      8  O   UNL     1      50.311   8.752  16.301  0.00  0.00    +0.000 OA
ATOM      9  C   UNL     1      49.521   7.832  16.485  0.00  0.00    +0.000 C 
ATOM     10  N   UNL     1      49.057   7.037  15.476  0.00  0.00    +0.000 N 
ATOM     11  H   UNL     1      48.283   6.406  15.643  0.00  0.00    +0.000 HD
BRANCH   9  12
ATOM     12  C   UNL     1      49.061   7.478  17.837  0.00  0.00    +0.000 A 
ATOM     13  C   UNL     1      48.466   8.447  18.633  0.00  0.00    +0.000 A 
ATOM     14  S   UNL     1      47.998   7.874  20.168  0.00  0.00    +0.000 S 
ATOM     15  C   UNL     1      48.540   6.301  19.807  0.00  0.00    +0.000 A 
ATOM     16  N   UNL     1      48.395   5.291  20.706  0.00  0.00    +0.000 NA
ATOM     17  C   UNL     1      48.812   4.142  20.287  0.00  0.00    +0.000 A 
ATOM     18  N   UNL     1      49.379   3.916  19.060  0.00  0.00    +0.000 N 
ATOM     19  C   UNL     1      49.616   4.920  18.154  0.00  0.00    +0.000 A 
ATOM     20  O   UNL     1      50.255   4.707  17.129  0.00  0.00    +0.000 OA
ATOM     21  C   UNL     1      49.106   6.222  18.550  0.00  0.00    +0.000 A 
ATOM     22  H   UNL     1      49.716   2.999  18.809  0.00  0.00    +0.000 HD
ENDBRANCH   9  12
ENDBRANCH   7  10
ENDBRANCH   1   7
BRANCH   4  23
ATOM     23  C   UNL     1      44.847   5.879  10.803  0.00  0.00    +0.000 C 
BRANCH  23  24
ATOM     24  N   UNL     1      44.572   4.447  10.505  0.00  0.00    +0.000 NA
BRANCH  24  25
ATOM     25  C   UNL     1      43.339   3.994  11.197  0.00  0.00    +0.000 C 
BRANCH  25  26
ATOM     26  C   UNL     1      43.531   2.840  12.199  0.00  0.00    +0.000 C 
BRANCH  26  27
ATOM     27  O   UNL     1      43.038   1.616  11.653  0.00  0.00    +0.000 OA
ATOM     28  H   UNL     1      42.273   1.350  12.194  0.00  0.00    +0.000 HD
ENDBRANCH  26  27
ENDBRANCH  25  26
ENDBRANCH  24  25
BRANCH  24  29
ATOM     29  C   UNL     1      44.441   4.251   9.048  0.00  0.00    +0.000 C 
BRANCH  29  30
ATOM     30  C   UNL     1      45.464   3.326   8.428  0.00  0.00    +0.000 A 
ATOM     31  C   UNL     1      45.472   1.955   8.729  0.00  0.00    +0.000 A 
ATOM     32  C   UNL     1      46.350   1.093   8.071  0.00  0.00    +0.000 A 
ATOM     33  C   UNL     1      47.231   1.592   7.113  0.00  0.00    +0.000 A 
ATOM     34  C   UNL     1      47.249   2.954   6.824  0.00  0.00    +0.000 A 
ATOM     35  C   UNL     1      46.370   3.818   7.478  0.00  0.00    +0.000 A 
ENDBRANCH  29  30
ENDBRANCH  24  29
ENDBRANCH  23  24
ENDBRANCH   4  23
TORSDOF 10
ENDMDL
MODEL 4
REMARK VINA RESULT:    -7.085      2.914      4.168
REMARK INTER + INTRA:         -12.908
REMARK INTER:                 -11.872
REMARK INTRA:                  -1.036
REMARK UNBOUND:                -1.888
REMARK  Name = 
REMARK  10 active torsions:
REMARK  status: ('A' for Active; 'I' for Inactive)
REMARK    1  A    between atoms: C_2  and  C_23
REMARK    2  A    between atoms: N_3  and  C_4
REMARK    3  A    between atoms: C_4  and  C_5
REMARK    4  A    between atoms: C_8  and  C_9
REMARK    5  A    between atoms: C_9  and  N_10
REMARK    6  A    between atoms: N_10  and  C_11
REMARK    7  A    between atoms: N_10  and  C_14
REMARK    8  A    between atoms: C_11  and  C_12
REMARK    9  A    between atoms: C_12  and  O_13
REMARK   10  A    between atoms: C_14  and  C_15
REMARK                            x       y       z     vdW  Elec       q    Type
REMARK                         _______ _______ _______ _____ _____    ______ ____
ROOT
ATOM      1  C   UNL     1      47.828   5.893  14.351  0.00  0.00    +0.000 A 
ATOM      2  C   UNL     1      47.052   4.746  14.139  0.00  0.00    +0.000 A 
ATOM      3  C   UNL     1      46.222   4.656  13.024  0.00  0.00    +0.000 A 
ATOM      4  C   UNL     1      46.153   5.713  12.105  0.00  0.00    +0.000 A 
ATOM      5  C   UNL     1      47.025   6.799  12.249  0.00  0.00    +0.000 A 
ATOM      6  C   UNL     1      47.862   6.885  13.363  0.00  0.00    +0.000 A 
ENDROOT
BRANCH   1   7
ATOM      7  C   UNL     1      48.580   6.063  15.640  0.00  0.00    +0.000 C 
BRANCH   7  10
ATOM      8  O   UNL     1      49.150   6.673  18.325  0.00  0.00    +0.000 OA
ATOM      9  C   UNL     1      48.513   7.475  17.649  0.00  0.00    +0.000 C 
ATOM     10  N   UNL     1      48.173   7.244  16.347  0.00  0.00    +0.000 N 
ATOM     11  H   UNL     1      47.799   7.996  15.780  0.00  0.00    +0.000 HD
BRANCH   9  12
ATOM     12  C   UNL     1      48.012   8.732  18.225  0.00  0.00    +0.000 A 
ATOM     13  C   UNL     1      47.381   8.714  19.462  0.00  0.00    +0.000 A 
ATOM     14  S   UNL     1      46.855  10.251  19.980  0.00  0.00    +0.000 S 
ATOM     15  C   UNL     1      47.490  10.997  18.588  0.00  0.00    +0.000 A 
ATOM     16  N   UNL     1      47.407  12.345  18.422  0.00  0.00    +0.000 NA
ATOM     17  C   UNL     1      47.964  12.783  17.341  0.00  0.00    +0.000 A 
ATOM     18  N   UNL     1      48.576  11.994  16.402  0.00  0.00    +0.000 N 
ATOM     19  C   UNL     1      48.613  10.624  16.491  0.00  0.00    +0.000 A 
ATOM     20  O   UNL     1      49.039   9.943  15.564  0.00  0.00    +0.000 OA
ATOM     21  C   UNL     1      48.057  10.085  17.721  0.00  0.00    +0.000 A 
ATOM     22  H   UNL     1      48.962  12.397  15.562  0.00  0.00    +0.000 HD
ENDBRANCH   9  12
ENDBRANCH   7  10
ENDBRANCH   1   7
BRANCH   4  23
ATOM     23  C   UNL     1      45.094   5.706  11.021  0.00  0.00    +0.000 C 
BRANCH  23  24
ATOM     24  N   UNL     1      44.639   4.335  10.662  0.00  0.00    +0.000 NA
BRANCH  24  25
ATOM     25  C   UNL     1      43.372   4.004  11.361  0.00  0.00    +0.000 C 
BRANCH  25  26
ATOM     26  C   UNL     1      43.416   2.741  12.243  0.00  0.00    +0.000 C 
BRANCH  26  27
ATOM     27  O   UNL     1      43.015   1.593  11.495  0.00  0.00    +0.000 OA
ATOM     28  H   UNL     1      42.174   1.817  11.057  0.00  0.00    +0.000 HD
ENDBRANCH  26  27
ENDBRANCH  25  26
ENDBRANCH  24  25
BRANCH  24  29
ATOM     29  C   UNL     1      44.459   4.230   9.201  0.00  0.00    +0.000 C 
BRANCH  29  30
ATOM     30  C   UNL     1      45.438   3.318   8.496  0.00  0.00    +0.000 A 
ATOM     31  C   UNL     1      45.485   1.947   8.789  0.00  0.00    +0.000 A 
ATOM     32  C   UNL     1      46.316   1.097   8.059  0.00  0.00    +0.000 A 
ATOM     33  C   UNL     1      47.110   1.608   7.034  0.00  0.00    +0.000 A 
ATOM     34  C   UNL     1      47.090   2.971   6.750  0.00  0.00    +0.000 A 
ATOM     35  C   UNL     1      46.258   3.823   7.477  0.00  0.00    +0.000 A 
ENDBRANCH  29  30
ENDBRANCH  24  29
ENDBRANCH  23  24
ENDBRANCH   4  23
TORSDOF 10
ENDMDL
MODEL 5
REMARK VINA RESULT:    -6.384      3.643      9.119
REMARK INTER + INTRA:         -11.818
REMARK INTER:                  -9.276
REMARK INTRA:                  -2.542
REMARK UNBOUND:                -1.888
REMARK  Name = 
REMARK  10 active torsions:
REMARK  status: ('A' for Active; 'I' for Inactive)
REMARK    1  A    between atoms: C_2  and  C_23
REMARK    2  A    between atoms: N_3  and  C_4
REMARK    3  A    between atoms: C_4  and  C_5
REMARK    4  A    between atoms: C_8  and  C_9
REMARK    5  A    between atoms: C_9  and  N_10
REMARK    6  A    between atoms: N_10  and  C_11
REMARK    7  A    between atoms: N_10  and  C_14
REMARK    8  A    between atoms: C_11  and  C_12
REMARK    9  A    between atoms: C_12  and  O_13
REMARK   10  A    between atoms: C_14  and  C_15
REMARK                            x       y       z     vdW  Elec       q    Type
REMARK                         _______ _______ _______ _____ _____    ______ ____
ROOT
ATOM      1  C   UNL     1      47.893   4.228  17.827  0.00  0.00    +0.000 A 
ATOM      2  C   UNL     1      49.151   3.930  18.364  0.00  0.00    +0.000 A 
ATOM      3  C   UNL     1      49.653   4.672  19.431  0.00  0.00    +0.000 A 
ATOM      4  C   UNL     1      48.905   5.726  19.975  0.00  0.00    +0.000 A 
ATOM      5  C   UNL     1      47.595   5.936  19.523  0.00  0.00    +0.000 A 
ATOM      6  C   UNL     1      47.091   5.187  18.458  0.00  0.00    +0.000 A 
ENDROOT
BRANCH   1   7
ATOM      7  C   UNL     1      47.433   3.548  16.568  0.00  0.00    +0.000 C 
BRANCH   7  10
ATOM      8  O   UNL     1      47.181   3.175  13.793  0.00  0.00    +0.000 OA
ATOM      9  C   UNL     1      46.757   4.207  14.300  0.00  0.00    +0.000 C 
ATOM     10  N   UNL     1      46.863   4.478  15.634  0.00  0.00    +0.000 N 
ATOM     11  H   UNL     1      46.352   5.256  16.036  0.00  0.00    +0.000 HD
BRANCH   9  12
ATOM     12  C   UNL     1      46.150   5.268  13.481  0.00  0.00    +0.000 A 
ATOM     13  C   UNL     1      46.869   6.428  13.222  0.00  0.00    +0.000 A 
ATOM     14  S   UNL     1      46.020   7.556  12.267  0.00  0.00    +0.000 S 
ATOM     15  C   UNL     1      44.679   6.516  12.134  0.00  0.00    +0.000 A 
ATOM     16  N   UNL     1      43.592   6.871  11.397  0.00  0.00    +0.000 NA
ATOM     17  C   UNL     1      42.665   5.972  11.348  0.00  0.00    +0.000 A 
ATOM     18  N   UNL     1      42.717   4.761  11.986  0.00  0.00    +0.000 N 
ATOM     19  C   UNL     1      43.757   4.394  12.803  0.00  0.00    +0.000 A 
ATOM     20  O   UNL     1      43.703   3.367  13.472  0.00  0.00    +0.000 OA
ATOM     21  C   UNL     1      44.858   5.343  12.841  0.00  0.00    +0.000 A 
ATOM     22  H   UNL     1      41.942   4.118  11.935  0.00  0.00    +0.000 HD
ENDBRANCH   9  12
ENDBRANCH   7  10
ENDBRANCH   1   7
BRANCH   4  23
ATOM     23  C   UNL     1      49.539   6.665  20.980  0.00  0.00    +0.000 C 
BRANCH  23  24
ATOM     24  N   UNL     1      49.456   8.094  20.573  0.00  0.00    +0.000 NA
BRANCH  24  25
ATOM     25  C   UNL     1      49.504   8.982  21.762  0.00  0.00    +0.000 C 
BRANCH  25  26
ATOM     26  C   UNL     1      49.831  10.459  21.470  0.00  0.00    +0.000 C 
BRANCH  26  27
ATOM     27  O   UNL     1      48.665  11.151  21.024  0.00  0.00    +0.000 OA
ATOM     28  H   UNL     1      48.946  12.046  20.766  0.00  0.00    +0.000 HD
ENDBRANCH  26  27
ENDBRANCH  25  26
ENDBRANCH  24  25
BRANCH  24  29
ATOM     29  C   UNL     1      50.558   8.420  19.647  0.00  0.00    +0.000 C 
BRANCH  29  30
ATOM     30  C   UNL     1      50.334   8.011  18.209  0.00  0.00    +0.000 A 
ATOM     31  C   UNL     1      51.250   7.181  17.545  0.00  0.00    +0.000 A 
ATOM     32  C   UNL     1      50.981   6.722  16.255  0.00  0.00    +0.000 A 
ATOM     33  C   UNL     1      49.800   7.092  15.615  0.00  0.00    +0.000 A 
ATOM     34  C   UNL     1      48.894   7.935  16.254  0.00  0.00    +0.000 A 
ATOM     35  C   UNL     1      49.159   8.393  17.545  0.00  0.00    +0.000 A 
ENDBRANCH  29  30
ENDBRANCH  24  29
ENDBRANCH  23  24
ENDBRANCH   4  23
TORSDOF 10
ENDMDL
MODEL 6
REMARK VINA RESULT:    -6.345      3.169      8.663
REMARK INTER + INTRA:         -11.757
REMARK INTER:                 -10.214
REMARK INTRA:                  -1.543
REMARK UNBOUND:                -1.888
REMARK  Name = 
REMARK  10 active torsions:
REMARK  status: ('A' for Active; 'I' for Inactive)
REMARK    1  A    between atoms: C_2  and  C_23
REMARK    2  A    between atoms: N_3  and  C_4
REMARK    3  A    between atoms: C_4  and  C_5
REMARK    4  A    between atoms: C_8  and  C_9
REMARK    5  A    between atoms: C_9  and  N_10
REMARK    6  A    between atoms: N_10  and  C_11
REMARK    7  A    between atoms: N_10  and  C_14
REMARK    8  A    between atoms: C_11  and  C_12
REMARK    9  A    between atoms: C_12  and  O_13
REMARK   10  A    between atoms: C_14  and  C_15
REMARK                            x       y       z     vdW  Elec       q    Type
REMARK                         _______ _______ _______ _____ _____    ______ ____
ROOT
ATOM      1  C   UNL     1      48.893   7.542  13.499  0.00  0.00    +0.000 A 
ATOM      2  C   UNL     1      48.107   6.779  14.370  0.00  0.00    +0.000 A 
ATOM      3  C   UNL     1      48.644   6.300  15.563  0.00  0.00    +0.000 A 
ATOM      4  C   UNL     1      49.977   6.576  15.901  0.00  0.00    +0.000 A 
ATOM      5  C   UNL     1      50.718   7.447  15.093  0.00  0.00    +0.000 A 
ATOM      6  C   UNL     1      50.176   7.932  13.901  0.00  0.00    +0.000 A 
ENDROOT
BRANCH   1   7
ATOM      7  C   UNL     1      48.370   7.902  12.137  0.00  0.00    +0.000 C 
BRANCH   7  10
ATOM      8  O   UNL     1      45.586   7.888  11.743  0.00  0.00    +0.000 OA
ATOM      9  C   UNL     1      46.248   6.921  11.382  0.00  0.00    +0.000 C 
ATOM     10  N   UNL     1      47.600   6.837  11.559  0.00  0.00    +0.000 N 
ATOM     11  H   UNL     1      48.128   6.106  11.097  0.00  0.00    +0.000 HD
BRANCH   9  12
ATOM     12  C   UNL     1      45.611   5.740  10.779  0.00  0.00    +0.000 A 
ATOM     13  C   UNL     1      45.769   5.496   9.421  0.00  0.00    +0.000 A 
ATOM     14  S   UNL     1      44.962   4.095   8.882  0.00  0.00    +0.000 S 
ATOM     15  C   UNL     1      44.407   3.745  10.453  0.00  0.00    +0.000 A 
ATOM     16  N   UNL     1      43.670   2.629  10.699  0.00  0.00    +0.000 NA
ATOM     17  C   UNL     1      43.349   2.464  11.940  0.00  0.00    +0.000 A 
ATOM     18  N   UNL     1      43.681   3.326  12.953  0.00  0.00    +0.000 N 
ATOM     19  C   UNL     1      44.356   4.502  12.738  0.00  0.00    +0.000 A 
ATOM     20  O   UNL     1      44.508   5.317  13.643  0.00  0.00    +0.000 OA
ATOM     21  C   UNL     1      44.796   4.704  11.368  0.00  0.00    +0.000 A 
ATOM     22  H   UNL     1      43.370   3.156  13.897  0.00  0.00    +0.000 HD
ENDBRANCH   9  12
ENDBRANCH   7  10
ENDBRANCH   1   7
BRANCH   4  23
ATOM     23  C   UNL     1      50.619   5.876  17.082  0.00  0.00    +0.000 C 
BRANCH  23  24
ATOM     24  N   UNL     1      49.750   4.826  17.678  0.00  0.00    +0.000 NA
BRANCH  24  25
ATOM     25  C   UNL     1      50.317   3.476  17.434  0.00  0.00    +0.000 C 
BRANCH  25  26
ATOM     26  C   UNL     1      49.297   2.396  17.023  0.00  0.00    +0.000 C 
BRANCH  26  27
ATOM     27  O   UNL     1      49.733   1.718  15.845  0.00  0.00    +0.000 OA
ATOM     28  H   UNL     1      50.664   1.469  15.988  0.00  0.00    +0.000 HD
ENDBRANCH  26  27
ENDBRANCH  25  26
ENDBRANCH  24  25
BRANCH  24  29
ATOM     29  C   UNL     1      49.596   5.061  19.127  0.00  0.00    +0.000 C 
BRANCH  29  30
ATOM     30  C   UNL     1      49.065   6.426  19.505  0.00  0.00    +0.000 A 
ATOM     31  C   UNL     1      47.821   6.871  19.033  0.00  0.00    +0.000 A 
ATOM     32  C   UNL     1      47.293   8.086  19.472  0.00  0.00    +0.000 A 
ATOM     33  C   UNL     1      48.003   8.868  20.381  0.00  0.00    +0.000 A 
ATOM     34  C   UNL     1      49.250   8.448  20.838  0.00  0.00    +0.000 A 
ATOM     35  C   UNL     1      49.779   7.232  20.402  0.00  0.00    +0.000 A 
ENDBRANCH  29  30
ENDBRANCH  24  29
ENDBRANCH  23  24
ENDBRANCH   4  23
TORSDOF 10
ENDMDL
MODEL 7
REMARK VINA RESULT:    -6.329      2.916      8.277
REMARK INTER + INTRA:         -11.731
REMARK INTER:                  -9.759
REMARK INTRA:                  -1.972
REMARK UNBOUND:                -1.888
REMARK  Name = 
REMARK  10 active torsions:
REMARK  status: ('A' for Active; 'I' for Inactive)
REMARK    1  A    between atoms: C_2  and  C_23
REMARK    2  A    between atoms: N_3  and  C_4
REMARK    3  A    between atoms: C_4  and  C_5
REMARK    4  A    between atoms: C_8  and  C_9
REMARK    5  A    between atoms: C_9  and  N_10
REMARK    6  A    between atoms: N_10  and  C_11
REMARK    7  A    between atoms: N_10  and  C_14
REMARK    8  A    between atoms: C_11  and  C_12
REMARK    9  A    between atoms: C_12  and  O_13
REMARK   10  A    between atoms: C_14  and  C_15
REMARK                            x       y       z     vdW  Elec       q    Type
REMARK                         _______ _______ _______ _____ _____    ______ ____
ROOT
ATOM      1  C   UNL     1      48.153   7.947  13.377  0.00  0.00    +0.000 A 
ATOM      2  C   UNL     1      47.888   9.106  14.115  0.00  0.00    +0.000 A 
ATOM      3  C   UNL     1      48.218   9.169  15.467  0.00  0.00    +0.000 A 
ATOM      4  C   UNL     1      48.817   8.072  16.102  0.00  0.00    +0.000 A 
ATOM      5  C   UNL     1      49.200   6.965  15.333  0.00  0.00    +0.000 A 
ATOM      6  C   UNL     1      48.874   6.906  13.977  0.00  0.00    +0.000 A 
ENDROOT
BRANCH   1   7
ATOM      7  C   UNL     1      47.635   7.815  11.973  0.00  0.00    +0.000 C 
BRANCH   7  10
ATOM      8  O   UNL     1      44.838   7.533  11.975  0.00  0.00    +0.000 OA
ATOM      9  C   UNL     1      45.540   6.548  11.775  0.00  0.00    +0.000 C 
ATOM     10  N   UNL     1      46.905   6.594  11.783  0.00  0.00    +0.000 N 
ATOM     11  H   UNL     1      47.440   5.802  11.447  0.00  0.00    +0.000 HD
BRANCH   9  12
ATOM     12  C   UNL     1      44.948   5.217  11.571  0.00  0.00    +0.000 A 
ATOM     13  C   UNL     1      44.257   4.608  12.611  0.00  0.00    +0.000 A 
ATOM     14  S   UNL     1      43.643   3.069  12.212  0.00  0.00    +0.000 S 
ATOM     15  C   UNL     1      44.246   3.181  10.623  0.00  0.00    +0.000 A 
ATOM     16  N   UNL     1      44.026   2.185   9.724  0.00  0.00    +0.000 NA
ATOM     17  C   UNL     1      44.503   2.417   8.545  0.00  0.00    +0.000 A 
ATOM     18  N   UNL     1      45.198   3.544   8.192  0.00  0.00    +0.000 N 
ATOM     19  C   UNL     1      45.510   4.537   9.087  0.00  0.00    +0.000 A 
ATOM     20  O   UNL     1      46.255   5.460   8.772  0.00  0.00    +0.000 OA
ATOM     21  C   UNL     1      44.941   4.356  10.412  0.00  0.00    +0.000 A 
ATOM     22  H   UNL     1      45.574   3.647   7.262  0.00  0.00    +0.000 HD
ENDBRANCH   9  12
ENDBRANCH   7  10
ENDBRANCH   1   7
BRANCH   4  23
ATOM     23  C   UNL     1      48.972   8.060  17.609  0.00  0.00    +0.000 C 
BRANCH  23  24
ATOM     24  N   UNL     1      49.937   7.032  18.086  0.00  0.00    +0.000 NA
BRANCH  24  25
ATOM     25  C   UNL     1      51.026   7.662  18.874  0.00  0.00    +0.000 C 
BRANCH  25  26
ATOM     26  C   UNL     1      52.448   7.453  18.318  0.00  0.00    +0.000 C 
BRANCH  26  27
ATOM     27  O   UNL     1      52.412   6.656  17.135  0.00  0.00    +0.000 OA
ATOM     28  H   UNL     1      52.690   7.227  16.397  0.00  0.00    +0.000 HD
ENDBRANCH  26  27
ENDBRANCH  25  26
ENDBRANCH  24  25
BRANCH  24  29
ATOM     29  C   UNL     1      49.236   6.021  18.901  0.00  0.00    +0.000 C 
BRANCH  29  30
ATOM     30  C   UNL     1      48.957   4.710  18.200  0.00  0.00    +0.000 A 
ATOM     31  C   UNL     1      47.670   4.401  17.737  0.00  0.00    +0.000 A 
ATOM     32  C   UNL     1      47.445   3.238  16.999  0.00  0.00    +0.000 A 
ATOM     33  C   UNL     1      48.502   2.372  16.722  0.00  0.00    +0.000 A 
ATOM     34  C   UNL     1      49.780   2.657  17.197  0.00  0.00    +0.000 A 
ATOM     35  C   UNL     1      50.007   3.820  17.933  0.00  0.00    +0.000 A 
ENDBRANCH  29  30
ENDBRANCH  24  29
ENDBRANCH  23  24
ENDBRANCH   4  23
TORSDOF 10
ENDMDL
MODEL 8
REMARK VINA RESULT:    -6.068      3.182      8.104
REMARK INTER + INTRA:         -11.326
REMARK INTER:                  -9.571
REMARK INTRA:                  -1.755
REMARK UNBOUND:                -1.888
REMARK  Name = 
REMARK  10 active torsions:
REMARK  status: ('A' for Active; 'I' for Inactive)
REMARK    1  A    between atoms: C_2  and  C_23
REMARK    2  A    between atoms: N_3  and  C_4
REMARK    3  A    between atoms: C_4  and  C_5
REMARK    4  A    between atoms: C_8  and  C_9
REMARK    5  A    between atoms: C_9  and  N_10
REMARK    6  A    between atoms: N_10  and  C_11
REMARK    7  A    between atoms: N_10  and  C_14
REMARK    8  A    between atoms: C_11  and  C_12
REMARK    9  A    between atoms: C_12  and  O_13
REMARK   10  A    between atoms: C_14  and  C_15
REMARK                            x       y       z     vdW  Elec       q    Type
REMARK                         _______ _______ _______ _____ _____    ______ ____
ROOT
ATOM      1  C   UNL     1      48.345   7.895  13.746  0.00  0.00    +0.000 A 
ATOM      2  C   UNL     1      48.616   6.658  14.342  0.00  0.00    +0.000 A 
ATOM      3  C   UNL     1      48.820   6.571  15.718  0.00  0.00    +0.000 A 
ATOM      4  C   UNL     1      48.759   7.721  16.517  0.00  0.00    +0.000 A 
ATOM      5  C   UNL     1      48.360   8.933  15.939  0.00  0.00    +0.000 A 
ATOM      6  C   UNL     1      48.149   9.017  14.561  0.00  0.00    +0.000 A 
ENDROOT
BRANCH   1   7
ATOM      7  C   UNL     1      48.305   8.015  12.249  0.00  0.00    +0.000 C 
BRANCH   7  10
ATOM      8  O   UNL     1      45.536   7.942  11.767  0.00  0.00    +0.000 OA
ATOM      9  C   UNL     1      46.231   6.991  11.424  0.00  0.00    +0.000 C 
ATOM     10  N   UNL     1      47.577   6.935  11.644  0.00  0.00    +0.000 N 
ATOM     11  H   UNL     1      48.135   6.217  11.197  0.00  0.00    +0.000 HD
BRANCH   9  12
ATOM     12  C   UNL     1      45.639   5.799  10.797  0.00  0.00    +0.000 A 
ATOM     13  C   UNL     1      45.875   5.543   9.453  0.00  0.00    +0.000 A 
ATOM     14  S   UNL     1      45.112   4.130   8.883  0.00  0.00    +0.000 S 
ATOM     15  C   UNL     1      44.473   3.789  10.424  0.00  0.00    +0.000 A 
ATOM     16  N   UNL     1      43.732   2.668  10.639  0.00  0.00    +0.000 NA
ATOM     17  C   UNL     1      43.344   2.512  11.862  0.00  0.00    +0.000 A 
ATOM     18  N   UNL     1      43.611   3.386  12.883  0.00  0.00    +0.000 N 
ATOM     19  C   UNL     1      44.286   4.567  12.696  0.00  0.00    +0.000 A 
ATOM     20  O   UNL     1      44.380   5.391  13.600  0.00  0.00    +0.000 OA
ATOM     21  C   UNL     1      44.801   4.760  11.350  0.00  0.00    +0.000 A 
ATOM     22  H   UNL     1      43.249   3.222  13.810  0.00  0.00    +0.000 HD
ENDBRANCH   9  12
ENDBRANCH   7  10
ENDBRANCH   1   7
BRANCH   4  23
ATOM     23  C   UNL     1      49.196   7.659  17.967  0.00  0.00    +0.000 C 
BRANCH  23  24
ATOM     24  N   UNL     1      50.322   6.714  18.195  0.00  0.00    +0.000 NA
BRANCH  24  25
ATOM     25  C   UNL     1      51.470   7.410  18.828  0.00  0.00    +0.000 C 
BRANCH  25  26
ATOM     26  C   UNL     1      51.844   8.768  18.204  0.00  0.00    +0.000 C 
BRANCH  26  27
ATOM     27  O   UNL     1      52.442   8.583  16.921  0.00  0.00    +0.000 OA
ATOM     28  H   UNL     1      52.134   7.722  16.584  0.00  0.00    +0.000 HD
ENDBRANCH  26  27
ENDBRANCH  25  26
ENDBRANCH  24  25
BRANCH  24  29
ATOM     29  C   UNL     1      49.875   5.592  19.043  0.00  0.00    +0.000 C 
BRANCH  29  30
ATOM     30  C   UNL     1      49.361   4.383  18.293  0.00  0.00    +0.000 A 
ATOM     31  C   UNL     1      47.984   4.166  18.135  0.00  0.00    +0.000 A 
ATOM     32  C   UNL     1      47.521   3.107  17.353  0.00  0.00    +0.000 A 
ATOM     33  C   UNL     1      48.428   2.254  16.726  0.00  0.00    +0.000 A 
ATOM     34  C   UNL     1      49.797   2.446  16.895  0.00  0.00    +0.000 A 
ATOM     35  C   UNL     1      50.262   3.505  17.676  0.00  0.00    +0.000 A 
ENDBRANCH  29  30
ENDBRANCH  24  29
ENDBRANCH  23  24
ENDBRANCH   4  23
TORSDOF 10
ENDMDL
MODEL 9
REMARK VINA RESULT:    -5.917      3.758      9.485
REMARK INTER + INTRA:         -11.090
REMARK INTER:                  -9.452
REMARK INTRA:                  -1.638
REMARK UNBOUND:                -1.888
REMARK  Name = 
REMARK  10 active torsions:
REMARK  status: ('A' for Active; 'I' for Inactive)
REMARK    1  A    between atoms: C_2  and  C_23
REMARK    2  A    between atoms: N_3  and  C_4
REMARK    3  A    between atoms: C_4  and  C_5
REMARK    4  A    between atoms: C_8  and  C_9
REMARK    5  A    between atoms: C_9  and  N_10
REMARK    6  A    between atoms: N_10  and  C_11
REMARK    7  A    between atoms: N_10  and  C_14
REMARK    8  A    between atoms: C_11  and  C_12
REMARK    9  A    between atoms: C_12  and  O_13
REMARK   10  A    between atoms: C_14  and  C_15
REMARK                            x       y       z     vdW  Elec       q    Type
REMARK                         _______ _______ _______ _____ _____    ______ ____
ROOT
ATOM      1  C   UNL     1      48.385   4.397  17.550  0.00  0.00    +0.000 A 
ATOM      2  C   UNL     1      48.475   4.130  18.921  0.00  0.00    +0.000 A 
ATOM      3  C   UNL     1      49.530   4.646  19.670  0.00  0.00    +0.000 A 
ATOM      4  C   UNL     1      50.513   5.436  19.058  0.00  0.00    +0.000 A 
ATOM      5  C   UNL     1      50.350   5.809  17.717  0.00  0.00    +0.000 A 
ATOM      6  C   UNL     1      49.288   5.296  16.970  0.00  0.00    +0.000 A 
ENDROOT
BRANCH   1   7
ATOM      7  C   UNL     1      47.353   3.694  16.714  0.00  0.00    +0.000 C 
BRANCH   7  10
ATOM      8  O   UNL     1      47.240   3.260  13.938  0.00  0.00    +0.000 OA
ATOM      9  C   UNL     1      46.731   4.272  14.408  0.00  0.00    +0.000 C 
ATOM     10  N   UNL     1      46.764   4.570  15.741  0.00  0.00    +0.000 N 
ATOM     11  H   UNL     1      46.189   5.320  16.107  0.00  0.00    +0.000 HD
BRANCH   9  12
ATOM     12  C   UNL     1      46.093   5.278  13.546  0.00  0.00    +0.000 A 
ATOM     13  C   UNL     1      46.763   6.461  13.264  0.00  0.00    +0.000 A 
ATOM     14  S   UNL     1      45.883   7.520  12.259  0.00  0.00    +0.000 S 
ATOM     15  C   UNL     1      44.593   6.416  12.135  0.00  0.00    +0.000 A 
ATOM     16  N   UNL     1      43.506   6.699  11.368  0.00  0.00    +0.000 NA
ATOM     17  C   UNL     1      42.621   5.758  11.330  0.00  0.00    +0.000 A 
ATOM     18  N   UNL     1      42.715   4.570  12.007  0.00  0.00    +0.000 N 
ATOM     19  C   UNL     1      43.755   4.276  12.853  0.00  0.00    +0.000 A 
ATOM     20  O   UNL     1      43.735   3.268  13.553  0.00  0.00    +0.000 OA
ATOM     21  C   UNL     1      44.811   5.275  12.881  0.00  0.00    +0.000 A 
ATOM     22  H   UNL     1      41.971   3.891  11.962  0.00  0.00    +0.000 HD
ENDBRANCH   9  12
ENDBRANCH   7  10
ENDBRANCH   1   7
BRANCH   4  23
ATOM     23  C   UNL     1      51.767   5.811  19.821  0.00  0.00    +0.000 C 
BRANCH  23  24
ATOM     24  N   UNL     1      53.004   5.244  19.219  0.00  0.00    +0.000 NA
BRANCH  24  25
ATOM     25  C   UNL     1      54.140   6.188  19.368  0.00  0.00    +0.000 C 
BRANCH  25  26
ATOM     26  C   UNL     1      53.888   7.612  18.837  0.00  0.00    +0.000 C 
BRANCH  26  27
ATOM     27  O   UNL     1      54.023   8.569  19.888  0.00  0.00    +0.000 OA
ATOM     28  H   UNL     1      53.843   8.103  20.723  0.00  0.00    +0.000 HD
ENDBRANCH  26  27
ENDBRANCH  25  26
ENDBRANCH  24  25
BRANCH  24  29
ATOM     29  C   UNL     1      53.328   3.952  19.854  0.00  0.00    +0.000 C 
BRANCH  29  30
ATOM     30  C   UNL     1      53.325   2.758  18.924  0.00  0.00    +0.000 A 
ATOM     31  C   UNL     1      54.447   1.923  18.821  0.00  0.00    +0.000 A 
ATOM     32  C   UNL     1      54.397   0.766  18.042  0.00  0.00    +0.000 A 
ATOM     33  C   UNL     1      53.229   0.436  17.356  0.00  0.00    +0.000 A 
ATOM     34  C   UNL     1      52.117   1.271  17.432  0.00  0.00    +0.000 A 
ATOM     35  C   UNL     1      52.164   2.427  18.211  0.00  0.00    +0.000 A 
ENDBRANCH  29  30
ENDBRANCH  24  29
ENDBRANCH  23  24
ENDBRANCH   4  23
TORSDOF 10
ENDMDL
