MODEL 1
REMARK VINA RESULT:    -7.568      0.000      0.000
REMARK INTER + INTRA:         -11.529
REMARK INTER:                 -10.222
REMARK INTRA:                  -1.307
REMARK UNBOUND:                -1.307
REMARK  Name = 
REMARK  7 active torsions:
REMARK  status: ('A' for Active; 'I' for Inactive)
REMARK    1  A    between atoms: C_1  and  C_2
REMARK    2  A    between atoms: C_2  and  N_3
REMARK    3  A    between atoms: N_3  and  C_4
REMARK    4  A    between atoms: C_4  and  C_5
REMARK    5  A    between atoms: C_8  and  C_9
REMARK    6  A    between atoms: C_9  and  N_10
REMARK    7  A    between atoms: C_18  and  C_20
REMARK                            x       y       z     vdW  Elec       q    Type
REMARK                         _______ _______ _______ _____ _____    ______ ____
ROOT
ATOM      1  N   UNL     1      45.973   7.143  12.055  0.00  0.00    +0.000 N 
ATOM      2  C   UNL     1      44.716   6.681  11.637  0.00  0.00    +0.000 C 
ATOM      3  O   UNL     1      43.790   7.456  11.403  0.00  0.00    +0.000 OA
ENDROOT
BRANCH   2   4
ATOM      4  C   UNL     1      44.476   5.241  11.520  0.00  0.00    +0.000 A 
ATOM      5  C   UNL     1      43.742   4.494  12.426  0.00  0.00    +0.000 A 
ATOM      6  S   UNL     1      43.528   2.868  11.945  0.00  0.00    +0.000 S 
ATOM      7  C   UNL     1      44.304   3.152  10.454  0.00  0.00    +0.000 A 
ATOM      8  N   UNL     1      44.373   2.186   9.499  0.00  0.00    +0.000 NA
ATOM      9  C   UNL     1      44.925   2.575   8.397  0.00  0.00    +0.000 A 
ATOM     10  N   UNL     1      45.444   3.825   8.177  0.00  0.00    +0.000 N 
ATOM     11  C   UNL     1      45.522   4.786   9.161  0.00  0.00    +0.000 A 
ATOM     12  O   UNL     1      46.206   5.794   9.016  0.00  0.00    +0.000 OA
ATOM     13  C   UNL     1      44.803   4.437  10.372  0.00  0.00    +0.000 A 
ATOM     14  H   UNL     1      45.921   4.041   7.315  0.00  0.00    +0.000 HD
ENDBRANCH   2   4
BRANCH   1  16
ATOM     15  C   UNL     1      47.448   9.154  11.916  0.00  0.00    +0.000 C 
ATOM     16  C   UNL     1      46.078   8.593  12.281  0.00  0.00    +0.000 C 
ENDBRANCH   1  16
BRANCH   1  17
ATOM     17  C   UNL     1      47.130   6.261  12.307  0.00  0.00    +0.000 C 
BRANCH  17  18
ATOM     18  C   UNL     1      47.382   5.912  13.750  0.00  0.00    +0.000 A 
ATOM     19  C   UNL     1      48.254   6.692  14.526  0.00  0.00    +0.000 A 
ATOM     20  C   UNL     1      48.700   6.227  15.761  0.00  0.00    +0.000 A 
ATOM     21  C   UNL     1      48.266   4.987  16.243  0.00  0.00    +0.000 A 
ATOM     22  C   UNL     1      47.299   4.270  15.522  0.00  0.00    +0.000 A 
ATOM     23  C   UNL     1      46.856   4.733  14.286  0.00  0.00    +0.000 A 
BRANCH  21  24
ATOM     24  C   UNL     1      48.925   4.356  17.448  0.00  0.00    +0.000 C 
BRANCH  24  25
ATOM     25  N   UNL     1      50.239   3.737  17.193  0.00  0.00    +0.000 NA
ATOM     26  C   UNL     1      51.272   4.346  18.048  0.00  0.00    +0.000 C 
ATOM     27  C   UNL     1      52.626   3.654  17.888  0.00  0.00    +0.000 C 
ATOM     28  C   UNL     1      52.511   2.166  18.188  0.00  0.00    +0.000 C 
ATOM     29  C   UNL     1      51.445   1.544  17.299  0.00  0.00    +0.000 C 
ATOM     30  C   UNL     1      50.118   2.288  17.430  0.00  0.00    +0.000 C 
ENDBRANCH  24  25
ENDBRANCH  21  24
ENDBRANCH  17  18
ENDBRANCH   1  17
TORSDOF 6
ENDMDL
MODEL 2
REMARK VINA RESULT:    -7.233      1.718      2.457
REMARK INTER + INTRA:         -11.077
REMARK INTER:                  -9.759
REMARK INTRA:                  -1.319
REMARK UNBOUND:                -1.307
REMARK  Name = 
REMARK  7 active torsions:
REMARK  status: ('A' for Active; 'I' for Inactive)
REMARK    1  A    between atoms: C_1  and  C_2
REMARK    2  A    between atoms: C_2  and  N_3
REMARK    3  A    between atoms: N_3  and  C_4
REMARK    4  A    between atoms: C_4  and  C_5
REMARK    5  A    between atoms: C_8  and  C_9
REMARK    6  A    between atoms: C_9  and  N_10
REMARK    7  A    between atoms: C_18  and  C_20
REMARK                            x       y       z     vdW  Elec       q    Type
REMARK                         _______ _______ _______ _____ _____    ______ ____
ROOT
ATOM      1  N   UNL     1      46.455   7.182  12.192  0.00  0.00    +0.000 N 
ATOM      2  C   UNL     1      45.168   6.858  11.737  0.00  0.00    +0.000 C 
ATOM      3  O   UNL     1      44.362   7.729  11.411  0.00  0.00    +0.000 OA
ENDROOT
BRANCH   2   4
ATOM      4  C   UNL     1      44.747   5.456  11.693  0.00  0.00    +0.000 A 
ATOM      5  C   UNL     1      44.018   4.827  12.689  0.00  0.00    +0.000 A 
ATOM      6  S   UNL     1      43.566   3.229  12.286  0.00  0.00    +0.000 S 
ATOM      7  C   UNL     1      44.222   3.380  10.721  0.00  0.00    +0.000 A 
ATOM      8  N   UNL     1      44.083   2.392   9.797  0.00  0.00    +0.000 NA
ATOM      9  C   UNL     1      44.568   2.685   8.636  0.00  0.00    +0.000 A 
ATOM     10  N   UNL     1      45.211   3.855   8.325  0.00  0.00    +0.000 N 
ATOM     11  C   UNL     1      45.498   4.822   9.264  0.00  0.00    +0.000 A 
ATOM     12  O   UNL     1      46.281   5.735   9.021  0.00  0.00    +0.000 OA
ATOM     13  C   UNL     1      44.862   4.592  10.548  0.00  0.00    +0.000 A 
ATOM     14  H   UNL     1      45.625   3.992   7.416  0.00  0.00    +0.000 HD
ENDBRANCH   2   4
BRANCH   1  16
ATOM     15  C   UNL     1      48.159   8.988  11.921  0.00  0.00    +0.000 C 
ATOM     16  C   UNL     1      46.739   8.618  12.336  0.00  0.00    +0.000 C 
ENDBRANCH   1  16
BRANCH   1  17
ATOM     17  C   UNL     1      47.475   6.177  12.554  0.00  0.00    +0.000 C 
BRANCH  17  18
ATOM     18  C   UNL     1      47.609   5.886  14.026  0.00  0.00    +0.000 A 
ATOM     19  C   UNL     1      48.466   6.658  14.826  0.00  0.00    +0.000 A 
ATOM     20  C   UNL     1      48.801   6.232  16.109  0.00  0.00    +0.000 A 
ATOM     21  C   UNL     1      48.270   5.040  16.614  0.00  0.00    +0.000 A 
ATOM     22  C   UNL     1      47.318   4.338  15.860  0.00  0.00    +0.000 A 
ATOM     23  C   UNL     1      46.985   4.763  14.576  0.00  0.00    +0.000 A 
BRANCH  21  24
ATOM     24  C   UNL     1      48.811   4.436  17.890  0.00  0.00    +0.000 C 
BRANCH  24  25
ATOM     25  N   UNL     1      48.774   5.322  19.068  0.00  0.00    +0.000 NA
ATOM     26  C   UNL     1      47.400   5.786  19.324  0.00  0.00    +0.000 C 
ATOM     27  C   UNL     1      47.308   6.618  20.602  0.00  0.00    +0.000 C 
ATOM     28  C   UNL     1      47.823   5.831  21.799  0.00  0.00    +0.000 C 
ATOM     29  C   UNL     1      49.243   5.358  21.528  0.00  0.00    +0.000 C 
ATOM     30  C   UNL     1      49.323   4.580  20.217  0.00  0.00    +0.000 C 
ENDBRANCH  24  25
ENDBRANCH  21  24
ENDBRANCH  17  18
ENDBRANCH   1  17
TORSDOF 6
ENDMDL
MODEL 3
REMARK VINA RESULT:    -7.039      1.350      2.044
REMARK INTER + INTRA:         -10.814
REMARK INTER:                  -9.485
REMARK INTRA:                  -1.330
REMARK UNBOUND:                -1.307
REMARK  Name = 
REMARK  7 active torsions:
REMARK  status: ('A' for Active; 'I' for Inactive)
REMARK    1  A    between atoms: C_1  and  C_2
REMARK    2  A    between atoms: C_2  and  N_3
REMARK    3  A    between atoms: N_3  and  C_4
REMARK    4  A    between atoms: C_4  and  C_5
REMARK    5  A    between atoms: C_8  and  C_9
REMARK    6  A    between atoms: C_9  and  N_10
REMARK    7  A    between atoms: C_18  and  C_20
REMARK                            x       y       z     vdW  Elec       q    Type
REMARK                         _______ _______ _______ _____ _____    ______ ____
ROOT
ATOM      1  N   UNL     1      46.298   7.528  12.231  0.00  0.00    +0.000 N 
ATOM      2  C   UNL     1      45.178   7.323  11.412  0.00  0.00    +0.000 C 
ATOM      3  O   UNL     1      44.329   8.198  11.249  0.00  0.00    +0.000 OA
ENDROOT
BRANCH   2   4
ATOM      4  C   UNL     1      44.980   6.021  10.770  0.00  0.00    +0.000 A 
ATOM      5  C   UNL     1      45.538   5.653   9.557  0.00  0.00    +0.000 A 
ATOM      6  S   UNL     1      45.230   4.025   9.139  0.00  0.00    +0.000 S 
ATOM      7  C   UNL     1      44.451   3.734  10.626  0.00  0.00    +0.000 A 
ATOM      8  N   UNL     1      44.025   2.489  10.970  0.00  0.00    +0.000 NA
ATOM      9  C   UNL     1      43.522   2.414  12.157  0.00  0.00    +0.000 A 
ATOM     10  N   UNL     1      43.371   3.473  13.015  0.00  0.00    +0.000 N 
ATOM     11  C   UNL     1      43.657   4.772  12.656  0.00  0.00    +0.000 A 
ATOM     12  O   UNL     1      43.285   5.720  13.341  0.00  0.00    +0.000 OA
ATOM     13  C   UNL     1      44.341   4.886  11.381  0.00  0.00    +0.000 A 
ATOM     14  H   UNL     1      42.908   3.357  13.904  0.00  0.00    +0.000 HD
ENDBRANCH   2   4
BRANCH   1  16
ATOM     15  C   UNL     1      47.549   9.663  12.572  0.00  0.00    +0.000 C 
ATOM     16  C   UNL     1      46.339   8.814  12.946  0.00  0.00    +0.000 C 
ENDBRANCH   1  16
BRANCH   1  17
ATOM     17  C   UNL     1      47.368   6.528  12.427  0.00  0.00    +0.000 C 
BRANCH  17  18
ATOM     18  C   UNL     1      47.567   6.056  13.843  0.00  0.00    +0.000 A 
ATOM     19  C   UNL     1      48.455   6.730  14.697  0.00  0.00    +0.000 A 
ATOM     20  C   UNL     1      48.848   6.149  15.900  0.00  0.00    +0.000 A 
ATOM     21  C   UNL     1      48.345   4.897  16.273  0.00  0.00    +0.000 A 
ATOM     22  C   UNL     1      47.364   4.287  15.478  0.00  0.00    +0.000 A 
ATOM     23  C   UNL     1      46.973   4.866  14.273  0.00  0.00    +0.000 A 
BRANCH  21  24
ATOM     24  C   UNL     1      48.944   4.143  17.438  0.00  0.00    +0.000 C 
BRANCH  24  25
ATOM     25  N   UNL     1      50.291   3.591  17.203  0.00  0.00    +0.000 NA
ATOM     26  C   UNL     1      51.261   4.177  18.142  0.00  0.00    +0.000 C 
ATOM     27  C   UNL     1      52.647   3.548  17.999  0.00  0.00    +0.000 C 
ATOM     28  C   UNL     1      52.578   2.039  18.193  0.00  0.00    +0.000 C 
ATOM     29  C   UNL     1      51.576   1.441  17.217  0.00  0.00    +0.000 C 
ATOM     30  C   UNL     1      50.216   2.126  17.336  0.00  0.00    +0.000 C 
ENDBRANCH  24  25
ENDBRANCH  21  24
ENDBRANCH  17  18
ENDBRANCH   1  17
TORSDOF 6
ENDMDL
MODEL 4
REMARK VINA RESULT:    -6.764      2.188      3.184
REMARK INTER + INTRA:         -10.443
REMARK INTER:                  -9.063
REMARK INTRA:                  -1.379
REMARK UNBOUND:                -1.307
REMARK  Name = 
REMARK  7 active torsions:
REMARK  status: ('A' for Active; 'I' for Inactive)
REMARK    1  A    between atoms: C_1  and  C_2
REMARK    2  A    between atoms: C_2  and  N_3
REMARK    3  A    between atoms: N_3  and  C_4
REMARK    4  A    between atoms: C_4  and  C_5
REMARK    5  A    between atoms: C_8  and  C_9
REMARK    6  A    between atoms: C_9  and  N_10
REMARK    7  A    between atoms: C_18  and  C_20
REMARK                            x       y       z     vdW  Elec       q    Type
REMARK                         _______ _______ _______ _____ _____    ______ ____
ROOT
ATOM      1  N   UNL     1      46.402   7.568  12.159  0.00  0.00    +0.000 N 
ATOM      2  C   UNL     1      45.211   7.321  11.459  0.00  0.00    +0.000 C 
ATOM      3  O   UNL     1      44.299   8.146  11.428  0.00  0.00    +0.000 OA
ENDROOT
BRANCH   2   4
ATOM      4  C   UNL     1      45.019   6.033  10.790  0.00  0.00    +0.000 A 
ATOM      5  C   UNL     1      45.582   5.692   9.571  0.00  0.00    +0.000 A 
ATOM      6  S   UNL     1      45.281   4.073   9.118  0.00  0.00    +0.000 S 
ATOM      7  C   UNL     1      44.496   3.748  10.595  0.00  0.00    +0.000 A 
ATOM      8  N   UNL     1      44.074   2.495  10.911  0.00  0.00    +0.000 NA
ATOM      9  C   UNL     1      43.565   2.394  12.095  0.00  0.00    +0.000 A 
ATOM     10  N   UNL     1      43.408   3.434  12.974  0.00  0.00    +0.000 N 
ATOM     11  C   UNL     1      43.692   4.741  12.643  0.00  0.00    +0.000 A 
ATOM     12  O   UNL     1      43.314   5.673  13.346  0.00  0.00    +0.000 OA
ATOM     13  C   UNL     1      44.381   4.883  11.374  0.00  0.00    +0.000 A 
ATOM     14  H   UNL     1      42.942   3.297  13.858  0.00  0.00    +0.000 HD
ENDBRANCH   2   4
BRANCH   1  16
ATOM     15  C   UNL     1      47.439   9.833  12.342  0.00  0.00    +0.000 C 
ATOM     16  C   UNL     1      46.447   8.828  12.917  0.00  0.00    +0.000 C 
ENDBRANCH   1  16
BRANCH   1  17
ATOM     17  C   UNL     1      47.543   6.632  12.193  0.00  0.00    +0.000 C 
BRANCH  17  18
ATOM     18  C   UNL     1      47.722   5.870  13.480  0.00  0.00    +0.000 A 
ATOM     19  C   UNL     1      47.057   4.649  13.679  0.00  0.00    +0.000 A 
ATOM     20  C   UNL     1      46.999   4.081  14.950  0.00  0.00    +0.000 A 
ATOM     21  C   UNL     1      47.619   4.717  16.031  0.00  0.00    +0.000 A 
ATOM     22  C   UNL     1      48.388   5.868  15.803  0.00  0.00    +0.000 A 
ATOM     23  C   UNL     1      48.444   6.437  14.534  0.00  0.00    +0.000 A 
BRANCH  21  24
ATOM     24  C   UNL     1      47.359   4.256  17.447  0.00  0.00    +0.000 C 
BRANCH  24  25
ATOM     25  N   UNL     1      47.982   5.080  18.500  0.00  0.00    +0.000 NA
ATOM     26  C   UNL     1      46.957   5.827  19.248  0.00  0.00    +0.000 C 
ATOM     27  C   UNL     1      47.558   6.607  20.416  0.00  0.00    +0.000 C 
ATOM     28  C   UNL     1      48.314   5.677  21.355  0.00  0.00    +0.000 C 
ATOM     29  C   UNL     1      49.373   4.911  20.576  0.00  0.00    +0.000 C 
ATOM     30  C   UNL     1      48.759   4.189  19.379  0.00  0.00    +0.000 C 
ENDBRANCH  24  25
ENDBRANCH  21  24
ENDBRANCH  17  18
ENDBRANCH   1  17
TORSDOF 6
ENDMDL
MODEL 5
REMARK VINA RESULT:    -6.658      3.630      8.135
REMARK INTER + INTRA:         -10.300
REMARK INTER:                  -9.041
REMARK INTRA:                  -1.259
REMARK UNBOUND:                -1.307
REMARK  Name = 
REMARK  7 active torsions:
REMARK  status: ('A' for Active; 'I' for Inactive)
REMARK    1  A    between atoms: C_1  and  C_2
REMARK    2  A    between atoms: C_2  and  N_3
REMARK    3  A    between atoms: N_3  and  C_4
REMARK    4  A    between atoms: C_4  and  C_5
REMARK    5  A    between atoms: C_8  and  C_9
REMARK    6  A    between atoms: C_9  and  N_10
REMARK    7  A    between atoms: C_18  and  C_20
REMARK                            x       y       z     vdW  Elec       q    Type
REMARK                         _______ _______ _______ _____ _____    ______ ____
ROOT
ATOM      1  N   UNL     1      48.905   7.713  13.767  0.00  0.00    +0.000 N 
ATOM      2  C   UNL     1      49.766   7.713  14.875  0.00  0.00    +0.000 C 
ATOM      3  O   UNL     1      50.948   7.387  14.773  0.00  0.00    +0.000 OA
ENDROOT
BRANCH   2   4
ATOM      4  C   UNL     1      49.242   8.059  16.198  0.00  0.00    +0.000 A 
ATOM      5  C   UNL     1      49.092   9.354  16.666  0.00  0.00    +0.000 A 
ATOM      6  S   UNL     1      48.331   9.435  18.194  0.00  0.00    +0.000 S 
ATOM      7  C   UNL     1      48.069   7.752  18.213  0.00  0.00    +0.000 A 
ATOM      8  N   UNL     1      47.359   7.158  19.209  0.00  0.00    +0.000 NA
ATOM      9  C   UNL     1      47.182   5.888  19.045  0.00  0.00    +0.000 A 
ATOM     10  N   UNL     1      47.679   5.155  17.998  0.00  0.00    +0.000 N 
ATOM     11  C   UNL     1      48.520   5.687  17.045  0.00  0.00    +0.000 A 
ATOM     12  O   UNL     1      49.145   4.968  16.272  0.00  0.00    +0.000 OA
ATOM     13  C   UNL     1      48.642   7.131  17.120  0.00  0.00    +0.000 A 
ATOM     14  H   UNL     1      47.560   4.154  17.967  0.00  0.00    +0.000 HD
ENDBRANCH   2   4
BRANCH   1  16
ATOM     15  C   UNL     1      49.525   8.275  11.413  0.00  0.00    +0.000 C 
ATOM     16  C   UNL     1      49.484   7.215  12.509  0.00  0.00    +0.000 C 
ENDBRANCH   1  16
BRANCH   1  17
ATOM     17  C   UNL     1      47.492   8.136  13.825  0.00  0.00    +0.000 C 
BRANCH  17  18
ATOM     18  C   UNL     1      46.501   7.188  13.202  0.00  0.00    +0.000 A 
ATOM     19  C   UNL     1      46.568   5.813  13.476  0.00  0.00    +0.000 A 
ATOM     20  C   UNL     1      45.842   4.908  12.704  0.00  0.00    +0.000 A 
ATOM     21  C   UNL     1      45.029   5.368  11.662  0.00  0.00    +0.000 A 
ATOM     22  C   UNL     1      44.869   6.748  11.474  0.00  0.00    +0.000 A 
ATOM     23  C   UNL     1      45.596   7.653  12.243  0.00  0.00    +0.000 A 
BRANCH  21  24
ATOM     24  C   UNL     1      44.438   4.400  10.663  0.00  0.00    +0.000 C 
BRANCH  24  25
ATOM     25  N   UNL     1      45.413   3.744   9.772  0.00  0.00    +0.000 NA
ATOM     26  C   UNL     1      44.936   2.407   9.378  0.00  0.00    +0.000 C 
ATOM     27  C   UNL     1      45.871   1.742   8.369  0.00  0.00    +0.000 C 
ATOM     28  C   UNL     1      46.046   2.618   7.136  0.00  0.00    +0.000 C 
ATOM     29  C   UNL     1      46.542   3.995   7.550  0.00  0.00    +0.000 C 
ATOM     30  C   UNL     1      45.625   4.615   8.603  0.00  0.00    +0.000 C 
ENDBRANCH  24  25
ENDBRANCH  21  24
ENDBRANCH  17  18
ENDBRANCH   1  17
TORSDOF 6
ENDMDL
MODEL 6
REMARK VINA RESULT:    -6.530      3.362      8.200
REMARK INTER + INTRA:         -10.127
REMARK INTER:                  -9.503
REMARK INTRA:                  -0.624
REMARK UNBOUND:                -1.307
REMARK  Name = 
REMARK  7 active torsions:
REMARK  status: ('A' for Active; 'I' for Inactive)
REMARK    1  A    between atoms: C_1  and  C_2
REMARK    2  A    between atoms: C_2  and  N_3
REMARK    3  A    between atoms: N_3  and  C_4
REMARK    4  A    between atoms: C_4  and  C_5
REMARK    5  A    between atoms: C_8  and  C_9
REMARK    6  A    between atoms: C_9  and  N_10
REMARK    7  A    between atoms: C_18  and  C_20
REMARK                            x       y       z     vdW  Elec       q    Type
REMARK                         _______ _______ _______ _____ _____    ______ ____
ROOT
ATOM      1  N   UNL     1      48.492   7.138  13.911  0.00  0.00    +0.000 N 
ATOM      2  C   UNL     1      49.203   6.732  15.051  0.00  0.00    +0.000 C 
ATOM      3  O   UNL     1      50.426   6.848  15.122  0.00  0.00    +0.000 OA
ENDROOT
BRANCH   2   4
ATOM      4  C   UNL     1      48.489   6.108  16.166  0.00  0.00    +0.000 A 
ATOM      5  C   UNL     1      48.077   4.786  16.190  0.00  0.00    +0.000 A 
ATOM      6  S   UNL     1      47.388   4.321  17.683  0.00  0.00    +0.000 S 
ATOM      7  C   UNL     1      47.737   5.837  18.378  0.00  0.00    +0.000 A 
ATOM      8  N   UNL     1      47.500   6.082  19.694  0.00  0.00    +0.000 NA
ATOM      9  C   UNL     1      47.886   7.251  20.089  0.00  0.00    +0.000 A 
ATOM     10  N   UNL     1      48.451   8.205  19.284  0.00  0.00    +0.000 N 
ATOM     11  C   UNL     1      48.580   8.052  17.921  0.00  0.00    +0.000 A 
ATOM     12  O   UNL     1      48.854   9.003  17.195  0.00  0.00    +0.000 OA
ATOM     13  C   UNL     1      48.277   6.711  17.455  0.00  0.00    +0.000 A 
ATOM     14  H   UNL     1      48.668   9.122  19.644  0.00  0.00    +0.000 HD
ENDBRANCH   2   4
BRANCH   1  16
ATOM     15  C   UNL     1      48.902   9.012  12.311  0.00  0.00    +0.000 C 
ATOM     16  C   UNL     1      49.309   7.622  12.787  0.00  0.00    +0.000 C 
ENDBRANCH   1  16
BRANCH   1  17
ATOM     17  C   UNL     1      47.022   7.061  13.790  0.00  0.00    +0.000 C 
BRANCH  17  18
ATOM     18  C   UNL     1      46.504   6.143  12.715  0.00  0.00    +0.000 A 
ATOM     19  C   UNL     1      46.285   6.626  11.415  0.00  0.00    +0.000 A 
ATOM     20  C   UNL     1      45.559   5.868  10.499  0.00  0.00    +0.000 A 
ATOM     21  C   UNL     1      45.059   4.613  10.865  0.00  0.00    +0.000 A 
ATOM     22  C   UNL     1      45.388   4.083  12.121  0.00  0.00    +0.000 A 
ATOM     23  C   UNL     1      46.111   4.841  13.038  0.00  0.00    +0.000 A 
BRANCH  21  24
ATOM     24  C   UNL     1      44.066   3.893   9.982  0.00  0.00    +0.000 C 
BRANCH  24  25
ATOM     25  N   UNL     1      44.644   3.229   8.799  0.00  0.00    +0.000 NA
ATOM     26  C   UNL     1      45.560   4.139   8.091  0.00  0.00    +0.000 C 
ATOM     27  C   UNL     1      46.260   3.448   6.921  0.00  0.00    +0.000 C 
ATOM     28  C   UNL     1      47.015   2.214   7.395  0.00  0.00    +0.000 C 
ATOM     29  C   UNL     1      46.062   1.278   8.122  0.00  0.00    +0.000 C 
ATOM     30  C   UNL     1      45.330   2.005   9.248  0.00  0.00    +0.000 C 
ENDBRANCH  24  25
ENDBRANCH  21  24
ENDBRANCH  17  18
ENDBRANCH   1  17
TORSDOF 6
ENDMDL
MODEL 7
REMARK VINA RESULT:    -6.356      3.146      8.081
REMARK INTER + INTRA:          -9.892
REMARK INTER:                  -8.680
REMARK INTRA:                  -1.212
REMARK UNBOUND:                -1.307
REMARK  Name = 
REMARK  7 active torsions:
REMARK  status: ('A' for Active; 'I' for Inactive)
REMARK    1  A    between atoms: C_1  and  C_2
REMARK    2  A    between atoms: C_2  and  N_3
REMARK    3  A    between atoms: N_3  and  C_4
REMARK    4  A    between atoms: C_4  and  C_5
REMARK    5  A    between atoms: C_8  and  C_9
REMARK    6  A    between atoms: C_9  and  N_10
REMARK    7  A    between atoms: C_18  and  C_20
REMARK                            x       y       z     vdW  Elec       q    Type
REMARK                         _______ _______ _______ _____ _____    ______ ____
ROOT
ATOM      1  N   UNL     1      48.836   7.293  16.065  0.00  0.00    +0.000 N 
ATOM      2  C   UNL     1      48.554   6.741  17.324  0.00  0.00    +0.000 C 
ATOM      3  O   UNL     1      48.402   7.450  18.318  0.00  0.00    +0.000 OA
ENDROOT
BRANCH   2   4
ATOM      4  C   UNL     1      48.485   5.287  17.478  0.00  0.00    +0.000 A 
ATOM      5  C   UNL     1      47.319   4.544  17.388  0.00  0.00    +0.000 A 
ATOM      6  S   UNL     1      47.585   2.858  17.480  0.00  0.00    +0.000 S 
ATOM      7  C   UNL     1      49.275   3.072  17.516  0.00  0.00    +0.000 A 
ATOM      8  N   UNL     1      50.123   2.008  17.490  0.00  0.00    +0.000 NA
ATOM      9  C   UNL     1      51.372   2.333  17.447  0.00  0.00    +0.000 A 
ATOM     10  N   UNL     1      51.852   3.618  17.465  0.00  0.00    +0.000 N 
ATOM     11  C   UNL     1      51.038   4.717  17.634  0.00  0.00    +0.000 A 
ATOM     12  O   UNL     1      51.504   5.822  17.894  0.00  0.00    +0.000 OA
ATOM     13  C   UNL     1      49.622   4.408  17.559  0.00  0.00    +0.000 A 
ATOM     14  H   UNL     1      52.844   3.799  17.497  0.00  0.00    +0.000 HD
ENDBRANCH   2   4
BRANCH   1  16
ATOM     15  C   UNL     1      50.350   9.165  15.399  0.00  0.00    +0.000 C 
ATOM     16  C   UNL     1      49.027   8.751  16.035  0.00  0.00    +0.000 C 
ENDBRANCH   1  16
BRANCH   1  17
ATOM     17  C   UNL     1      48.984   6.493  14.832  0.00  0.00    +0.000 C 
BRANCH  17  18
ATOM     18  C   UNL     1      47.756   6.395  13.967  0.00  0.00    +0.000 A 
ATOM     19  C   UNL     1      46.831   5.357  14.163  0.00  0.00    +0.000 A 
ATOM     20  C   UNL     1      45.850   5.101  13.207  0.00  0.00    +0.000 A 
ATOM     21  C   UNL     1      45.770   5.891  12.055  0.00  0.00    +0.000 A 
ATOM     22  C   UNL     1      46.615   7.004  11.925  0.00  0.00    +0.000 A 
ATOM     23  C   UNL     1      47.597   7.258  12.879  0.00  0.00    +0.000 A 
BRANCH  21  24
ATOM     24  C   UNL     1      44.887   5.480  10.900  0.00  0.00    +0.000 C 
BRANCH  24  25
ATOM     25  N   UNL     1      45.433   4.413  10.041  0.00  0.00    +0.000 NA
ATOM     26  C   UNL     1      44.438   3.344   9.849  0.00  0.00    +0.000 C 
ATOM     27  C   UNL     1      44.932   2.273   8.876  0.00  0.00    +0.000 C 
ATOM     28  C   UNL     1      45.299   2.890   7.534  0.00  0.00    +0.000 C 
ATOM     29  C   UNL     1      46.328   3.991   7.740  0.00  0.00    +0.000 C 
ATOM     30  C   UNL     1      45.839   5.017   8.760  0.00  0.00    +0.000 C 
ENDBRANCH  24  25
ENDBRANCH  21  24
ENDBRANCH  17  18
ENDBRANCH   1  17
TORSDOF 6
ENDMDL
MODEL 8
REMARK VINA RESULT:    -6.340      3.551      8.297
REMARK INTER + INTRA:          -9.871
REMARK INTER:                  -8.391
REMARK INTRA:                  -1.480
REMARK UNBOUND:                -1.307
REMARK  Name = 
REMARK  7 active torsions:
REMARK  status: ('A' for Active; 'I' for Inactive)
REMARK    1  A    between atoms: C_1  and  C_2
REMARK    2  A    between atoms: C_2  and  N_3
REMARK    3  A    between atoms: N_3  and  C_4
REMARK    4  A    between atoms: C_4  and  C_5
REMARK    5  A    between atoms: C_8  and  C_9
REMARK    6  A    between atoms: C_9  and  N_10
REMARK    7  A    between atoms: C_18  and  C_20
REMARK                            x       y       z     vdW  Elec       q    Type
REMARK                         _______ _______ _______ _____ _____    ______ ____
ROOT
ATOM      1  N   UNL     1      48.457   8.264  13.263  0.00  0.00    +0.000 N 
ATOM      2  C   UNL     1      49.422   7.895  14.212  0.00  0.00    +0.000 C 
ATOM      3  O   UNL     1      50.616   7.830  13.925  0.00  0.00    +0.000 OA
ENDROOT
BRANCH   2   4
ATOM      4  C   UNL     1      49.002   7.527  15.566  0.00  0.00    +0.000 A 
ATOM      5  C   UNL     1      48.864   6.224  16.016  0.00  0.00    +0.000 A 
ATOM      6  S   UNL     1      48.489   6.122  17.680  0.00  0.00    +0.000 S 
ATOM      7  C   UNL     1      48.626   7.809  17.870  0.00  0.00    +0.000 A 
ATOM      8  N   UNL     1      48.527   8.393  19.095  0.00  0.00    +0.000 NA
ATOM      9  C   UNL     1      48.727   9.670  19.086  0.00  0.00    +0.000 A 
ATOM     10  N   UNL     1      48.980  10.418  17.966  0.00  0.00    +0.000 N 
ATOM     11  C   UNL     1      48.949   9.892  16.693  0.00  0.00    +0.000 A 
ATOM     12  O   UNL     1      48.931  10.617  15.703  0.00  0.00    +0.000 OA
ATOM     13  C   UNL     1      48.854   8.444  16.665  0.00  0.00    +0.000 A 
ATOM     14  H   UNL     1      49.060  11.422  18.023  0.00  0.00    +0.000 HD
ENDBRANCH   2   4
BRANCH   1  16
ATOM     15  C   UNL     1      48.892   9.937  11.460  0.00  0.00    +0.000 C 
ATOM     16  C   UNL     1      48.955   8.476  11.895  0.00  0.00    +0.000 C 
ENDBRANCH   1  16
BRANCH   1  17
ATOM     17  C   UNL     1      47.017   8.399  13.565  0.00  0.00    +0.000 C 
BRANCH  17  18
ATOM     18  C   UNL     1      46.126   7.336  12.979  0.00  0.00    +0.000 A 
ATOM     19  C   UNL     1      46.397   5.978  13.207  0.00  0.00    +0.000 A 
ATOM     20  C   UNL     1      45.752   4.998  12.456  0.00  0.00    +0.000 A 
ATOM     21  C   UNL     1      44.815   5.362  11.483  0.00  0.00    +0.000 A 
ATOM     22  C   UNL     1      44.456   6.711  11.347  0.00  0.00    +0.000 A 
ATOM     23  C   UNL     1      45.103   7.692  12.095  0.00  0.00    +0.000 A 
BRANCH  21  24
ATOM     24  C   UNL     1      44.295   4.344  10.495  0.00  0.00    +0.000 C 
BRANCH  24  25
ATOM     25  N   UNL     1      45.328   3.671   9.685  0.00  0.00    +0.000 NA
ATOM     26  C   UNL     1      44.885   2.321   9.299  0.00  0.00    +0.000 C 
ATOM     27  C   UNL     1      45.885   1.636   8.368  0.00  0.00    +0.000 C 
ATOM     28  C   UNL     1      46.130   2.479   7.125  0.00  0.00    +0.000 C 
ATOM     29  C   UNL     1      46.590   3.871   7.531  0.00  0.00    +0.000 C 
ATOM     30  C   UNL     1      45.607   4.512   8.507  0.00  0.00    +0.000 C 
ENDBRANCH  24  25
ENDBRANCH  21  24
ENDBRANCH  17  18
ENDBRANCH   1  17
TORSDOF 6
ENDMDL
MODEL 9
REMARK VINA RESULT:    -6.236      3.492      8.033
REMARK INTER + INTRA:          -9.730
REMARK INTER:                  -8.229
REMARK INTRA:                  -1.501
REMARK UNBOUND:                -1.307
REMARK  Name = 
REMARK  7 active torsions:
REMARK  status: ('A' for Active; 'I' for Inactive)
REMARK    1  A    between atoms: C_1  and  C_2
REMARK    2  A    between atoms: C_2  and  N_3
REMARK    3  A    between atoms: N_3  and  C_4
REMARK    4  A    between atoms: C_4  and  C_5
REMARK    5  A    between atoms: C_8  and  C_9
REMARK    6  A    between atoms: C_9  and  N_10
REMARK    7  A    between atoms: C_18  and  C_20
REMARK                            x       y       z     vdW  Elec       q    Type
REMARK                         _______ _______ _______ _____ _____    ______ ____
ROOT
ATOM      1  N   UNL     1      48.650   8.351  16.986  0.00  0.00    +0.000 N 
ATOM      2  C   UNL     1      48.971   7.389  17.956  0.00  0.00    +0.000 C 
ATOM      3  O   UNL     1      48.461   7.407  19.076  0.00  0.00    +0.000 OA
ENDROOT
BRANCH   2   4
ATOM      4  C   UNL     1      49.974   6.365  17.656  0.00  0.00    +0.000 A 
ATOM      5  C   UNL     1      51.342   6.561  17.739  0.00  0.00    +0.000 A 
ATOM      6  S   UNL     1      52.246   5.139  17.456  0.00  0.00    +0.000 S 
ATOM      7  C   UNL     1      50.831   4.198  17.340  0.00  0.00    +0.000 A 
ATOM      8  N   UNL     1      50.890   2.846  17.205  0.00  0.00    +0.000 NA
ATOM      9  C   UNL     1      49.735   2.266  17.206  0.00  0.00    +0.000 A 
ATOM     10  N   UNL     1      48.530   2.915  17.292  0.00  0.00    +0.000 N 
ATOM     11  C   UNL     1      48.419   4.288  17.288  0.00  0.00    +0.000 A 
ATOM     12  O   UNL     1      47.337   4.840  17.116  0.00  0.00    +0.000 OA
ATOM     13  C   UNL     1      49.691   4.974  17.416  0.00  0.00    +0.000 A 
ATOM     14  H   UNL     1      47.663   2.405  17.220  0.00  0.00    +0.000 HD
ENDBRANCH   2   4
BRANCH   1  16
ATOM     15  C   UNL     1      48.452  10.754  17.636  0.00  0.00    +0.000 C 
ATOM     16  C   UNL     1      47.742   9.421  17.425  0.00  0.00    +0.000 C 
ENDBRANCH   1  16
BRANCH   1  17
ATOM     17  C   UNL     1      49.199   8.350  15.616  0.00  0.00    +0.000 C 
BRANCH  17  18
ATOM     18  C   UNL     1      48.280   7.823  14.545  0.00  0.00    +0.000 A 
ATOM     19  C   UNL     1      47.345   8.672  13.932  0.00  0.00    +0.000 A 
ATOM     20  C   UNL     1      46.322   8.141  13.151  0.00  0.00    +0.000 A 
ATOM     21  C   UNL     1      46.232   6.758  12.957  0.00  0.00    +0.000 A 
ATOM     22  C   UNL     1      47.240   5.926  13.467  0.00  0.00    +0.000 A 
ATOM     23  C   UNL     1      48.261   6.456  14.251  0.00  0.00    +0.000 A 
BRANCH  21  24
ATOM     24  C   UNL     1      45.000   6.147  12.330  0.00  0.00    +0.000 C 
BRANCH  24  25
ATOM     25  N   UNL     1      45.259   5.063  11.365  0.00  0.00    +0.000 NA
ATOM     26  C   UNL     1      44.113   4.141  11.301  0.00  0.00    +0.000 C 
ATOM     27  C   UNL     1      44.303   3.066  10.231  0.00  0.00    +0.000 C 
ATOM     28  C   UNL     1      44.540   3.698   8.867  0.00  0.00    +0.000 C 
ATOM     29  C   UNL     1      45.727   4.646   8.940  0.00  0.00    +0.000 C 
ATOM     30  C   UNL     1      45.543   5.673  10.054  0.00  0.00    +0.000 C 
ENDBRANCH  24  25
ENDBRANCH  21  24
ENDBRANCH  17  18
ENDBRANCH   1  17
TORSDOF 6
ENDMDL
