MODEL 1
REMARK VINA RESULT:    -8.369      0.000      0.000
REMARK INTER + INTRA:         -11.633
REMARK INTER:                 -10.815
REMARK INTRA:                  -0.818
REMARK UNBOUND:                -0.818
REMARK  Name = 
REMARK  5 active torsions:
REMARK  status: ('A' for Active; 'I' for Inactive)
REMARK    1  A    between atoms: C_2  and  C_4
REMARK    2  A    between atoms: C_7  and  C_8
REMARK    3  A    between atoms: C_8  and  O_9
REMARK    4  A    between atoms: O_9  and  C_10
REMARK    5  A    between atoms: C_15  and  C_16
REMARK                            x       y       z     vdW  Elec       q    Type
REMARK                         _______ _______ _______ _____ _____    ______ ____
ROOT
ATOM      1  C   UNL     1      45.463   5.747  11.794  0.00  0.00    +0.000 A 
ATOM      2  C   UNL     1      45.450   4.864  12.869  0.00  0.00    +0.000 A 
ATOM      3  C   UNL     1      46.513   4.865  13.757  0.00  0.00    +0.000 A 
ATOM      4  F   UNL     1      46.510   4.008  14.786  0.00  0.00    +0.000 F 
ATOM      5  C   UNL     1      47.583   5.740  13.604  0.00  0.00    +0.000 A 
ATOM      6  C   UNL     1      47.604   6.675  12.563  0.00  0.00    +0.000 A 
ATOM      7  C   UNL     1      46.536   6.638  11.644  0.00  0.00    +0.000 A 
ENDROOT
BRANCH   6   8
ATOM      8  C   UNL     1      48.740   7.680  12.365  0.00  0.00    +0.000 C 
ATOM      9  C   UNL     1      49.494   8.100  13.642  0.00  0.00    +0.000 C 
ATOM     10  C   UNL     1      48.673   9.058  14.514  0.00  0.00    +0.000 C 
ATOM     11  N   UNL     1      48.238  10.245  13.786  0.00  0.00    +0.000 NA
ATOM     12  C   UNL     1      47.509   9.907  12.563  0.00  0.00    +0.000 C 
ATOM     13  C   UNL     1      48.296   8.972  11.644  0.00  0.00    +0.000 C 
ATOM     14  H   UNL     1      49.055  10.814  13.548  0.00  0.00    +0.000 HD
ENDBRANCH   6   8
BRANCH   1  15
ATOM     15  O   UNL     1      44.500   5.838  10.827  0.00  0.00    +0.000 OA
BRANCH  15  16
ATOM     16  C   UNL     1      43.896   4.609  10.420  0.00  0.00    +0.000 C 
BRANCH  16  20
ATOM     17  C   UNL     1      46.476   2.482   7.687  0.00  0.00    +0.000 A 
ATOM     18  C   UNL     1      46.393   3.876   7.614  0.00  0.00    +0.000 A 
ATOM     19  C   UNL     1      45.556   4.572   8.489  0.00  0.00    +0.000 A 
ATOM     20  C   UNL     1      44.781   3.882   9.434  0.00  0.00    +0.000 A 
ATOM     21  C   UNL     1      44.876   2.485   9.503  0.00  0.00    +0.000 A 
ATOM     22  C   UNL     1      45.708   1.788   8.629  0.00  0.00    +0.000 A 
BRANCH  17  24
ATOM     23  N   UNL     1      48.407   2.355   6.209  0.00  0.00    +0.000 N 
ATOM     24  C   UNL     1      47.349   1.701   6.774  0.00  0.00    +0.000 C 
ATOM     25  O   UNL     1      47.158   0.509   6.564  0.00  0.00    +0.000 OA
ATOM     26  H   UNL     1      49.053   1.783   5.680  0.00  0.00    +0.000 HD
ATOM     27  H   UNL     1      48.740   3.242   6.557  0.00  0.00    +0.000 HD
ENDBRANCH  17  24
ENDBRANCH  16  20
ENDBRANCH  15  16
ENDBRANCH   1  15
TORSDOF 5
ENDMDL
MODEL 2
REMARK VINA RESULT:    -7.745      1.688      2.233
REMARK INTER + INTRA:         -10.827
REMARK INTER:                 -10.474
REMARK INTRA:                  -0.353
REMARK UNBOUND:                -0.818
REMARK  Name = 
REMARK  5 active torsions:
REMARK  status: ('A' for Active; 'I' for Inactive)
REMARK    1  A    between atoms: C_2  and  C_4
REMARK    2  A    between atoms: C_7  and  C_8
REMARK    3  A    between atoms: C_8  and  O_9
REMARK    4  A    between atoms: O_9  and  C_10
REMARK    5  A    between atoms: C_15  and  C_16
REMARK                            x       y       z     vdW  Elec       q    Type
REMARK                         _______ _______ _______ _____ _____    ______ ____
ROOT
ATOM      1  C   UNL     1      44.919   5.387  11.914  0.00  0.00    +0.000 A 
ATOM      2  C   UNL     1      44.298   6.583  11.564  0.00  0.00    +0.000 A 
ATOM      3  C   UNL     1      44.999   7.770  11.693  0.00  0.00    +0.000 A 
ATOM      4  F   UNL     1      44.402   8.923  11.368  0.00  0.00    +0.000 F 
ATOM      5  C   UNL     1      46.313   7.790  12.149  0.00  0.00    +0.000 A 
ATOM      6  C   UNL     1      46.983   6.601  12.461  0.00  0.00    +0.000 A 
ATOM      7  C   UNL     1      46.247   5.404  12.364  0.00  0.00    +0.000 A 
ENDROOT
BRANCH   6   8
ATOM      8  C   UNL     1      48.435   6.562  12.939  0.00  0.00    +0.000 C 
ATOM      9  C   UNL     1      48.664   6.911  14.422  0.00  0.00    +0.000 C 
ATOM     10  C   UNL     1      48.515   8.412  14.697  0.00  0.00    +0.000 C 
ATOM     11  N   UNL     1      49.393   9.224  13.861  0.00  0.00    +0.000 NA
ATOM     12  C   UNL     1      49.216   8.940  12.436  0.00  0.00    +0.000 C 
ATOM     13  C   UNL     1      49.379   7.456  12.104  0.00  0.00    +0.000 C 
ATOM     14  H   UNL     1      50.366   9.050  14.123  0.00  0.00    +0.000 HD
ENDBRANCH   6   8
BRANCH   1  15
ATOM     15  O   UNL     1      44.343   4.148  11.865  0.00  0.00    +0.000 OA
BRANCH  15  16
ATOM     16  C   UNL     1      43.653   3.819  10.658  0.00  0.00    +0.000 C 
BRANCH  16  20
ATOM     17  C   UNL     1      46.377   2.621   7.529  0.00  0.00    +0.000 A 
ATOM     18  C   UNL     1      45.853   1.656   8.393  0.00  0.00    +0.000 A 
ATOM     19  C   UNL     1      44.976   2.034   9.413  0.00  0.00    +0.000 A 
ATOM     20  C   UNL     1      44.629   3.383   9.590  0.00  0.00    +0.000 A 
ATOM     21  C   UNL     1      45.156   4.342   8.713  0.00  0.00    +0.000 A 
ATOM     22  C   UNL     1      46.033   3.967   7.698  0.00  0.00    +0.000 A 
BRANCH  17  24
ATOM     23  N   UNL     1      47.330   3.072   5.334  0.00  0.00    +0.000 N 
ATOM     24  C   UNL     1      47.315   2.264   6.435  0.00  0.00    +0.000 C 
ATOM     25  O   UNL     1      48.077   1.309   6.527  0.00  0.00    +0.000 OA
ATOM     26  H   UNL     1      48.050   2.880   4.649  0.00  0.00    +0.000 HD
ATOM     27  H   UNL     1      46.918   3.994   5.337  0.00  0.00    +0.000 HD
ENDBRANCH  17  24
ENDBRANCH  16  20
ENDBRANCH  15  16
ENDBRANCH   1  15
TORSDOF 5
ENDMDL
MODEL 3
REMARK VINA RESULT:    -7.466      4.895      7.909
REMARK INTER + INTRA:         -10.467
REMARK INTER:                 -10.016
REMARK INTRA:                  -0.451
REMARK UNBOUND:                -0.818
REMARK  Name = 
REMARK  5 active torsions:
REMARK  status: ('A' for Active; 'I' for Inactive)
REMARK    1  A    between atoms: C_2  and  C_4
REMARK    2  A    between atoms: C_7  and  C_8
REMARK    3  A    between atoms: C_8  and  O_9
REMARK    4  A    between atoms: O_9  and  C_10
REMARK    5  A    between atoms: C_15  and  C_16
REMARK                            x       y       z     vdW  Elec       q    Type
REMARK                         _______ _______ _______ _____ _____    ______ ____
ROOT
ATOM      1  C   UNL     1      46.632   4.862  14.120  0.00  0.00    +0.000 A 
ATOM      2  C   UNL     1      47.627   5.762  13.753  0.00  0.00    +0.000 A 
ATOM      3  C   UNL     1      47.532   6.414  12.536  0.00  0.00    +0.000 A 
ATOM      4  F   UNL     1      48.493   7.272  12.173  0.00  0.00    +0.000 F 
ATOM      5  C   UNL     1      46.456   6.199  11.681  0.00  0.00    +0.000 A 
ATOM      6  C   UNL     1      45.413   5.338  12.041  0.00  0.00    +0.000 A 
ATOM      7  C   UNL     1      45.540   4.651  13.265  0.00  0.00    +0.000 A 
ENDROOT
BRANCH   6   8
ATOM      8  C   UNL     1      44.193   5.087  11.155  0.00  0.00    +0.000 C 
ATOM      9  C   UNL     1      43.077   4.223  11.776  0.00  0.00    +0.000 C 
ATOM     10  C   UNL     1      43.456   2.739  11.837  0.00  0.00    +0.000 C 
ATOM     11  N   UNL     1      43.825   2.201  10.532  0.00  0.00    +0.000 NA
ATOM     12  C   UNL     1      44.887   2.979   9.893  0.00  0.00    +0.000 C 
ATOM     13  C   UNL     1      44.548   4.466   9.785  0.00  0.00    +0.000 C 
ATOM     14  H   UNL     1      43.001   2.190   9.925  0.00  0.00    +0.000 HD
ENDBRANCH   6   8
BRANCH   1  15
ATOM     15  O   UNL     1      46.608   4.128  15.275  0.00  0.00    +0.000 OA
BRANCH  15  16
ATOM     16  C   UNL     1      47.318   4.677  16.386  0.00  0.00    +0.000 C 
BRANCH  16  20
ATOM     17  C   UNL     1      50.780   2.279  17.343  0.00  0.00    +0.000 A 
ATOM     18  C   UNL     1      49.706   1.699  16.660  0.00  0.00    +0.000 A 
ATOM     19  C   UNL     1      48.579   2.465  16.352  0.00  0.00    +0.000 A 
ATOM     20  C   UNL     1      48.507   3.812  16.738  0.00  0.00    +0.000 A 
ATOM     21  C   UNL     1      49.591   4.386  17.417  0.00  0.00    +0.000 A 
ATOM     22  C   UNL     1      50.715   3.623  17.728  0.00  0.00    +0.000 A 
BRANCH  17  24
ATOM     23  N   UNL     1      51.814   0.216  18.120  0.00  0.00    +0.000 N 
ATOM     24  C   UNL     1      51.995   1.501  17.694  0.00  0.00    +0.000 C 
ATOM     25  O   UNL     1      53.119   1.973  17.569  0.00  0.00    +0.000 OA
ATOM     26  H   UNL     1      52.654  -0.334  18.248  0.00  0.00    +0.000 HD
ATOM     27  H   UNL     1      50.944  -0.278  17.986  0.00  0.00    +0.000 HD
ENDBRANCH  17  24
ENDBRANCH  16  20
ENDBRANCH  15  16
ENDBRANCH   1  15
TORSDOF 5
ENDMDL
MODEL 4
REMARK VINA RESULT:    -7.288      2.514      3.281
REMARK INTER + INTRA:         -10.236
REMARK INTER:                  -9.464
REMARK INTRA:                  -0.773
REMARK UNBOUND:                -0.818
REMARK  Name = 
REMARK  5 active torsions:
REMARK  status: ('A' for Active; 'I' for Inactive)
REMARK    1  A    between atoms: C_2  and  C_4
REMARK    2  A    between atoms: C_7  and  C_8
REMARK    3  A    between atoms: C_8  and  O_9
REMARK    4  A    between atoms: O_9  and  C_10
REMARK    5  A    between atoms: C_15  and  C_16
REMARK                            x       y       z     vdW  Elec       q    Type
REMARK                         _______ _______ _______ _____ _____    ______ ____
ROOT
ATOM      1  C   UNL     1      45.338   6.320  11.730  0.00  0.00    +0.000 A 
ATOM      2  C   UNL     1      46.723   6.325  11.863  0.00  0.00    +0.000 A 
ATOM      3  C   UNL     1      47.385   7.535  11.989  0.00  0.00    +0.000 A 
ATOM      4  F   UNL     1      48.719   7.545  12.105  0.00  0.00    +0.000 F 
ATOM      5  C   UNL     1      46.693   8.741  11.999  0.00  0.00    +0.000 A 
ATOM      6  C   UNL     1      45.296   8.769  11.918  0.00  0.00    +0.000 A 
ATOM      7  C   UNL     1      44.637   7.535  11.751  0.00  0.00    +0.000 A 
ENDROOT
BRANCH   6   8
ATOM      8  C   UNL     1      44.483  10.064  11.955  0.00  0.00    +0.000 C 
ATOM      9  C   UNL     1      43.242  10.103  11.042  0.00  0.00    +0.000 C 
ATOM     10  C   UNL     1      43.612  10.268   9.563  0.00  0.00    +0.000 C 
ATOM     11  N   UNL     1      44.439  11.445   9.320  0.00  0.00    +0.000 NA
ATOM     12  C   UNL     1      45.639  11.460  10.158  0.00  0.00    +0.000 C 
ATOM     13  C   UNL     1      45.322  11.324  11.647  0.00  0.00    +0.000 C 
ATOM     14  H   UNL     1      43.889  12.288   9.501  0.00  0.00    +0.000 HD
ENDBRANCH   6   8
BRANCH   1  15
ATOM     15  O   UNL     1      44.558   5.208  11.570  0.00  0.00    +0.000 OA
BRANCH  15  16
ATOM     16  C   UNL     1      43.958   5.037  10.285  0.00  0.00    +0.000 C 
BRANCH  16  20
ATOM     17  C   UNL     1      46.340   2.291   7.954  0.00  0.00    +0.000 A 
ATOM     18  C   UNL     1      46.441   3.665   7.716  0.00  0.00    +0.000 A 
ATOM     19  C   UNL     1      45.669   4.561   8.460  0.00  0.00    +0.000 A 
ATOM     20  C   UNL     1      44.777   4.091   9.437  0.00  0.00    +0.000 A 
ATOM     21  C   UNL     1      44.689   2.712   9.672  0.00  0.00    +0.000 A 
ATOM     22  C   UNL     1      45.455   1.817   8.929  0.00  0.00    +0.000 A 
BRANCH  17  24
ATOM     23  N   UNL     1      47.957   1.788   6.204  0.00  0.00    +0.000 N 
ATOM     24  C   UNL     1      47.138   1.304   7.184  0.00  0.00    +0.000 C 
ATOM     25  O   UNL     1      47.099   0.105   7.438  0.00  0.00    +0.000 OA
ATOM     26  H   UNL     1      48.575   1.117   5.766  0.00  0.00    +0.000 HD
ATOM     27  H   UNL     1      48.208   2.765   6.146  0.00  0.00    +0.000 HD
ENDBRANCH  17  24
ENDBRANCH  16  20
ENDBRANCH  15  16
ENDBRANCH   1  15
TORSDOF 5
ENDMDL
MODEL 5
REMARK VINA RESULT:    -6.911      5.348      7.953
REMARK INTER + INTRA:          -9.749
REMARK INTER:                  -9.060
REMARK INTRA:                  -0.689
REMARK UNBOUND:                -0.818
REMARK  Name = 
REMARK  5 active torsions:
REMARK  status: ('A' for Active; 'I' for Inactive)
REMARK    1  A    between atoms: C_2  and  C_4
REMARK    2  A    between atoms: C_7  and  C_8
REMARK    3  A    between atoms: C_8  and  O_9
REMARK    4  A    between atoms: O_9  and  C_10
REMARK    5  A    between atoms: C_15  and  C_16
REMARK                            x       y       z     vdW  Elec       q    Type
REMARK                         _______ _______ _______ _____ _____    ______ ____
ROOT
ATOM      1  C   UNL     1      47.190   5.007  14.853  0.00  0.00    +0.000 A 
ATOM      2  C   UNL     1      47.986   6.067  14.430  0.00  0.00    +0.000 A 
ATOM      3  C   UNL     1      47.831   6.555  13.143  0.00  0.00    +0.000 A 
ATOM      4  F   UNL     1      48.603   7.567  12.728  0.00  0.00    +0.000 F 
ATOM      5  C   UNL     1      46.888   6.018  12.274  0.00  0.00    +0.000 A 
ATOM      6  C   UNL     1      46.037   4.985  12.685  0.00  0.00    +0.000 A 
ATOM      7  C   UNL     1      46.231   4.471  13.982  0.00  0.00    +0.000 A 
ENDROOT
BRANCH   6   8
ATOM      8  C   UNL     1      44.963   4.378  11.781  0.00  0.00    +0.000 C 
ATOM      9  C   UNL     1      44.421   5.300  10.671  0.00  0.00    +0.000 C 
ATOM     10  C   UNL     1      43.481   6.381  11.220  0.00  0.00    +0.000 C 
ATOM     11  N   UNL     1      42.370   5.822  11.982  0.00  0.00    +0.000 NA
ATOM     12  C   UNL     1      42.825   4.940  13.058  0.00  0.00    +0.000 C 
ATOM     13  C   UNL     1      43.747   3.827  12.559  0.00  0.00    +0.000 C 
ATOM     14  H   UNL     1      41.756   5.300  11.353  0.00  0.00    +0.000 HD
ENDBRANCH   6   8
BRANCH   1  15
ATOM     15  O   UNL     1      47.252   4.407  16.081  0.00  0.00    +0.000 OA
BRANCH  15  16
ATOM     16  C   UNL     1      48.199   4.950  17.003  0.00  0.00    +0.000 C 
BRANCH  16  20
ATOM     17  C   UNL     1      51.492   2.213  17.560  0.00  0.00    +0.000 A 
ATOM     18  C   UNL     1      51.680   3.576  17.804  0.00  0.00    +0.000 A 
ATOM     19  C   UNL     1      50.622   4.471  17.619  0.00  0.00    +0.000 A 
ATOM     20  C   UNL     1      49.372   4.013  17.174  0.00  0.00    +0.000 A 
ATOM     21  C   UNL     1      49.193   2.643  16.938  0.00  0.00    +0.000 A 
ATOM     22  C   UNL     1      50.247   1.750  17.118  0.00  0.00    +0.000 A 
BRANCH  17  24
ATOM     23  N   UNL     1      52.268   0.029  18.308  0.00  0.00    +0.000 N 
ATOM     24  C   UNL     1      52.589   1.228  17.738  0.00  0.00    +0.000 C 
ATOM     25  O   UNL     1      53.729   1.460  17.354  0.00  0.00    +0.000 OA
ATOM     26  H   UNL     1      53.000  -0.669  18.321  0.00  0.00    +0.000 HD
ATOM     27  H   UNL     1      51.313  -0.289  18.392  0.00  0.00    +0.000 HD
ENDBRANCH  17  24
ENDBRANCH  16  20
ENDBRANCH  15  16
ENDBRANCH   1  15
TORSDOF 5
ENDMDL
MODEL 6
REMARK VINA RESULT:    -6.868      2.267      3.131
REMARK INTER + INTRA:          -9.694
REMARK INTER:                  -8.930
REMARK INTRA:                  -0.764
REMARK UNBOUND:                -0.818
REMARK  Name = 
REMARK  5 active torsions:
REMARK  status: ('A' for Active; 'I' for Inactive)
REMARK    1  A    between atoms: C_2  and  C_4
REMARK    2  A    between atoms: C_7  and  C_8
REMARK    3  A    between atoms: C_8  and  O_9
REMARK    4  A    between atoms: O_9  and  C_10
REMARK    5  A    between atoms: C_15  and  C_16
REMARK                            x       y       z     vdW  Elec       q    Type
REMARK                         _______ _______ _______ _____ _____    ______ ____
ROOT
ATOM      1  C   UNL     1      44.866   5.015  12.329  0.00  0.00    +0.000 A 
ATOM      2  C   UNL     1      44.697   6.370  12.062  0.00  0.00    +0.000 A 
ATOM      3  C   UNL     1      45.587   7.281  12.604  0.00  0.00    +0.000 A 
ATOM      4  F   UNL     1      45.421   8.587  12.358  0.00  0.00    +0.000 F 
ATOM      5  C   UNL     1      46.653   6.869  13.395  0.00  0.00    +0.000 A 
ATOM      6  C   UNL     1      46.882   5.510  13.643  0.00  0.00    +0.000 A 
ATOM      7  C   UNL     1      45.947   4.596  13.119  0.00  0.00    +0.000 A 
ENDROOT
BRANCH   6   8
ATOM      8  C   UNL     1      48.054   5.000  14.481  0.00  0.00    +0.000 C 
ATOM      9  C   UNL     1      47.722   3.883  15.489  0.00  0.00    +0.000 C 
ATOM     10  C   UNL     1      46.957   4.408  16.710  0.00  0.00    +0.000 C 
ATOM     11  N   UNL     1      47.662   5.490  17.389  0.00  0.00    +0.000 NA
ATOM     12  C   UNL     1      48.000   6.586  16.480  0.00  0.00    +0.000 C 
ATOM     13  C   UNL     1      48.787   6.118  15.256  0.00  0.00    +0.000 C 
ATOM     14  H   UNL     1      48.518   5.123  17.811  0.00  0.00    +0.000 HD
ENDBRANCH   6   8
BRANCH   1  15
ATOM     15  O   UNL     1      44.052   4.008  11.887  0.00  0.00    +0.000 OA
BRANCH  15  16
ATOM     16  C   UNL     1      43.574   4.126  10.546  0.00  0.00    +0.000 C 
BRANCH  16  20
ATOM     17  C   UNL     1      46.463   2.706   7.667  0.00  0.00    +0.000 A 
ATOM     18  C   UNL     1      45.779   1.787   8.469  0.00  0.00    +0.000 A 
ATOM     19  C   UNL     1      44.847   2.237   9.408  0.00  0.00    +0.000 A 
ATOM     20  C   UNL     1      44.603   3.610   9.567  0.00  0.00    +0.000 A 
ATOM     21  C   UNL     1      45.290   4.523   8.754  0.00  0.00    +0.000 A 
ATOM     22  C   UNL     1      46.222   4.076   7.819  0.00  0.00    +0.000 A 
BRANCH  17  24
ATOM     23  N   UNL     1      47.454   2.909   5.452  0.00  0.00    +0.000 N 
ATOM     24  C   UNL     1      47.464   2.272   6.660  0.00  0.00    +0.000 C 
ATOM     25  O   UNL     1      48.295   1.406   6.911  0.00  0.00    +0.000 OA
ATOM     26  H   UNL     1      48.211   2.680   4.820  0.00  0.00    +0.000 HD
ATOM     27  H   UNL     1      46.971   3.784   5.309  0.00  0.00    +0.000 HD
ENDBRANCH  17  24
ENDBRANCH  16  20
ENDBRANCH  15  16
ENDBRANCH   1  15
TORSDOF 5
ENDMDL
MODEL 7
REMARK VINA RESULT:    -6.762      4.669      8.717
REMARK INTER + INTRA:          -9.557
REMARK INTER:                  -9.239
REMARK INTRA:                  -0.319
REMARK UNBOUND:                -0.818
REMARK  Name = 
REMARK  5 active torsions:
REMARK  status: ('A' for Active; 'I' for Inactive)
REMARK    1  A    between atoms: C_2  and  C_4
REMARK    2  A    between atoms: C_7  and  C_8
REMARK    3  A    between atoms: C_8  and  O_9
REMARK    4  A    between atoms: O_9  and  C_10
REMARK    5  A    between atoms: C_15  and  C_16
REMARK                            x       y       z     vdW  Elec       q    Type
REMARK                         _______ _______ _______ _____ _____    ______ ____
ROOT
ATOM      1  C   UNL     1      46.452   5.149  13.728  0.00  0.00    +0.000 A 
ATOM      2  C   UNL     1      47.400   6.082  13.319  0.00  0.00    +0.000 A 
ATOM      3  C   UNL     1      47.294   6.643  12.058  0.00  0.00    +0.000 A 
ATOM      4  F   UNL     1      48.211   7.532  11.656  0.00  0.00    +0.000 F 
ATOM      5  C   UNL     1      46.254   6.305  11.199  0.00  0.00    +0.000 A 
ATOM      6  C   UNL     1      45.255   5.408  11.598  0.00  0.00    +0.000 A 
ATOM      7  C   UNL     1      45.395   4.815  12.868  0.00  0.00    +0.000 A 
ENDROOT
BRANCH   6   8
ATOM      8  C   UNL     1      44.073   5.024  10.707  0.00  0.00    +0.000 C 
ATOM      9  C   UNL     1      42.945   4.231  11.395  0.00  0.00    +0.000 C 
ATOM     10  C   UNL     1      43.337   2.774  11.664  0.00  0.00    +0.000 C 
ATOM     11  N   UNL     1      43.762   2.076  10.455  0.00  0.00    +0.000 NA
ATOM     12  C   UNL     1      44.840   2.781   9.759  0.00  0.00    +0.000 C 
ATOM     13  C   UNL     1      44.488   4.236   9.445  0.00  0.00    +0.000 C 
ATOM     14  H   UNL     1      42.963   1.973   9.825  0.00  0.00    +0.000 HD
ENDBRANCH   6   8
BRANCH   1  15
ATOM     15  O   UNL     1      46.445   4.495  14.930  0.00  0.00    +0.000 OA
BRANCH  15  16
ATOM     16  C   UNL     1      47.635   3.781  15.267  0.00  0.00    +0.000 C 
BRANCH  16  20
ATOM     17  C   UNL     1      48.662   4.319  19.426  0.00  0.00    +0.000 A 
ATOM     18  C   UNL     1      48.359   3.039  18.951  0.00  0.00    +0.000 A 
ATOM     19  C   UNL     1      48.018   2.857  17.608  0.00  0.00    +0.000 A 
ATOM     20  C   UNL     1      47.962   3.952  16.732  0.00  0.00    +0.000 A 
ATOM     21  C   UNL     1      48.273   5.230  17.218  0.00  0.00    +0.000 A 
ATOM     22  C   UNL     1      48.609   5.415  18.558  0.00  0.00    +0.000 A 
BRANCH  17  24
ATOM     23  N   UNL     1      50.353   4.658  21.146  0.00  0.00    +0.000 N 
ATOM     24  C   UNL     1      49.024   4.559  20.846  0.00  0.00    +0.000 C 
ATOM     25  O   UNL     1      48.169   4.705  21.712  0.00  0.00    +0.000 OA
ATOM     26  H   UNL     1      50.578   4.931  22.094  0.00  0.00    +0.000 HD
ATOM     27  H   UNL     1      51.055   4.803  20.435  0.00  0.00    +0.000 HD
ENDBRANCH  17  24
ENDBRANCH  16  20
ENDBRANCH  15  16
ENDBRANCH   1  15
TORSDOF 5
ENDMDL
MODEL 8
REMARK VINA RESULT:    -6.338      4.076      5.939
REMARK INTER + INTRA:          -9.009
REMARK INTER:                  -8.302
REMARK INTRA:                  -0.707
REMARK UNBOUND:                -0.818
REMARK  Name = 
REMARK  5 active torsions:
REMARK  status: ('A' for Active; 'I' for Inactive)
REMARK    1  A    between atoms: C_2  and  C_4
REMARK    2  A    between atoms: C_7  and  C_8
REMARK    3  A    between atoms: C_8  and  O_9
REMARK    4  A    between atoms: O_9  and  C_10
REMARK    5  A    between atoms: C_15  and  C_16
REMARK                            x       y       z     vdW  Elec       q    Type
REMARK                         _______ _______ _______ _____ _____    ______ ____
ROOT
ATOM      1  C   UNL     1      48.894   7.184  15.000  0.00  0.00    +0.000 A 
ATOM      2  C   UNL     1      50.201   7.653  14.909  0.00  0.00    +0.000 A 
ATOM      3  C   UNL     1      51.160   7.147  15.769  0.00  0.00    +0.000 A 
ATOM      4  F   UNL     1      52.417   7.604  15.693  0.00  0.00    +0.000 F 
ATOM      5  C   UNL     1      50.848   6.172  16.710  0.00  0.00    +0.000 A 
ATOM      6  C   UNL     1      49.555   5.643  16.794  0.00  0.00    +0.000 A 
ATOM      7  C   UNL     1      48.578   6.193  15.940  0.00  0.00    +0.000 A 
ENDROOT
BRANCH   6   8
ATOM      8  C   UNL     1      49.163   4.549  17.788  0.00  0.00    +0.000 C 
ATOM      9  C   UNL     1      50.274   3.547  18.156  0.00  0.00    +0.000 C 
ATOM     10  C   UNL     1      50.556   2.549  17.027  0.00  0.00    +0.000 C 
ATOM     11  N   UNL     1      49.361   1.826  16.607  0.00  0.00    +0.000 NA
ATOM     12  C   UNL     1      48.269   2.728  16.239  0.00  0.00    +0.000 C 
ATOM     13  C   UNL     1      47.931   3.729  17.344  0.00  0.00    +0.000 C 
ATOM     14  H   UNL     1      49.052   1.213  17.366  0.00  0.00    +0.000 HD
ENDBRANCH   6   8
BRANCH   1  15
ATOM     15  O   UNL     1      47.841   7.611  14.238  0.00  0.00    +0.000 OA
BRANCH  15  16
ATOM     16  C   UNL     1      47.904   7.302  12.844  0.00  0.00    +0.000 C 
BRANCH  16  20
ATOM     17  C   UNL     1      45.028   4.254  11.803  0.00  0.00    +0.000 A 
ATOM     18  C   UNL     1      45.098   5.425  11.042  0.00  0.00    +0.000 A 
ATOM     19  C   UNL     1      46.021   6.420  11.375  0.00  0.00    +0.000 A 
ATOM     20  C   UNL     1      46.869   6.262  12.482  0.00  0.00    +0.000 A 
ATOM     21  C   UNL     1      46.795   5.081  13.234  0.00  0.00    +0.000 A 
ATOM     22  C   UNL     1      45.874   4.089  12.906  0.00  0.00    +0.000 A 
BRANCH  17  24
ATOM     23  N   UNL     1      43.648   2.380  12.520  0.00  0.00    +0.000 N 
ATOM     24  C   UNL     1      44.060   3.173  11.487  0.00  0.00    +0.000 C 
ATOM     25  O   UNL     1      43.614   3.020  10.356  0.00  0.00    +0.000 OA
ATOM     26  H   UNL     1      42.907   1.723  12.310  0.00  0.00    +0.000 HD
ATOM     27  H   UNL     1      43.787   2.639  13.486  0.00  0.00    +0.000 HD
ENDBRANCH  17  24
ENDBRANCH  16  20
ENDBRANCH  15  16
ENDBRANCH   1  15
TORSDOF 5
ENDMDL
MODEL 9
REMARK VINA RESULT:    -6.288      4.763      7.349
REMARK INTER + INTRA:          -8.945
REMARK INTER:                  -8.410
REMARK INTRA:                  -0.535
REMARK UNBOUND:                -0.818
REMARK  Name = 
REMARK  5 active torsions:
REMARK  status: ('A' for Active; 'I' for Inactive)
REMARK    1  A    between atoms: C_2  and  C_4
REMARK    2  A    between atoms: C_7  and  C_8
REMARK    3  A    between atoms: C_8  and  O_9
REMARK    4  A    between atoms: O_9  and  C_10
REMARK    5  A    between atoms: C_15  and  C_16
REMARK                            x       y       z     vdW  Elec       q    Type
REMARK                         _______ _______ _______ _____ _____    ______ ____
ROOT
ATOM      1  C   UNL     1      46.822   4.095  13.806  0.00  0.00    +0.000 A 
ATOM      2  C   UNL     1      45.848   3.812  12.854  0.00  0.00    +0.000 A 
ATOM      3  C   UNL     1      45.392   4.827  12.031  0.00  0.00    +0.000 A 
ATOM      4  F   UNL     1      44.446   4.561  11.121  0.00  0.00    +0.000 F 
ATOM      5  C   UNL     1      45.899   6.119  12.125  0.00  0.00    +0.000 A 
ATOM      6  C   UNL     1      46.916   6.427  13.038  0.00  0.00    +0.000 A 
ATOM      7  C   UNL     1      47.343   5.395  13.896  0.00  0.00    +0.000 A 
ENDROOT
BRANCH   6   8
ATOM      8  C   UNL     1      47.530   7.821  13.165  0.00  0.00    +0.000 C 
ATOM      9  C   UNL     1      48.401   8.281  11.980  0.00  0.00    +0.000 C 
ATOM     10  C   UNL     1      49.764   7.581  11.952  0.00  0.00    +0.000 C 
ATOM     11  N   UNL     1      50.504   7.746  13.199  0.00  0.00    +0.000 NA
ATOM     12  C   UNL     1      49.727   7.319  14.364  0.00  0.00    +0.000 C 
ATOM     13  C   UNL     1      48.365   8.009  14.451  0.00  0.00    +0.000 C 
ATOM     14  H   UNL     1      50.767   8.729  13.309  0.00  0.00    +0.000 HD
ENDBRANCH   6   8
BRANCH   1  15
ATOM     15  O   UNL     1      47.344   3.203  14.701  0.00  0.00    +0.000 OA
BRANCH  15  16
ATOM     16  C   UNL     1      47.348   3.611  16.070  0.00  0.00    +0.000 C 
BRANCH  16  20
ATOM     17  C   UNL     1      51.326   3.237  17.709  0.00  0.00    +0.000 A 
ATOM     18  C   UNL     1      50.657   2.096  17.254  0.00  0.00    +0.000 A 
ATOM     19  C   UNL     1      49.367   2.206  16.729  0.00  0.00    +0.000 A 
ATOM     20  C   UNL     1      48.727   3.453  16.668  0.00  0.00    +0.000 A 
ATOM     21  C   UNL     1      49.409   4.592  17.122  0.00  0.00    +0.000 A 
ATOM     22  C   UNL     1      50.694   4.484  17.649  0.00  0.00    +0.000 A 
BRANCH  17  24
ATOM     23  N   UNL     1      53.069   1.988  18.863  0.00  0.00    +0.000 N 
ATOM     24  C   UNL     1      52.695   3.165  18.279  0.00  0.00    +0.000 C 
ATOM     25  O   UNL     1      53.477   4.105  18.195  0.00  0.00    +0.000 OA
ATOM     26  H   UNL     1      54.039   1.918  19.146  0.00  0.00    +0.000 HD
ATOM     27  H   UNL     1      52.559   1.129  18.719  0.00  0.00    +0.000 HD
ENDBRANCH  17  24
ENDBRANCH  16  20
ENDBRANCH  15  16
ENDBRANCH   1  15
TORSDOF 5
ENDMDL
