MODEL 1
REMARK VINA RESULT:    -8.253      0.000      0.000
REMARK INTER + INTRA:         -11.506
REMARK INTER:                 -10.665
REMARK INTRA:                  -0.841
REMARK UNBOUND:                -0.841
REMARK  Name = 
REMARK  5 active torsions:
REMARK  status: ('A' for Active; 'I' for Inactive)
REMARK    1  A    between atoms: C_2  and  C_4
REMARK    2  A    between atoms: C_9  and  O_10
REMARK    3  A    between atoms: O_10  and  C_11
REMARK    4  A    between atoms: C_11  and  C_12
REMARK    5  A    between atoms: C_17  and  C_18
REMARK                            x       y       z     vdW  Elec       q    Type
REMARK                         _______ _______ _______ _____ _____    ______ ____
ROOT
ATOM      1  C   UNL     1      45.265   6.746  11.253  0.00  0.00    +0.000 C 
ENDROOT
BRANCH   1   2
ATOM      2  C   UNL     1      44.878   5.361  10.801  0.00  0.00    +0.000 A 
ATOM      3  C   UNL     1      44.026   4.567  11.573  0.00  0.00    +0.000 A 
ATOM      4  C   UNL     1      43.681   3.293  11.135  0.00  0.00    +0.000 A 
ATOM      5  F   UNL     1      42.848   2.547  11.872  0.00  0.00    +0.000 F 
ATOM      6  C   UNL     1      44.182   2.780   9.942  0.00  0.00    +0.000 A 
ATOM      7  C   UNL     1      45.053   3.547   9.160  0.00  0.00    +0.000 A 
ATOM      8  C   UNL     1      45.388   4.841   9.601  0.00  0.00    +0.000 A 
BRANCH   7   9
ATOM      9  C   UNL     1      45.607   2.996   7.857  0.00  0.00    +0.000 C 
ATOM     10  C   UNL     1      46.402   1.698   8.088  0.00  0.00    +0.000 C 
ATOM     11  C   UNL     1      47.003   1.175   6.786  0.00  0.00    +0.000 C 
ATOM     12  C   UNL     1      47.789   2.274   6.080  0.00  0.00    +0.000 C 
ATOM     13  C   UNL     1      46.947   3.537   5.911  0.00  0.00    +0.000 C 
ATOM     14  N   UNL     1      46.442   4.012   7.197  0.00  0.00    +0.000 NA
ATOM     15  H   UNL     1      45.880   4.850   7.053  0.00  0.00    +0.000 HD
ENDBRANCH   7   9
ENDBRANCH   1   2
BRANCH   1  16
ATOM     16  O   UNL     1      46.685   6.797  11.392  0.00  0.00    +0.000 OA
BRANCH  16  22
ATOM     17  C   UNL     1      47.585   5.285  14.671  0.00  0.00    +0.000 A 
ATOM     18  C   UNL     1      48.343   6.333  15.197  0.00  0.00    +0.000 A 
ATOM     19  C   UNL     1      48.516   7.484  14.438  0.00  0.00    +0.000 A 
ATOM     20  F   UNL     1      49.252   8.488  14.934  0.00  0.00    +0.000 F 
ATOM     21  C   UNL     1      47.949   7.610  13.174  0.00  0.00    +0.000 A 
ATOM     22  C   UNL     1      47.191   6.566  12.642  0.00  0.00    +0.000 A 
ATOM     23  C   UNL     1      47.015   5.401  13.393  0.00  0.00    +0.000 A 
BRANCH  17  25
ATOM     24  N   UNL     1      46.863   4.089  16.666  0.00  0.00    +0.000 N 
ATOM     25  C   UNL     1      47.392   4.015  15.410  0.00  0.00    +0.000 C 
ATOM     26  O   UNL     1      47.667   2.934  14.902  0.00  0.00    +0.000 OA
ATOM     27  H   UNL     1      46.657   3.206  17.120  0.00  0.00    +0.000 HD
ATOM     28  H   UNL     1      46.410   4.917  17.026  0.00  0.00    +0.000 HD
ENDBRANCH  17  25
ENDBRANCH  16  22
ENDBRANCH   1  16
TORSDOF 5
ENDMDL
MODEL 2
REMARK VINA RESULT:    -7.970      2.178      7.722
REMARK INTER + INTRA:         -11.140
REMARK INTER:                 -10.221
REMARK INTRA:                  -0.920
REMARK UNBOUND:                -0.841
REMARK  Name = 
REMARK  5 active torsions:
REMARK  status: ('A' for Active; 'I' for Inactive)
REMARK    1  A    between atoms: C_2  and  C_4
REMARK    2  A    between atoms: C_9  and  O_10
REMARK    3  A    between atoms: O_10  and  C_11
REMARK    4  A    between atoms: C_11  and  C_12
REMARK    5  A    between atoms: C_17  and  C_18
REMARK                            x       y       z     vdW  Elec       q    Type
REMARK                         _______ _______ _______ _____ _____    ______ ____
ROOT
ATOM      1  C   UNL     1      44.874   5.628  10.914  0.00  0.00    +0.000 C 
ENDROOT
BRANCH   1   2
ATOM      2  C   UNL     1      46.033   5.923  11.830  0.00  0.00    +0.000 A 
ATOM      3  C   UNL     1      47.010   6.857  11.473  0.00  0.00    +0.000 A 
ATOM      4  C   UNL     1      48.069   7.115  12.335  0.00  0.00    +0.000 A 
ATOM      5  F   UNL     1      48.990   8.027  11.993  0.00  0.00    +0.000 F 
ATOM      6  C   UNL     1      48.191   6.447  13.550  0.00  0.00    +0.000 A 
ATOM      7  C   UNL     1      47.238   5.492  13.923  0.00  0.00    +0.000 A 
ATOM      8  C   UNL     1      46.159   5.244  13.052  0.00  0.00    +0.000 A 
BRANCH   7   9
ATOM      9  C   UNL     1      47.361   4.755  15.245  0.00  0.00    +0.000 C 
ATOM     10  C   UNL     1      48.321   5.480  16.206  0.00  0.00    +0.000 C 
ATOM     11  C   UNL     1      48.485   4.709  17.514  0.00  0.00    +0.000 C 
ATOM     12  C   UNL     1      48.853   3.256  17.237  0.00  0.00    +0.000 C 
ATOM     13  C   UNL     1      47.875   2.613  16.257  0.00  0.00    +0.000 C 
ATOM     14  N   UNL     1      47.799   3.371  15.010  0.00  0.00    +0.000 NA
ATOM     15  H   UNL     1      47.136   2.922  14.379  0.00  0.00    +0.000 HD
ENDBRANCH   7   9
ENDBRANCH   1   2
BRANCH   1  16
ATOM     16  O   UNL     1      45.356   5.589   9.570  0.00  0.00    +0.000 OA
BRANCH  16  22
ATOM     17  C   UNL     1      46.468   2.725   7.471  0.00  0.00    +0.000 A 
ATOM     18  C   UNL     1      45.675   1.721   8.031  0.00  0.00    +0.000 A 
ATOM     19  C   UNL     1      44.815   2.046   9.072  0.00  0.00    +0.000 A 
ATOM     20  F   UNL     1      44.060   1.083   9.619  0.00  0.00    +0.000 F 
ATOM     21  C   UNL     1      44.729   3.344   9.562  0.00  0.00    +0.000 A 
ATOM     22  C   UNL     1      45.520   4.353   9.009  0.00  0.00    +0.000 A 
ATOM     23  C   UNL     1      46.393   4.037   7.965  0.00  0.00    +0.000 A 
BRANCH  17  25
ATOM     24  N   UNL     1      47.457   3.295   5.320  0.00  0.00    +0.000 N 
ATOM     25  C   UNL     1      47.435   2.441   6.384  0.00  0.00    +0.000 C 
ATOM     26  O   UNL     1      48.208   1.493   6.451  0.00  0.00    +0.000 OA
ATOM     27  H   UNL     1      48.183   3.136   4.631  0.00  0.00    +0.000 HD
ATOM     28  H   UNL     1      47.015   4.203   5.332  0.00  0.00    +0.000 HD
ENDBRANCH  17  25
ENDBRANCH  16  22
ENDBRANCH   1  16
TORSDOF 5
ENDMDL
MODEL 3
REMARK VINA RESULT:    -7.861      1.672      2.111
REMARK INTER + INTRA:         -11.000
REMARK INTER:                 -10.247
REMARK INTRA:                  -0.754
REMARK UNBOUND:                -0.841
REMARK  Name = 
REMARK  5 active torsions:
REMARK  status: ('A' for Active; 'I' for Inactive)
REMARK    1  A    between atoms: C_2  and  C_4
REMARK    2  A    between atoms: C_9  and  O_10
REMARK    3  A    between atoms: O_10  and  C_11
REMARK    4  A    between atoms: C_11  and  C_12
REMARK    5  A    between atoms: C_17  and  C_18
REMARK                            x       y       z     vdW  Elec       q    Type
REMARK                         _______ _______ _______ _____ _____    ______ ____
ROOT
ATOM      1  C   UNL     1      46.365   6.524  12.954  0.00  0.00    +0.000 C 
ENDROOT
BRANCH   1   2
ATOM      2  C   UNL     1      45.295   5.921  12.081  0.00  0.00    +0.000 A 
ATOM      3  C   UNL     1      43.941   6.095  12.382  0.00  0.00    +0.000 A 
ATOM      4  C   UNL     1      42.972   5.531  11.560  0.00  0.00    +0.000 A 
ATOM      5  F   UNL     1      41.677   5.721  11.845  0.00  0.00    +0.000 F 
ATOM      6  C   UNL     1      43.321   4.776  10.445  0.00  0.00    +0.000 A 
ATOM      7  C   UNL     1      44.670   4.569  10.133  0.00  0.00    +0.000 A 
ATOM      8  C   UNL     1      45.648   5.154  10.960  0.00  0.00    +0.000 A 
BRANCH   7   9
ATOM      9  C   UNL     1      45.063   3.745   8.919  0.00  0.00    +0.000 C 
ATOM     10  C   UNL     1      45.539   2.338   9.324  0.00  0.00    +0.000 C 
ATOM     11  C   UNL     1      45.984   1.530   8.107  0.00  0.00    +0.000 C 
ATOM     12  C   UNL     1      46.993   2.320   7.280  0.00  0.00    +0.000 C 
ATOM     13  C   UNL     1      46.463   3.711   6.941  0.00  0.00    +0.000 C 
ATOM     14  N   UNL     1      46.100   4.448   8.149  0.00  0.00    +0.000 NA
ATOM     15  H   UNL     1      45.746   5.369   7.891  0.00  0.00    +0.000 HD
ENDBRANCH   7   9
ENDBRANCH   1   2
BRANCH   1  16
ATOM     16  O   UNL     1      47.288   5.496  13.317  0.00  0.00    +0.000 OA
BRANCH  16  22
ATOM     17  C   UNL     1      47.807   4.505  16.866  0.00  0.00    +0.000 A 
ATOM     18  C   UNL     1      48.596   5.580  17.282  0.00  0.00    +0.000 A 
ATOM     19  C   UNL     1      48.914   6.574  16.366  0.00  0.00    +0.000 A 
ATOM     20  F   UNL     1      49.680   7.601  16.757  0.00  0.00    +0.000 F 
ATOM     21  C   UNL     1      48.462   6.520  15.051  0.00  0.00    +0.000 A 
ATOM     22  C   UNL     1      47.674   5.448  14.629  0.00  0.00    +0.000 A 
ATOM     23  C   UNL     1      47.352   4.439  15.539  0.00  0.00    +0.000 A 
BRANCH  17  25
ATOM     24  N   UNL     1      48.271   3.187  18.861  0.00  0.00    +0.000 N 
ATOM     25  C   UNL     1      47.463   3.390  17.780  0.00  0.00    +0.000 C 
ATOM     26  O   UNL     1      46.471   2.695  17.592  0.00  0.00    +0.000 OA
ATOM     27  H   UNL     1      47.971   2.479  19.521  0.00  0.00    +0.000 HD
ATOM     28  H   UNL     1      48.947   3.867  19.180  0.00  0.00    +0.000 HD
ENDBRANCH  17  25
ENDBRANCH  16  22
ENDBRANCH   1  16
TORSDOF 5
ENDMDL
MODEL 4
REMARK VINA RESULT:    -7.604      2.627      3.576
REMARK INTER + INTRA:         -10.668
REMARK INTER:                  -9.729
REMARK INTRA:                  -0.939
REMARK UNBOUND:                -0.841
REMARK  Name = 
REMARK  5 active torsions:
REMARK  status: ('A' for Active; 'I' for Inactive)
REMARK    1  A    between atoms: C_2  and  C_4
REMARK    2  A    between atoms: C_9  and  O_10
REMARK    3  A    between atoms: O_10  and  C_11
REMARK    4  A    between atoms: C_11  and  C_12
REMARK    5  A    between atoms: C_17  and  C_18
REMARK                            x       y       z     vdW  Elec       q    Type
REMARK                         _______ _______ _______ _____ _____    ______ ____
ROOT
ATOM      1  C   UNL     1      44.106   6.667  11.387  0.00  0.00    +0.000 C 
ENDROOT
BRANCH   1   2
ATOM      2  C   UNL     1      44.133   5.203  11.032  0.00  0.00    +0.000 A 
ATOM      3  C   UNL     1      43.599   4.245  11.899  0.00  0.00    +0.000 A 
ATOM      4  C   UNL     1      43.633   2.900  11.549  0.00  0.00    +0.000 A 
ATOM      5  F   UNL     1      43.101   1.991  12.377  0.00  0.00    +0.000 F 
ATOM      6  C   UNL     1      44.206   2.479  10.352  0.00  0.00    +0.000 A 
ATOM      7  C   UNL     1      44.765   3.416   9.475  0.00  0.00    +0.000 A 
ATOM      8  C   UNL     1      44.716   4.778   9.828  0.00  0.00    +0.000 A 
BRANCH   7   9
ATOM      9  C   UNL     1      45.394   2.968   8.167  0.00  0.00    +0.000 C 
ATOM     10  C   UNL     1      46.180   1.656   8.341  0.00  0.00    +0.000 C 
ATOM     11  C   UNL     1      46.856   1.236   7.038  0.00  0.00    +0.000 C 
ATOM     12  C   UNL     1      47.676   2.387   6.466  0.00  0.00    +0.000 C 
ATOM     13  C   UNL     1      46.840   3.659   6.348  0.00  0.00    +0.000 C 
ATOM     14  N   UNL     1      46.260   4.032   7.637  0.00  0.00    +0.000 NA
ATOM     15  H   UNL     1      45.704   4.880   7.526  0.00  0.00    +0.000 HD
ENDBRANCH   7   9
ENDBRANCH   1   2
BRANCH   1  16
ATOM     16  O   UNL     1      44.934   6.871  12.533  0.00  0.00    +0.000 OA
BRANCH  16  22
ATOM     17  C   UNL     1      47.356   9.643  11.989  0.00  0.00    +0.000 A 
ATOM     18  C   UNL     1      48.541   8.905  11.994  0.00  0.00    +0.000 A 
ATOM     19  C   UNL     1      48.475   7.530  12.175  0.00  0.00    +0.000 A 
ATOM     20  F   UNL     1      49.610   6.819  12.191  0.00  0.00    +0.000 F 
ATOM     21  C   UNL     1      47.258   6.880  12.351  0.00  0.00    +0.000 A 
ATOM     22  C   UNL     1      46.069   7.612  12.349  0.00  0.00    +0.000 A 
ATOM     23  C   UNL     1      46.123   8.996  12.173  0.00  0.00    +0.000 A 
BRANCH  17  25
ATOM     24  N   UNL     1      46.279  11.803  12.324  0.00  0.00    +0.000 N 
ATOM     25  C   UNL     1      47.356  11.118  11.839  0.00  0.00    +0.000 C 
ATOM     26  O   UNL     1      48.301  11.706  11.326  0.00  0.00    +0.000 OA
ATOM     27  H   UNL     1      46.337  12.814  12.292  0.00  0.00    +0.000 HD
ATOM     28  H   UNL     1      45.602  11.393  12.952  0.00  0.00    +0.000 HD
ENDBRANCH  17  25
ENDBRANCH  16  22
ENDBRANCH   1  16
TORSDOF 5
ENDMDL
MODEL 5
REMARK VINA RESULT:    -7.541      2.631      3.298
REMARK INTER + INTRA:         -10.587
REMARK INTER:                  -9.801
REMARK INTRA:                  -0.786
REMARK UNBOUND:                -0.841
REMARK  Name = 
REMARK  5 active torsions:
REMARK  status: ('A' for Active; 'I' for Inactive)
REMARK    1  A    between atoms: C_2  and  C_4
REMARK    2  A    between atoms: C_9  and  O_10
REMARK    3  A    between atoms: O_10  and  C_11
REMARK    4  A    between atoms: C_11  and  C_12
REMARK    5  A    between atoms: C_17  and  C_18
REMARK                            x       y       z     vdW  Elec       q    Type
REMARK                         _______ _______ _______ _____ _____    ______ ____
ROOT
ATOM      1  C   UNL     1      45.249   6.723  11.319  0.00  0.00    +0.000 C 
ENDROOT
BRANCH   1   2
ATOM      2  C   UNL     1      44.891   5.327  10.878  0.00  0.00    +0.000 A 
ATOM      3  C   UNL     1      44.091   4.505  11.678  0.00  0.00    +0.000 A 
ATOM      4  C   UNL     1      43.773   3.221  11.249  0.00  0.00    +0.000 A 
ATOM      5  F   UNL     1      42.989   2.448  12.013  0.00  0.00    +0.000 F 
ATOM      6  C   UNL     1      44.250   2.725  10.039  0.00  0.00    +0.000 A 
ATOM      7  C   UNL     1      45.069   3.520   9.230  0.00  0.00    +0.000 A 
ATOM      8  C   UNL     1      45.378   4.824   9.661  0.00  0.00    +0.000 A 
BRANCH   7   9
ATOM      9  C   UNL     1      45.597   2.988   7.908  0.00  0.00    +0.000 C 
ATOM     10  C   UNL     1      46.404   1.692   8.106  0.00  0.00    +0.000 C 
ATOM     11  C   UNL     1      46.979   1.189   6.784  0.00  0.00    +0.000 C 
ATOM     12  C   UNL     1      47.741   2.301   6.073  0.00  0.00    +0.000 C 
ATOM     13  C   UNL     1      46.888   3.560   5.939  0.00  0.00    +0.000 C 
ATOM     14  N   UNL     1      46.410   4.016   7.241  0.00  0.00    +0.000 NA
ATOM     15  H   UNL     1      45.840   4.853   7.120  0.00  0.00    +0.000 HD
ENDBRANCH   7   9
ENDBRANCH   1   2
BRANCH   1  16
ATOM     16  O   UNL     1      46.388   6.650  12.178  0.00  0.00    +0.000 OA
BRANCH  16  22
ATOM     17  C   UNL     1      49.527   8.607  11.778  0.00  0.00    +0.000 A 
ATOM     18  C   UNL     1      48.997   9.895  11.869  0.00  0.00    +0.000 A 
ATOM     19  C   UNL     1      47.630  10.047  12.058  0.00  0.00    +0.000 A 
ATOM     20  F   UNL     1      47.115  11.282  12.135  0.00  0.00    +0.000 F 
ATOM     21  C   UNL     1      46.785   8.946  12.159  0.00  0.00    +0.000 A 
ATOM     22  C   UNL     1      47.308   7.656  12.068  0.00  0.00    +0.000 A 
ATOM     23  C   UNL     1      48.681   7.490  11.872  0.00  0.00    +0.000 A 
BRANCH  17  25
ATOM     24  N   UNL     1      51.326   7.219  10.900  0.00  0.00    +0.000 N 
ATOM     25  C   UNL     1      50.971   8.372  11.538  0.00  0.00    +0.000 C 
ATOM     26  O   UNL     1      51.815   9.196  11.872  0.00  0.00    +0.000 OA
ATOM     27  H   UNL     1      52.307   7.117  10.667  0.00  0.00    +0.000 HD
ATOM     28  H   UNL     1      50.666   6.636  10.406  0.00  0.00    +0.000 HD
ENDBRANCH  17  25
ENDBRANCH  16  22
ENDBRANCH   1  16
TORSDOF 5
ENDMDL
MODEL 6
REMARK VINA RESULT:    -7.255      3.765      5.465
REMARK INTER + INTRA:         -10.217
REMARK INTER:                  -9.524
REMARK INTRA:                  -0.694
REMARK UNBOUND:                -0.841
REMARK  Name = 
REMARK  5 active torsions:
REMARK  status: ('A' for Active; 'I' for Inactive)
REMARK    1  A    between atoms: C_2  and  C_4
REMARK    2  A    between atoms: C_9  and  O_10
REMARK    3  A    between atoms: O_10  and  C_11
REMARK    4  A    between atoms: C_11  and  C_12
REMARK    5  A    between atoms: C_17  and  C_18
REMARK                            x       y       z     vdW  Elec       q    Type
REMARK                         _______ _______ _______ _____ _____    ______ ____
ROOT
ATOM      1  C   UNL     1      47.010   3.932  14.055  0.00  0.00    +0.000 C 
ENDROOT
BRANCH   1   2
ATOM      2  C   UNL     1      45.965   4.427  13.088  0.00  0.00    +0.000 A 
ATOM      3  C   UNL     1      45.031   3.549  12.530  0.00  0.00    +0.000 A 
ATOM      4  C   UNL     1      44.075   4.029  11.642  0.00  0.00    +0.000 A 
ATOM      5  F   UNL     1      43.171   3.184  11.129  0.00  0.00    +0.000 F 
ATOM      6  C   UNL     1      44.036   5.372  11.279  0.00  0.00    +0.000 A 
ATOM      7  C   UNL     1      44.973   6.268  11.807  0.00  0.00    +0.000 A 
ATOM      8  C   UNL     1      45.931   5.780  12.717  0.00  0.00    +0.000 A 
BRANCH   7   9
ATOM      9  C   UNL     1      44.942   7.736  11.416  0.00  0.00    +0.000 C 
ATOM     10  C   UNL     1      45.519   8.627  12.531  0.00  0.00    +0.000 C 
ATOM     11  C   UNL     1      45.436  10.105  12.159  0.00  0.00    +0.000 C 
ATOM     12  C   UNL     1      44.020  10.472  11.733  0.00  0.00    +0.000 C 
ATOM     13  C   UNL     1      43.506   9.530  10.647  0.00  0.00    +0.000 C 
ATOM     14  N   UNL     1      43.567   8.137  11.082  0.00  0.00    +0.000 NA
ATOM     15  H   UNL     1      43.223   7.533  10.336  0.00  0.00    +0.000 HD
ENDBRANCH   7   9
ENDBRANCH   1   2
BRANCH   1  16
ATOM     16  O   UNL     1      46.521   4.114  15.384  0.00  0.00    +0.000 OA
BRANCH  16  22
ATOM     17  C   UNL     1      49.415   3.103  17.493  0.00  0.00    +0.000 A 
ATOM     18  C   UNL     1      49.145   3.878  18.623  0.00  0.00    +0.000 A 
ATOM     19  C   UNL     1      48.021   4.693  18.626  0.00  0.00    +0.000 A 
ATOM     20  F   UNL     1      47.764   5.446  19.704  0.00  0.00    +0.000 F 
ATOM     21  C   UNL     1      47.163   4.749  17.533  0.00  0.00    +0.000 A 
ATOM     22  C   UNL     1      47.427   3.978  16.399  0.00  0.00    +0.000 A 
ATOM     23  C   UNL     1      48.558   3.159  16.382  0.00  0.00    +0.000 A 
BRANCH  17  25
ATOM     24  N   UNL     1      51.685   2.565  18.195  0.00  0.00    +0.000 N 
ATOM     25  C   UNL     1      50.617   2.241  17.407  0.00  0.00    +0.000 C 
ATOM     26  O   UNL     1      50.644   1.255  16.680  0.00  0.00    +0.000 OA
ATOM     27  H   UNL     1      52.462   1.915  18.188  0.00  0.00    +0.000 HD
ATOM     28  H   UNL     1      51.624   3.213  18.966  0.00  0.00    +0.000 HD
ENDBRANCH  17  25
ENDBRANCH  16  22
ENDBRANCH   1  16
TORSDOF 5
ENDMDL
MODEL 7
REMARK VINA RESULT:    -7.217      2.302      2.766
REMARK INTER + INTRA:         -10.167
REMARK INTER:                  -9.318
REMARK INTRA:                  -0.849
REMARK UNBOUND:                -0.841
REMARK  Name = 
REMARK  5 active torsions:
REMARK  status: ('A' for Active; 'I' for Inactive)
REMARK    1  A    between atoms: C_2  and  C_4
REMARK    2  A    between atoms: C_9  and  O_10
REMARK    3  A    between atoms: O_10  and  C_11
REMARK    4  A    between atoms: C_11  and  C_12
REMARK    5  A    between atoms: C_17  and  C_18
REMARK                            x       y       z     vdW  Elec       q    Type
REMARK                         _______ _______ _______ _____ _____    ______ ____
ROOT
ATOM      1  C   UNL     1      46.510   7.404  12.014  0.00  0.00    +0.000 C 
ENDROOT
BRANCH   1   2
ATOM      2  C   UNL     1      45.471   6.445  11.492  0.00  0.00    +0.000 A 
ATOM      3  C   UNL     1      44.203   6.373  12.078  0.00  0.00    +0.000 A 
ATOM      4  C   UNL     1      43.260   5.483  11.578  0.00  0.00    +0.000 A 
ATOM      5  F   UNL     1      42.041   5.435  12.133  0.00  0.00    +0.000 F 
ATOM      6  C   UNL     1      43.556   4.641  10.510  0.00  0.00    +0.000 A 
ATOM      7  C   UNL     1      44.824   4.679   9.918  0.00  0.00    +0.000 A 
ATOM      8  C   UNL     1      45.772   5.592  10.419  0.00  0.00    +0.000 A 
BRANCH   7   9
ATOM      9  C   UNL     1      45.159   3.764   8.753  0.00  0.00    +0.000 C 
ATOM     10  C   UNL     1      45.563   2.360   9.238  0.00  0.00    +0.000 C 
ATOM     11  C   UNL     1      45.951   1.459   8.068  0.00  0.00    +0.000 C 
ATOM     12  C   UNL     1      46.991   2.142   7.187  0.00  0.00    +0.000 C 
ATOM     13  C   UNL     1      46.534   3.537   6.769  0.00  0.00    +0.000 C 
ATOM     14  N   UNL     1      46.224   4.364   7.934  0.00  0.00    +0.000 NA
ATOM     15  H   UNL     1      45.916   5.285   7.624  0.00  0.00    +0.000 HD
ENDBRANCH   7   9
ENDBRANCH   1   2
BRANCH   1  16
ATOM     16  O   UNL     1      47.701   6.670  12.303  0.00  0.00    +0.000 OA
BRANCH  16  22
ATOM     17  C   UNL     1      48.866   6.751  15.836  0.00  0.00    +0.000 A 
ATOM     18  C   UNL     1      48.293   5.559  16.284  0.00  0.00    +0.000 A 
ATOM     19  C   UNL     1      47.552   4.793  15.394  0.00  0.00    +0.000 A 
ATOM     20  F   UNL     1      46.991   3.655  15.823  0.00  0.00    +0.000 F 
ATOM     21  C   UNL     1      47.373   5.188  14.072  0.00  0.00    +0.000 A 
ATOM     22  C   UNL     1      47.942   6.379  13.617  0.00  0.00    +0.000 A 
ATOM     23  C   UNL     1      48.685   7.161  14.505  0.00  0.00    +0.000 A 
BRANCH  17  25
ATOM     24  N   UNL     1      50.970   7.789  16.492  0.00  0.00    +0.000 N 
ATOM     25  C   UNL     1      49.636   7.636  16.742  0.00  0.00    +0.000 C 
ATOM     26  O   UNL     1      49.092   8.233  17.663  0.00  0.00    +0.000 OA
ATOM     27  H   UNL     1      51.460   8.465  17.066  0.00  0.00    +0.000 HD
ATOM     28  H   UNL     1      51.403   7.511  15.623  0.00  0.00    +0.000 HD
ENDBRANCH  17  25
ENDBRANCH  16  22
ENDBRANCH   1  16
TORSDOF 5
ENDMDL
MODEL 8
REMARK VINA RESULT:    -7.200      2.701      4.084
REMARK INTER + INTRA:         -10.146
REMARK INTER:                  -9.334
REMARK INTRA:                  -0.812
REMARK UNBOUND:                -0.841
REMARK  Name = 
REMARK  5 active torsions:
REMARK  status: ('A' for Active; 'I' for Inactive)
REMARK    1  A    between atoms: C_2  and  C_4
REMARK    2  A    between atoms: C_9  and  O_10
REMARK    3  A    between atoms: O_10  and  C_11
REMARK    4  A    between atoms: C_11  and  C_12
REMARK    5  A    between atoms: C_17  and  C_18
REMARK                            x       y       z     vdW  Elec       q    Type
REMARK                         _______ _______ _______ _____ _____    ______ ____
ROOT
ATOM      1  C   UNL     1      48.576   6.863  13.495  0.00  0.00    +0.000 C 
ENDROOT
BRANCH   1   2
ATOM      2  C   UNL     1      47.237   7.116  12.850  0.00  0.00    +0.000 A 
ATOM      3  C   UNL     1      46.577   8.336  13.024  0.00  0.00    +0.000 A 
ATOM      4  C   UNL     1      45.344   8.547  12.417  0.00  0.00    +0.000 A 
ATOM      5  F   UNL     1      44.728   9.727  12.572  0.00  0.00    +0.000 F 
ATOM      6  C   UNL     1      44.738   7.558  11.648  0.00  0.00    +0.000 A 
ATOM      7  C   UNL     1      45.369   6.320  11.475  0.00  0.00    +0.000 A 
ATOM      8  C   UNL     1      46.624   6.116  12.080  0.00  0.00    +0.000 A 
BRANCH   7   9
ATOM      9  C   UNL     1      44.717   5.232  10.639  0.00  0.00    +0.000 C 
ATOM     10  C   UNL     1      44.693   3.887  11.387  0.00  0.00    +0.000 C 
ATOM     11  C   UNL     1      44.086   2.783  10.525  0.00  0.00    +0.000 C 
ATOM     12  C   UNL     1      44.768   2.731   9.162  0.00  0.00    +0.000 C 
ATOM     13  C   UNL     1      44.777   4.105   8.495  0.00  0.00    +0.000 C 
ATOM     14  N   UNL     1      45.413   5.104   9.350  0.00  0.00    +0.000 NA
ATOM     15  H   UNL     1      45.399   6.010   8.882  0.00  0.00    +0.000 HD
ENDBRANCH   7   9
ENDBRANCH   1   2
BRANCH   1  16
ATOM     16  O   UNL     1      48.510   7.286  14.857  0.00  0.00    +0.000 OA
BRANCH  16  22
ATOM     17  C   UNL     1      48.650   4.500  17.319  0.00  0.00    +0.000 A 
ATOM     18  C   UNL     1      49.972   4.646  17.744  0.00  0.00    +0.000 A 
ATOM     19  C   UNL     1      50.745   5.659  17.193  0.00  0.00    +0.000 A 
ATOM     20  F   UNL     1      52.018   5.797  17.590  0.00  0.00    +0.000 F 
ATOM     21  C   UNL     1      50.230   6.525  16.234  0.00  0.00    +0.000 A 
ATOM     22  C   UNL     1      48.910   6.383  15.804  0.00  0.00    +0.000 A 
ATOM     23  C   UNL     1      48.123   5.365  16.346  0.00  0.00    +0.000 A 
BRANCH  17  25
ATOM     24  N   UNL     1      48.189   2.760  18.962  0.00  0.00    +0.000 N 
ATOM     25  C   UNL     1      47.779   3.417  17.837  0.00  0.00    +0.000 C 
ATOM     26  O   UNL     1      46.716   3.140  17.294  0.00  0.00    +0.000 OA
ATOM     27  H   UNL     1      47.540   2.085  19.350  0.00  0.00    +0.000 HD
ATOM     28  H   UNL     1      48.922   3.105  19.565  0.00  0.00    +0.000 HD
ENDBRANCH  17  25
ENDBRANCH  16  22
ENDBRANCH   1  16
TORSDOF 5
ENDMDL
MODEL 9
REMARK VINA RESULT:    -6.970      2.935      4.598
REMARK INTER + INTRA:          -9.848
REMARK INTER:                  -9.014
REMARK INTRA:                  -0.834
REMARK UNBOUND:                -0.841
REMARK  Name = 
REMARK  5 active torsions:
REMARK  status: ('A' for Active; 'I' for Inactive)
REMARK    1  A    between atoms: C_2  and  C_4
REMARK    2  A    between atoms: C_9  and  O_10
REMARK    3  A    between atoms: O_10  and  C_11
REMARK    4  A    between atoms: C_11  and  C_12
REMARK    5  A    between atoms: C_17  and  C_18
REMARK                            x       y       z     vdW  Elec       q    Type
REMARK                         _______ _______ _______ _____ _____    ______ ____
ROOT
ATOM      1  C   UNL     1      48.085   6.780  14.086  0.00  0.00    +0.000 C 
ENDROOT
BRANCH   1   2
ATOM      2  C   UNL     1      46.939   7.074  13.153  0.00  0.00    +0.000 A 
ATOM      3  C   UNL     1      46.365   8.348  13.101  0.00  0.00    +0.000 A 
ATOM      4  C   UNL     1      45.310   8.596  12.230  0.00  0.00    +0.000 A 
ATOM      5  F   UNL     1      44.780   9.826  12.173  0.00  0.00    +0.000 F 
ATOM      6  C   UNL     1      44.796   7.593  11.413  0.00  0.00    +0.000 A 
ATOM      7  C   UNL     1      45.340   6.304  11.461  0.00  0.00    +0.000 A 
ATOM      8  C   UNL     1      46.417   6.061  12.334  0.00  0.00    +0.000 A 
BRANCH   7   9
ATOM      9  C   UNL     1      44.786   5.201  10.575  0.00  0.00    +0.000 C 
ATOM     10  C   UNL     1      44.867   3.829  11.269  0.00  0.00    +0.000 C 
ATOM     11  C   UNL     1      44.361   2.715  10.357  0.00  0.00    +0.000 C 
ATOM     12  C   UNL     1      45.055   2.775   9.001  0.00  0.00    +0.000 C 
ATOM     13  C   UNL     1      44.956   4.170   8.388  0.00  0.00    +0.000 C 
ATOM     14  N   UNL     1      45.500   5.183   9.290  0.00  0.00    +0.000 NA
ATOM     15  H   UNL     1      45.416   6.103   8.857  0.00  0.00    +0.000 HD
ENDBRANCH   7   9
ENDBRANCH   1   2
BRANCH   1  16
ATOM     16  O   UNL     1      48.044   5.396  14.433  0.00  0.00    +0.000 OA
BRANCH  16  22
ATOM     17  C   UNL     1      48.706   5.425  18.094  0.00  0.00    +0.000 A 
ATOM     18  C   UNL     1      48.043   4.249  18.448  0.00  0.00    +0.000 A 
ATOM     19  C   UNL     1      47.413   3.509  17.456  0.00  0.00    +0.000 A 
ATOM     20  F   UNL     1      46.767   2.385  17.792  0.00  0.00    +0.000 F 
ATOM     21  C   UNL     1      47.432   3.915  16.126  0.00  0.00    +0.000 A 
ATOM     22  C   UNL     1      48.092   5.091  15.766  0.00  0.00    +0.000 A 
ATOM     23  C   UNL     1      48.725   5.847  16.755  0.00  0.00    +0.000 A 
BRANCH  17  25
ATOM     24  N   UNL     1      49.231   7.636  18.974  0.00  0.00    +0.000 N 
ATOM     25  C   UNL     1      49.367   6.284  19.107  0.00  0.00    +0.000 C 
ATOM     26  O   UNL     1      49.986   5.799  20.047  0.00  0.00    +0.000 OA
ATOM     27  H   UNL     1      49.614   8.201  19.723  0.00  0.00    +0.000 HD
ATOM     28  H   UNL     1      48.548   8.064  18.366  0.00  0.00    +0.000 HD
ENDBRANCH  17  25
ENDBRANCH  16  22
ENDBRANCH   1  16
TORSDOF 5
ENDMDL
