MODEL 1
REMARK VINA RESULT:    -7.471      0.000      0.000
REMARK INTER + INTRA:          -9.886
REMARK INTER:                  -9.218
REMARK INTRA:                  -0.667
REMARK UNBOUND:                -0.667
REMARK  Name = 
REMARK  5 active torsions:
REMARK  status: ('A' for Active; 'I' for Inactive)
REMARK    1  A    between atoms: C_1  and  O_2
REMARK    2  A    between atoms: O_2  and  C_3
REMARK    3  A    between atoms: C_6  and  C_7
REMARK    4  A    between atoms: C_7  and  N_8
REMARK    5  A    between atoms: C_9  and  C_11
REMARK                            x       y       z     vdW  Elec       q    Type
REMARK                         _______ _______ _______ _____ _____    ______ ____
ROOT
ATOM      1  N   UNL     1      44.644   5.286  10.515  0.00  0.00    +0.000 N 
ATOM      2  C   UNL     1      43.917   6.245  11.174  0.00  0.00    +0.000 C 
ATOM      3  O   UNL     1      42.708   6.131  11.360  0.00  0.00    +0.000 OA
ATOM      4  H   UNL     1      45.573   5.518  10.172  0.00  0.00    +0.000 HD
ENDROOT
BRANCH   2   5
ATOM      5  C   UNL     1      44.665   7.386  11.708  0.00  0.00    +0.000 A 
ATOM      6  C   UNL     1      44.323   8.672  11.309  0.00  0.00    +0.000 A 
ATOM      7  S   UNL     1      45.267   9.889  12.039  0.00  0.00    +0.000 S 
ATOM      8  C   UNL     1      46.198   8.738  12.877  0.00  0.00    +0.000 A 
ATOM      9  N   UNL     1      47.228   9.124  13.676  0.00  0.00    +0.000 NA
ATOM     10  C   UNL     1      47.873   8.148  14.222  0.00  0.00    +0.000 A 
ATOM     11  N   UNL     1      47.575   6.820  14.049  0.00  0.00    +0.000 N 
ATOM     12  C   UNL     1      46.516   6.385  13.285  0.00  0.00    +0.000 A 
ATOM     13  O   UNL     1      46.231   5.196  13.201  0.00  0.00    +0.000 OA
ATOM     14  C   UNL     1      45.777   7.445  12.625  0.00  0.00    +0.000 A 
ATOM     15  H   UNL     1      48.112   6.106  14.519  0.00  0.00    +0.000 HD
ENDBRANCH   2   5
BRANCH   1  16
ATOM     16  C   UNL     1      44.001   4.133   9.933  0.00  0.00    +0.000 C 
BRANCH  16  20
ATOM     17  C   UNL     1      46.655   1.942   7.452  0.00  0.00    +0.000 A 
ATOM     18  C   UNL     1      46.506   3.295   7.197  0.00  0.00    +0.000 A 
ATOM     19  C   UNL     1      45.631   4.027   7.995  0.00  0.00    +0.000 A 
ATOM     20  C   UNL     1      44.928   3.386   9.020  0.00  0.00    +0.000 A 
ATOM     21  C   UNL     1      45.147   2.024   9.189  0.00  0.00    +0.000 A 
ATOM     22  N   UNL     1      45.992   1.291   8.431  0.00  0.00    +0.000 NA
BRANCH  17  24
ATOM     23  C   UNL     1      48.123   2.076   5.643  0.00  0.00    +0.000 C 
ATOM     24  O   UNL     1      47.533   1.249   6.643  0.00  0.00    +0.000 OA
ENDBRANCH  17  24
ENDBRANCH  16  20
ENDBRANCH   1  16
TORSDOF 4
ENDMDL
MODEL 2
REMARK VINA RESULT:    -7.237      4.491      7.591
REMARK INTER + INTRA:          -9.596
REMARK INTER:                  -8.828
REMARK INTRA:                  -0.768
REMARK UNBOUND:                -0.667
REMARK  Name = 
REMARK  5 active torsions:
REMARK  status: ('A' for Active; 'I' for Inactive)
REMARK    1  A    between atoms: C_1  and  O_2
REMARK    2  A    between atoms: O_2  and  C_3
REMARK    3  A    between atoms: C_6  and  C_7
REMARK    4  A    between atoms: C_7  and  N_8
REMARK    5  A    between atoms: C_9  and  C_11
REMARK                            x       y       z     vdW  Elec       q    Type
REMARK                         _______ _______ _______ _____ _____    ______ ____
ROOT
ATOM      1  N   UNL     1      47.738   5.797  15.857  0.00  0.00    +0.000 N 
ATOM      2  C   UNL     1      48.111   6.212  14.603  0.00  0.00    +0.000 C 
ATOM      3  O   UNL     1      49.265   6.544  14.345  0.00  0.00    +0.000 OA
ATOM      4  H   UNL     1      46.750   5.764  16.093  0.00  0.00    +0.000 HD
ENDROOT
BRANCH   2   5
ATOM      5  C   UNL     1      47.078   6.178  13.564  0.00  0.00    +0.000 A 
ATOM      6  C   UNL     1      46.641   7.368  12.998  0.00  0.00    +0.000 A 
ATOM      7  S   UNL     1      45.460   7.157  11.787  0.00  0.00    +0.000 S 
ATOM      8  C   UNL     1      45.455   5.470  12.011  0.00  0.00    +0.000 A 
ATOM      9  N   UNL     1      44.619   4.675  11.292  0.00  0.00    +0.000 NA
ATOM     10  C   UNL     1      44.693   3.420  11.588  0.00  0.00    +0.000 A 
ATOM     11  N   UNL     1      45.535   2.888  12.533  0.00  0.00    +0.000 N 
ATOM     12  C   UNL     1      46.427   3.649  13.253  0.00  0.00    +0.000 A 
ATOM     13  O   UNL     1      47.215   3.139  14.042  0.00  0.00    +0.000 OA
ATOM     14  C   UNL     1      46.362   5.071  12.977  0.00  0.00    +0.000 A 
ATOM     15  H   UNL     1      45.553   1.893  12.704  0.00  0.00    +0.000 HD
ENDBRANCH   2   5
BRANCH   1  16
ATOM     16  C   UNL     1      48.673   5.812  16.955  0.00  0.00    +0.000 C 
BRANCH  16  20
ATOM     17  C   UNL     1      50.731   2.123  17.350  0.00  0.00    +0.000 A 
ATOM     18  C   UNL     1      49.380   2.077  17.050  0.00  0.00    +0.000 A 
ATOM     19  C   UNL     1      48.687   3.278  16.927  0.00  0.00    +0.000 A 
ATOM     20  C   UNL     1      49.362   4.489  17.112  0.00  0.00    +0.000 A 
ATOM     21  C   UNL     1      50.717   4.424  17.415  0.00  0.00    +0.000 A 
ATOM     22  N   UNL     1      51.414   3.273  17.537  0.00  0.00    +0.000 NA
BRANCH  17  24
ATOM     23  C   UNL     1      52.761   1.067  17.807  0.00  0.00    +0.000 C 
ATOM     24  O   UNL     1      51.387   0.913  17.460  0.00  0.00    +0.000 OA
ENDBRANCH  17  24
ENDBRANCH  16  20
ENDBRANCH   1  16
TORSDOF 4
ENDMDL
MODEL 3
REMARK VINA RESULT:    -7.214      3.325      4.285
REMARK INTER + INTRA:          -9.569
REMARK INTER:                  -9.034
REMARK INTRA:                  -0.535
REMARK UNBOUND:                -0.667
REMARK  Name = 
REMARK  5 active torsions:
REMARK  status: ('A' for Active; 'I' for Inactive)
REMARK    1  A    between atoms: C_1  and  O_2
REMARK    2  A    between atoms: O_2  and  C_3
REMARK    3  A    between atoms: C_6  and  C_7
REMARK    4  A    between atoms: C_7  and  N_8
REMARK    5  A    between atoms: C_9  and  C_11
REMARK                            x       y       z     vdW  Elec       q    Type
REMARK                         _______ _______ _______ _____ _____    ______ ____
ROOT
ATOM      1  N   UNL     1      45.423   4.889  13.641  0.00  0.00    +0.000 N 
ATOM      2  C   UNL     1      46.559   4.280  14.111  0.00  0.00    +0.000 C 
ATOM      3  O   UNL     1      46.849   3.124  13.813  0.00  0.00    +0.000 OA
ATOM      4  H   UNL     1      45.097   5.740  14.090  0.00  0.00    +0.000 HD
ENDROOT
BRANCH   2   5
ATOM      5  C   UNL     1      47.452   5.099  14.936  0.00  0.00    +0.000 A 
ATOM      6  C   UNL     1      48.142   6.154  14.354  0.00  0.00    +0.000 A 
ATOM      7  S   UNL     1      49.115   7.024  15.449  0.00  0.00    +0.000 S 
ATOM      8  C   UNL     1      48.687   5.991  16.732  0.00  0.00    +0.000 A 
ATOM      9  N   UNL     1      49.215   6.166  17.972  0.00  0.00    +0.000 NA
ATOM     10  C   UNL     1      48.834   5.290  18.841  0.00  0.00    +0.000 A 
ATOM     11  N   UNL     1      47.964   4.260  18.583  0.00  0.00    +0.000 N 
ATOM     12  C   UNL     1      47.374   4.070  17.355  0.00  0.00    +0.000 A 
ATOM     13  O   UNL     1      46.548   3.182  17.170  0.00  0.00    +0.000 OA
ATOM     14  C   UNL     1      47.793   5.013  16.335  0.00  0.00    +0.000 A 
ATOM     15  H   UNL     1      47.696   3.618  19.314  0.00  0.00    +0.000 HD
ENDBRANCH   2   5
BRANCH   1  16
ATOM     16  C   UNL     1      44.468   4.165  12.838  0.00  0.00    +0.000 C 
BRANCH  16  20
ATOM     17  C   UNL     1      45.460   4.231   8.713  0.00  0.00    +0.000 A 
ATOM     18  C   UNL     1      45.742   5.362   9.461  0.00  0.00    +0.000 A 
ATOM     19  C   UNL     1      45.414   5.361  10.813  0.00  0.00    +0.000 A 
ATOM     20  C   UNL     1      44.809   4.234  11.378  0.00  0.00    +0.000 A 
ATOM     21  C   UNL     1      44.565   3.153  10.540  0.00  0.00    +0.000 A 
ATOM     22  N   UNL     1      44.876   3.126   9.225  0.00  0.00    +0.000 NA
BRANCH  17  24
ATOM     23  C   UNL     1      46.933   3.449   7.081  0.00  0.00    +0.000 C 
ATOM     24  O   UNL     1      45.803   4.266   7.376  0.00  0.00    +0.000 OA
ENDBRANCH  17  24
ENDBRANCH  16  20
ENDBRANCH   1  16
TORSDOF 4
ENDMDL
MODEL 4
REMARK VINA RESULT:    -7.123      1.827      2.213
REMARK INTER + INTRA:          -9.456
REMARK INTER:                  -8.859
REMARK INTRA:                  -0.597
REMARK UNBOUND:                -0.667
REMARK  Name = 
REMARK  5 active torsions:
REMARK  status: ('A' for Active; 'I' for Inactive)
REMARK    1  A    between atoms: C_1  and  O_2
REMARK    2  A    between atoms: O_2  and  C_3
REMARK    3  A    between atoms: C_6  and  C_7
REMARK    4  A    between atoms: C_7  and  N_8
REMARK    5  A    between atoms: C_9  and  C_11
REMARK                            x       y       z     vdW  Elec       q    Type
REMARK                         _______ _______ _______ _____ _____    ______ ____
ROOT
ATOM      1  N   UNL     1      45.547   4.651  11.317  0.00  0.00    +0.000 N 
ATOM      2  C   UNL     1      45.758   5.999  11.464  0.00  0.00    +0.000 C 
ATOM      3  O   UNL     1      45.103   6.832  10.844  0.00  0.00    +0.000 OA
ATOM      4  H   UNL     1      46.252   4.001  11.652  0.00  0.00    +0.000 HD
ENDROOT
BRANCH   2   5
ATOM      5  C   UNL     1      46.762   6.404  12.452  0.00  0.00    +0.000 A 
ATOM      6  C   UNL     1      47.586   7.488  12.183  0.00  0.00    +0.000 A 
ATOM      7  S   UNL     1      48.679   7.848  13.440  0.00  0.00    +0.000 S 
ATOM      8  C   UNL     1      48.123   6.535  14.370  0.00  0.00    +0.000 A 
ATOM      9  N   UNL     1      48.680   6.252  15.577  0.00  0.00    +0.000 NA
ATOM     10  C   UNL     1      48.189   5.209  16.159  0.00  0.00    +0.000 A 
ATOM     11  N   UNL     1      47.183   4.429  15.645  0.00  0.00    +0.000 N 
ATOM     12  C   UNL     1      46.562   4.703  14.448  0.00  0.00    +0.000 A 
ATOM     13  O   UNL     1      45.621   4.028  14.045  0.00  0.00    +0.000 OA
ATOM     14  C   UNL     1      47.099   5.850  13.741  0.00  0.00    +0.000 A 
ATOM     15  H   UNL     1      46.834   3.635  16.161  0.00  0.00    +0.000 HD
ENDBRANCH   2   5
BRANCH   1  16
ATOM     16  C   UNL     1      44.596   4.148  10.356  0.00  0.00    +0.000 C 
BRANCH  16  20
ATOM     17  C   UNL     1      46.567   2.041   7.245  0.00  0.00    +0.000 A 
ATOM     18  C   UNL     1      46.506   3.421   7.149  0.00  0.00    +0.000 A 
ATOM     19  C   UNL     1      45.854   4.127   8.156  0.00  0.00    +0.000 A 
ATOM     20  C   UNL     1      45.277   3.435   9.225  0.00  0.00    +0.000 A 
ATOM     21  C   UNL     1      45.391   2.050   9.224  0.00  0.00    +0.000 A 
ATOM     22  N   UNL     1      46.020   1.340   8.262  0.00  0.00    +0.000 NA
BRANCH  17  24
ATOM     23  C   UNL     1      47.754   2.261   5.249  0.00  0.00    +0.000 C 
ATOM     24  O   UNL     1      47.224   1.374   6.231  0.00  0.00    +0.000 OA
ENDBRANCH  17  24
ENDBRANCH  16  20
ENDBRANCH   1  16
TORSDOF 4
ENDMDL
MODEL 5
REMARK VINA RESULT:    -6.840      4.452      7.685
REMARK INTER + INTRA:          -9.107
REMARK INTER:                  -8.544
REMARK INTRA:                  -0.563
REMARK UNBOUND:                -0.667
REMARK  Name = 
REMARK  5 active torsions:
REMARK  status: ('A' for Active; 'I' for Inactive)
REMARK    1  A    between atoms: C_1  and  O_2
REMARK    2  A    between atoms: O_2  and  C_3
REMARK    3  A    between atoms: C_6  and  C_7
REMARK    4  A    between atoms: C_7  and  N_8
REMARK    5  A    between atoms: C_9  and  C_11
REMARK                            x       y       z     vdW  Elec       q    Type
REMARK                         _______ _______ _______ _____ _____    ______ ____
ROOT
ATOM      1  N   UNL     1      46.851   4.393  15.930  0.00  0.00    +0.000 N 
ATOM      2  C   UNL     1      46.920   4.147  14.581  0.00  0.00    +0.000 C 
ATOM      3  O   UNL     1      47.285   3.062  14.136  0.00  0.00    +0.000 OA
ATOM      4  H   UNL     1      46.781   5.354  16.253  0.00  0.00    +0.000 HD
ENDROOT
BRANCH   2   5
ATOM      5  C   UNL     1      46.472   5.222  13.692  0.00  0.00    +0.000 A 
ATOM      6  C   UNL     1      47.275   6.341  13.516  0.00  0.00    +0.000 A 
ATOM      7  S   UNL     1      46.628   7.485  12.432  0.00  0.00    +0.000 S 
ATOM      8  C   UNL     1      45.226   6.549  12.197  0.00  0.00    +0.000 A 
ATOM      9  N   UNL     1      44.224   6.986  11.389  0.00  0.00    +0.000 NA
ATOM     10  C   UNL     1      43.205   6.195  11.330  0.00  0.00    +0.000 A 
ATOM     11  N   UNL     1      43.103   5.001  11.998  0.00  0.00    +0.000 N 
ATOM     12  C   UNL     1      44.109   4.499  12.791  0.00  0.00    +0.000 A 
ATOM     13  O   UNL     1      44.019   3.398  13.323  0.00  0.00    +0.000 OA
ATOM     14  C   UNL     1      45.265   5.366  12.914  0.00  0.00    +0.000 A 
ATOM     15  H   UNL     1      42.282   4.422  11.894  0.00  0.00    +0.000 HD
ENDBRANCH   2   5
BRANCH   1  16
ATOM     16  C   UNL     1      47.288   3.409  16.889  0.00  0.00    +0.000 C 
BRANCH  16  20
ATOM     17  C   UNL     1      51.447   3.840  17.604  0.00  0.00    +0.000 A 
ATOM     18  C   UNL     1      50.958   2.560  17.408  0.00  0.00    +0.000 A 
ATOM     19  C   UNL     1      49.594   2.399  17.182  0.00  0.00    +0.000 A 
ATOM     20  C   UNL     1      48.758   3.520  17.165  0.00  0.00    +0.000 A 
ATOM     21  C   UNL     1      49.349   4.760  17.377  0.00  0.00    +0.000 A 
ATOM     22  N   UNL     1      50.670   4.944  17.595  0.00  0.00    +0.000 NA
BRANCH  17  24
ATOM     23  C   UNL     1      53.423   2.714  18.127  0.00  0.00    +0.000 C 
ATOM     24  O   UNL     1      52.805   3.962  17.821  0.00  0.00    +0.000 OA
ENDBRANCH  17  24
ENDBRANCH  16  20
ENDBRANCH   1  16
TORSDOF 4
ENDMDL
MODEL 6
REMARK VINA RESULT:    -6.642      3.536      5.312
REMARK INTER + INTRA:          -8.862
REMARK INTER:                  -8.197
REMARK INTRA:                  -0.666
REMARK UNBOUND:                -0.667
REMARK  Name = 
REMARK  5 active torsions:
REMARK  status: ('A' for Active; 'I' for Inactive)
REMARK    1  A    between atoms: C_1  and  O_2
REMARK    2  A    between atoms: O_2  and  C_3
REMARK    3  A    between atoms: C_6  and  C_7
REMARK    4  A    between atoms: C_7  and  N_8
REMARK    5  A    between atoms: C_9  and  C_11
REMARK                            x       y       z     vdW  Elec       q    Type
REMARK                         _______ _______ _______ _____ _____    ______ ____
ROOT
ATOM      1  N   UNL     1      46.944   6.766  13.868  0.00  0.00    +0.000 N 
ATOM      2  C   UNL     1      48.247   6.571  14.250  0.00  0.00    +0.000 C 
ATOM      3  O   UNL     1      49.181   6.686  13.461  0.00  0.00    +0.000 OA
ATOM      4  H   UNL     1      46.197   6.433  14.471  0.00  0.00    +0.000 HD
ENDROOT
BRANCH   2   5
ATOM      5  C   UNL     1      48.481   6.283  15.668  0.00  0.00    +0.000 A 
ATOM      6  C   UNL     1      49.031   7.265  16.481  0.00  0.00    +0.000 A 
ATOM      7  S   UNL     1      49.215   6.785  18.106  0.00  0.00    +0.000 S 
ATOM      8  C   UNL     1      48.611   5.230  17.770  0.00  0.00    +0.000 A 
ATOM      9  N   UNL     1      48.534   4.287  18.747  0.00  0.00    +0.000 NA
ATOM     10  C   UNL     1      48.092   3.141  18.347  0.00  0.00    +0.000 A 
ATOM     11  N   UNL     1      47.711   2.857  17.059  0.00  0.00    +0.000 N 
ATOM     12  C   UNL     1      47.731   3.791  16.050  0.00  0.00    +0.000 A 
ATOM     13  O   UNL     1      47.321   3.530  14.924  0.00  0.00    +0.000 OA
ATOM     14  C   UNL     1      48.248   5.088  16.443  0.00  0.00    +0.000 A 
ATOM     15  H   UNL     1      47.358   1.942  16.817  0.00  0.00    +0.000 HD
ENDBRANCH   2   5
BRANCH   1  16
ATOM     16  C   UNL     1      46.604   7.034  12.492  0.00  0.00    +0.000 C 
BRANCH  16  20
ATOM     17  C   UNL     1      44.523   3.723  10.846  0.00  0.00    +0.000 A 
ATOM     18  C   UNL     1      45.044   4.657   9.967  0.00  0.00    +0.000 A 
ATOM     19  C   UNL     1      45.721   5.756  10.490  0.00  0.00    +0.000 A 
ATOM     20  C   UNL     1      45.853   5.891  11.875  0.00  0.00    +0.000 A 
ATOM     21  C   UNL     1      45.290   4.900  12.670  0.00  0.00    +0.000 A 
ATOM     22  N   UNL     1      44.631   3.823  12.188  0.00  0.00    +0.000 NA
BRANCH  17  24
ATOM     23  C   UNL     1      44.588   2.053   9.218  0.00  0.00    +0.000 C 
ATOM     24  O   UNL     1      43.862   2.646  10.292  0.00  0.00    +0.000 OA
ENDBRANCH  17  24
ENDBRANCH  16  20
ENDBRANCH   1  16
TORSDOF 4
ENDMDL
MODEL 7
REMARK VINA RESULT:    -6.425      3.973      8.346
REMARK INTER + INTRA:          -8.595
REMARK INTER:                  -8.032
REMARK INTRA:                  -0.563
REMARK UNBOUND:                -0.667
REMARK  Name = 
REMARK  5 active torsions:
REMARK  status: ('A' for Active; 'I' for Inactive)
REMARK    1  A    between atoms: C_1  and  O_2
REMARK    2  A    between atoms: O_2  and  C_3
REMARK    3  A    between atoms: C_6  and  C_7
REMARK    4  A    between atoms: C_7  and  N_8
REMARK    5  A    between atoms: C_9  and  C_11
REMARK                            x       y       z     vdW  Elec       q    Type
REMARK                         _______ _______ _______ _____ _____    ______ ____
ROOT
ATOM      1  N   UNL     1      47.715   6.516  14.824  0.00  0.00    +0.000 N 
ATOM      2  C   UNL     1      47.789   6.249  13.480  0.00  0.00    +0.000 C 
ATOM      3  O   UNL     1      48.863   6.083  12.908  0.00  0.00    +0.000 OA
ATOM      4  H   UNL     1      46.847   6.881  15.208  0.00  0.00    +0.000 HD
ENDROOT
BRANCH   2   5
ATOM      5  C   UNL     1      46.517   6.103  12.767  0.00  0.00    +0.000 A 
ATOM      6  C   UNL     1      45.913   7.224  12.212  0.00  0.00    +0.000 A 
ATOM      7  S   UNL     1      44.457   6.885  11.395  0.00  0.00    +0.000 S 
ATOM      8  C   UNL     1      44.556   5.233  11.795  0.00  0.00    +0.000 A 
ATOM      9  N   UNL     1      43.578   4.366  11.419  0.00  0.00    +0.000 NA
ATOM     10  C   UNL     1      43.761   3.153  11.820  0.00  0.00    +0.000 A 
ATOM     11  N   UNL     1      44.838   2.726  12.556  0.00  0.00    +0.000 N 
ATOM     12  C   UNL     1      45.871   3.559  12.921  0.00  0.00    +0.000 A 
ATOM     13  O   UNL     1      46.854   3.137  13.520  0.00  0.00    +0.000 OA
ATOM     14  C   UNL     1      45.698   4.941  12.519  0.00  0.00    +0.000 A 
ATOM     15  H   UNL     1      44.927   1.756  12.823  0.00  0.00    +0.000 HD
ENDBRANCH   2   5
BRANCH   1  16
ATOM     16  C   UNL     1      48.908   6.699  15.613  0.00  0.00    +0.000 C 
BRANCH  16  20
ATOM     17  C   UNL     1      48.671   4.904  19.450  0.00  0.00    +0.000 A 
ATOM     18  C   UNL     1      48.470   4.092  18.347  0.00  0.00    +0.000 A 
ATOM     19  C   UNL     1      48.534   4.667  17.080  0.00  0.00    +0.000 A 
ATOM     20  C   UNL     1      48.791   6.035  16.954  0.00  0.00    +0.000 A 
ATOM     21  C   UNL     1      48.974   6.762  18.125  0.00  0.00    +0.000 A 
ATOM     22  N   UNL     1      48.920   6.229  19.365  0.00  0.00    +0.000 NA
BRANCH  17  24
ATOM     23  C   UNL     1      49.302   5.033  21.693  0.00  0.00    +0.000 C 
ATOM     24  O   UNL     1      48.604   4.300  20.689  0.00  0.00    +0.000 OA
ENDBRANCH  17  24
ENDBRANCH  16  20
ENDBRANCH   1  16
TORSDOF 4
ENDMDL
MODEL 8
REMARK VINA RESULT:    -5.962      4.262      6.299
REMARK INTER + INTRA:          -8.023
REMARK INTER:                  -7.490
REMARK INTRA:                  -0.533
REMARK UNBOUND:                -0.667
REMARK  Name = 
REMARK  5 active torsions:
REMARK  status: ('A' for Active; 'I' for Inactive)
REMARK    1  A    between atoms: C_1  and  O_2
REMARK    2  A    between atoms: O_2  and  C_3
REMARK    3  A    between atoms: C_6  and  C_7
REMARK    4  A    between atoms: C_7  and  N_8
REMARK    5  A    between atoms: C_9  and  C_11
REMARK                            x       y       z     vdW  Elec       q    Type
REMARK                         _______ _______ _______ _____ _____    ______ ____
ROOT
ATOM      1  N   UNL     1      47.874   6.732  14.850  0.00  0.00    +0.000 N 
ATOM      2  C   UNL     1      49.011   6.789  15.617  0.00  0.00    +0.000 C 
ATOM      3  O   UNL     1      50.133   6.817  15.117  0.00  0.00    +0.000 OA
ATOM      4  H   UNL     1      46.996   6.470  15.288  0.00  0.00    +0.000 HD
ENDROOT
BRANCH   2   5
ATOM      5  C   UNL     1      48.823   6.882  17.067  0.00  0.00    +0.000 A 
ATOM      6  C   UNL     1      48.592   8.122  17.647  0.00  0.00    +0.000 A 
ATOM      7  S   UNL     1      48.367   8.059  19.335  0.00  0.00    +0.000 S 
ATOM      8  C   UNL     1      48.620   6.376  19.358  0.00  0.00    +0.000 A 
ATOM      9  N   UNL     1      48.597   5.685  20.529  0.00  0.00    +0.000 NA
ATOM     10  C   UNL     1      48.840   4.423  20.407  0.00  0.00    +0.000 A 
ATOM     11  N   UNL     1      49.094   3.788  19.217  0.00  0.00    +0.000 N 
ATOM     12  C   UNL     1      49.084   4.439  18.005  0.00  0.00    +0.000 A 
ATOM     13  O   UNL     1      49.247   3.834  16.950  0.00  0.00    +0.000 OA
ATOM     14  C   UNL     1      48.845   5.866  18.092  0.00  0.00    +0.000 A 
ATOM     15  H   UNL     1      49.261   2.792  19.191  0.00  0.00    +0.000 HD
ENDBRANCH   2   5
BRANCH   1  16
ATOM     16  C   UNL     1      47.950   6.618  13.414  0.00  0.00    +0.000 C 
BRANCH  16  20
ATOM     17  C   UNL     1      45.047   3.897  11.941  0.00  0.00    +0.000 A 
ATOM     18  C   UNL     1      45.263   5.060  11.221  0.00  0.00    +0.000 A 
ATOM     19  C   UNL     1      46.205   5.969  11.696  0.00  0.00    +0.000 A 
ATOM     20  C   UNL     1      46.898   5.692  12.878  0.00  0.00    +0.000 A 
ATOM     21  C   UNL     1      46.604   4.499  13.526  0.00  0.00    +0.000 A 
ATOM     22  N   UNL     1      45.697   3.599  13.086  0.00  0.00    +0.000 NA
BRANCH  17  24
ATOM     23  C   UNL     1      44.287   2.766  10.047  0.00  0.00    +0.000 C 
ATOM     24  O   UNL     1      44.109   3.018  11.439  0.00  0.00    +0.000 OA
ENDBRANCH  17  24
ENDBRANCH  16  20
ENDBRANCH   1  16
TORSDOF 4
ENDMDL
MODEL 9
REMARK VINA RESULT:    -5.849      3.295      6.817
REMARK INTER + INTRA:          -7.884
REMARK INTER:                  -7.264
REMARK INTRA:                  -0.620
REMARK UNBOUND:                -0.667
REMARK  Name = 
REMARK  5 active torsions:
REMARK  status: ('A' for Active; 'I' for Inactive)
REMARK    1  A    between atoms: C_1  and  O_2
REMARK    2  A    between atoms: O_2  and  C_3
REMARK    3  A    between atoms: C_6  and  C_7
REMARK    4  A    between atoms: C_7  and  N_8
REMARK    5  A    between atoms: C_9  and  C_11
REMARK                            x       y       z     vdW  Elec       q    Type
REMARK                         _______ _______ _______ _____ _____    ______ ____
ROOT
ATOM      1  N   UNL     1      46.125   6.854  12.641  0.00  0.00    +0.000 N 
ATOM      2  C   UNL     1      45.060   6.664  11.796  0.00  0.00    +0.000 C 
ATOM      3  O   UNL     1      44.510   7.600  11.222  0.00  0.00    +0.000 OA
ATOM      4  H   UNL     1      46.394   6.106  13.273  0.00  0.00    +0.000 HD
ENDROOT
BRANCH   2   5
ATOM      5  C   UNL     1      44.648   5.279  11.558  0.00  0.00    +0.000 A 
ATOM      6  C   UNL     1      43.938   4.599  12.539  0.00  0.00    +0.000 A 
ATOM      7  S   UNL     1      43.511   3.010  12.099  0.00  0.00    +0.000 S 
ATOM      8  C   UNL     1      44.302   3.155  10.600  0.00  0.00    +0.000 A 
ATOM      9  N   UNL     1      44.345   2.110   9.731  0.00  0.00    +0.000 NA
ATOM     10  C   UNL     1      45.008   2.346   8.648  0.00  0.00    +0.000 A 
ATOM     11  N   UNL     1      45.625   3.536   8.352  0.00  0.00    +0.000 N 
ATOM     12  C   UNL     1      45.571   4.632   9.181  0.00  0.00    +0.000 A 
ATOM     13  O   UNL     1      46.073   5.704   8.862  0.00  0.00    +0.000 OA
ATOM     14  C   UNL     1      44.861   4.409  10.426  0.00  0.00    +0.000 A 
ATOM     15  H   UNL     1      46.114   3.657   7.478  0.00  0.00    +0.000 HD
ENDBRANCH   2   5
BRANCH   1  16
ATOM     16  C   UNL     1      46.596   8.180  12.958  0.00  0.00    +0.000 C 
BRANCH  16  20
ATOM     17  C   UNL     1      50.476   8.958  11.429  0.00  0.00    +0.000 A 
ATOM     18  C   UNL     1      50.047   7.642  11.454  0.00  0.00    +0.000 A 
ATOM     19  C   UNL     1      48.780   7.368  11.962  0.00  0.00    +0.000 A 
ATOM     20  C   UNL     1      47.982   8.414  12.435  0.00  0.00    +0.000 A 
ATOM     21  C   UNL     1      48.510   9.699  12.369  0.00  0.00    +0.000 A 
ATOM     22  N   UNL     1      49.734   9.993  11.878  0.00  0.00    +0.000 NA
BRANCH  17  24
ATOM     23  C   UNL     1      52.245  10.473  11.282  0.00  0.00    +0.000 C 
ATOM     24  O   UNL     1      51.736   9.193  10.915  0.00  0.00    +0.000 OA
ENDBRANCH  17  24
ENDBRANCH  16  20
ENDBRANCH   1  16
TORSDOF 4
ENDMDL
