MODEL 1
REMARK VINA RESULT:    -8.149      0.000      0.000
REMARK INTER + INTRA:         -14.494
REMARK INTER:                 -12.675
REMARK INTRA:                  -1.819
REMARK UNBOUND:                -1.819
REMARK  Name = 
REMARK  10 active torsions:
REMARK  status: ('A' for Active; 'I' for Inactive)
REMARK    1  A    between atoms: C_2  and  C_23
REMARK    2  A    between atoms: N_3  and  C_4
REMARK    3  A    between atoms: C_4  and  C_5
REMARK    4  A    between atoms: C_8  and  C_9
REMARK    5  A    between atoms: C_9  and  N_10
REMARK    6  A    between atoms: N_10  and  C_11
REMARK    7  A    between atoms: N_10  and  C_14
REMARK    8  A    between atoms: C_11  and  C_12
REMARK    9  A    between atoms: C_12  and  O_13
REMARK   10  A    between atoms: C_14  and  C_15
REMARK                            x       y       z     vdW  Elec       q    Type
REMARK                         _______ _______ _______ _____ _____    ______ ____
ROOT
ATOM      1  C   UNL     1      46.168   7.493  12.297  0.00  0.00    +0.000 A 
ATOM      2  C   UNL     1      46.854   6.642  11.422  0.00  0.00    +0.000 A 
ATOM      3  C   UNL     1      46.152   5.773  10.591  0.00  0.00    +0.000 A 
ATOM      4  C   UNL     1      44.752   5.738  10.626  0.00  0.00    +0.000 A 
ATOM      5  C   UNL     1      44.065   6.680  11.403  0.00  0.00    +0.000 A 
ATOM      6  C   UNL     1      44.769   7.557  12.229  0.00  0.00    +0.000 A 
ENDROOT
BRANCH   1   7
ATOM      7  C   UNL     1      46.929   8.305  13.309  0.00  0.00    +0.000 C 
BRANCH   7  10
ATOM      8  O   UNL     1      49.564   7.426  13.743  0.00  0.00    +0.000 OA
ATOM      9  C   UNL     1      48.697   7.155  14.570  0.00  0.00    +0.000 C 
ATOM     10  N   UNL     1      47.380   7.499  14.402  0.00  0.00    +0.000 N 
ATOM     11  H   UNL     1      46.743   7.416  15.186  0.00  0.00    +0.000 HD
BRANCH   9  12
ATOM     12  C   UNL     1      49.006   6.389  15.780  0.00  0.00    +0.000 A 
ATOM     13  C   UNL     1      50.030   6.809  16.618  0.00  0.00    +0.000 A 
ATOM     14  S   UNL     1      50.257   5.800  17.972  0.00  0.00    +0.000 S 
ATOM     15  C   UNL     1      48.964   4.795  17.510  0.00  0.00    +0.000 A 
ATOM     16  N   UNL     1      48.595   3.735  18.279  0.00  0.00    +0.000 NA
ATOM     17  C   UNL     1      47.572   3.083  17.834  0.00  0.00    +0.000 A 
ATOM     18  N   UNL     1      46.896   3.382  16.681  0.00  0.00    +0.000 N 
ATOM     19  C   UNL     1      47.288   4.388  15.829  0.00  0.00    +0.000 A 
ATOM     20  O   UNL     1      46.757   4.530  14.731  0.00  0.00    +0.000 OA
ATOM     21  C   UNL     1      48.392   5.197  16.317  0.00  0.00    +0.000 A 
ATOM     22  H   UNL     1      46.128   2.811  16.369  0.00  0.00    +0.000 HD
ENDBRANCH   9  12
ENDBRANCH   7  10
ENDBRANCH   1   7
BRANCH   4  23
ATOM     23  C   UNL     1      43.998   4.650   9.889  0.00  0.00    +0.000 C 
BRANCH  23  24
ATOM     24  N   UNL     1      44.449   3.277  10.255  0.00  0.00    +0.000 NA
BRANCH  24  25
ATOM     25  C   UNL     1      43.624   2.732  11.362  0.00  0.00    +0.000 C 
BRANCH  25  26
ATOM     26  C   UNL     1      44.121   3.067  12.781  0.00  0.00    +0.000 C 
BRANCH  26  27
ATOM     27  O   UNL     1      45.511   2.775  12.908  0.00  0.00    +0.000 OA
ATOM     28  H   UNL     1      45.700   2.685  13.859  0.00  0.00    +0.000 HD
ENDBRANCH  26  27
ENDBRANCH  25  26
ENDBRANCH  24  25
BRANCH  24  29
ATOM     29  C   UNL     1      44.366   2.398   9.062  0.00  0.00    +0.000 C 
BRANCH  29  30
ATOM     30  C   UNL     1      45.642   2.309   8.254  0.00  0.00    +0.000 A 
ATOM     31  C   UNL     1      46.170   3.424   7.614  0.00  0.00    +0.000 A 
ATOM     32  C   UNL     1      47.323   3.271   6.859  0.00  0.00    +0.000 A 
ATOM     33  C   UNL     1      47.888   2.014   6.787  0.00  0.00    +0.000 A 
ATOM     34  N   UNL     1      47.368   0.945   7.422  0.00  0.00    +0.000 NA
ATOM     35  N   UNL     1      46.233   1.094   8.160  0.00  0.00    +0.000 NA
ENDBRANCH  29  30
ENDBRANCH  24  29
ENDBRANCH  23  24
ENDBRANCH   4  23
TORSDOF 10
ENDMDL
MODEL 2
REMARK VINA RESULT:    -7.378      2.419      3.066
REMARK INTER + INTRA:         -13.295
REMARK INTER:                 -11.902
REMARK INTRA:                  -1.393
REMARK UNBOUND:                -1.819
REMARK  Name = 
REMARK  10 active torsions:
REMARK  status: ('A' for Active; 'I' for Inactive)
REMARK    1  A    between atoms: C_2  and  C_23
REMARK    2  A    between atoms: N_3  and  C_4
REMARK    3  A    between atoms: C_4  and  C_5
REMARK    4  A    between atoms: C_8  and  C_9
REMARK    5  A    between atoms: C_9  and  N_10
REMARK    6  A    between atoms: N_10  and  C_11
REMARK    7  A    between atoms: N_10  and  C_14
REMARK    8  A    between atoms: C_11  and  C_12
REMARK    9  A    between atoms: C_12  and  O_13
REMARK   10  A    between atoms: C_14  and  C_15
REMARK                            x       y       z     vdW  Elec       q    Type
REMARK                         _______ _______ _______ _____ _____    ______ ____
ROOT
ATOM      1  C   UNL     1      48.269   6.685  13.546  0.00  0.00    +0.000 A 
ATOM      2  C   UNL     1      47.317   5.714  13.880  0.00  0.00    +0.000 A 
ATOM      3  C   UNL     1      46.276   5.418  13.003  0.00  0.00    +0.000 A 
ATOM      4  C   UNL     1      46.169   6.094  11.780  0.00  0.00    +0.000 A 
ATOM      5  C   UNL     1      47.192   6.969  11.392  0.00  0.00    +0.000 A 
ATOM      6  C   UNL     1      48.240   7.257  12.267  0.00  0.00    +0.000 A 
ENDROOT
BRANCH   1   7
ATOM      7  C   UNL     1      49.288   7.121  14.563  0.00  0.00    +0.000 C 
BRANCH   7  10
ATOM      8  O   UNL     1      50.887   5.789  16.454  0.00  0.00    +0.000 OA
ATOM      9  C   UNL     1      49.759   6.154  16.772  0.00  0.00    +0.000 C 
ATOM     10  N   UNL     1      48.899   6.758  15.892  0.00  0.00    +0.000 N 
ATOM     11  H   UNL     1      48.058   7.200  16.244  0.00  0.00    +0.000 HD
BRANCH   9  12
ATOM     12  C   UNL     1      49.228   5.916  18.118  0.00  0.00    +0.000 A 
ATOM     13  C   UNL     1      49.388   4.671  18.710  0.00  0.00    +0.000 A 
ATOM     14  S   UNL     1      48.705   4.567  20.269  0.00  0.00    +0.000 S 
ATOM     15  C   UNL     1      48.215   6.196  20.222  0.00  0.00    +0.000 A 
ATOM     16  N   UNL     1      47.589   6.766  21.288  0.00  0.00    +0.000 NA
ATOM     17  C   UNL     1      47.311   8.019  21.135  0.00  0.00    +0.000 A 
ATOM     18  N   UNL     1      47.582   8.748  20.009  0.00  0.00    +0.000 N 
ATOM     19  C   UNL     1      48.132   8.192  18.878  0.00  0.00    +0.000 A 
ATOM     20  O   UNL     1      48.219   8.835  17.835  0.00  0.00    +0.000 OA
ATOM     21  C   UNL     1      48.529   6.801  19.019  0.00  0.00    +0.000 A 
ATOM     22  H   UNL     1      47.306   9.714  19.938  0.00  0.00    +0.000 HD
ENDBRANCH   9  12
ENDBRANCH   7  10
ENDBRANCH   1   7
BRANCH   4  23
ATOM     23  C   UNL     1      44.927   5.935  10.928  0.00  0.00    +0.000 C 
BRANCH  23  24
ATOM     24  N   UNL     1      44.582   4.510  10.660  0.00  0.00    +0.000 NA
BRANCH  24  25
ATOM     25  C   UNL     1      43.364   4.116  11.412  0.00  0.00    +0.000 C 
BRANCH  25  26
ATOM     26  C   UNL     1      43.483   2.812  12.224  0.00  0.00    +0.000 C 
BRANCH  26  27
ATOM     27  O   UNL     1      43.112   1.690  11.427  0.00  0.00    +0.000 OA
ATOM     28  H   UNL     1      42.569   1.106  11.986  0.00  0.00    +0.000 HD
ENDBRANCH  26  27
ENDBRANCH  25  26
ENDBRANCH  24  25
BRANCH  24  29
ATOM     29  C   UNL     1      44.377   4.319   9.202  0.00  0.00    +0.000 C 
BRANCH  29  30
ATOM     30  C   UNL     1      45.326   3.333   8.557  0.00  0.00    +0.000 A 
ATOM     31  C   UNL     1      46.209   3.728   7.559  0.00  0.00    +0.000 A 
ATOM     32  C   UNL     1      47.028   2.769   6.982  0.00  0.00    +0.000 A 
ATOM     33  C   UNL     1      46.924   1.470   7.435  0.00  0.00    +0.000 A 
ATOM     34  N   UNL     1      46.069   1.106   8.411  0.00  0.00    +0.000 NA
ATOM     35  N   UNL     1      45.261   2.046   8.975  0.00  0.00    +0.000 NA
ENDBRANCH  29  30
ENDBRANCH  24  29
ENDBRANCH  23  24
ENDBRANCH   4  23
TORSDOF 10
ENDMDL
MODEL 3
REMARK VINA RESULT:    -7.246      2.958      4.073
REMARK INTER + INTRA:         -13.089
REMARK INTER:                 -11.966
REMARK INTRA:                  -1.123
REMARK UNBOUND:                -1.819
REMARK  Name = 
REMARK  10 active torsions:
REMARK  status: ('A' for Active; 'I' for Inactive)
REMARK    1  A    between atoms: C_2  and  C_23
REMARK    2  A    between atoms: N_3  and  C_4
REMARK    3  A    between atoms: C_4  and  C_5
REMARK    4  A    between atoms: C_8  and  C_9
REMARK    5  A    between atoms: C_9  and  N_10
REMARK    6  A    between atoms: N_10  and  C_11
REMARK    7  A    between atoms: N_10  and  C_14
REMARK    8  A    between atoms: C_11  and  C_12
REMARK    9  A    between atoms: C_12  and  O_13
REMARK   10  A    between atoms: C_14  and  C_15
REMARK                            x       y       z     vdW  Elec       q    Type
REMARK                         _______ _______ _______ _____ _____    ______ ____
ROOT
ATOM      1  C   UNL     1      47.535   4.992  14.887  0.00  0.00    +0.000 A 
ATOM      2  C   UNL     1      46.791   3.937  14.344  0.00  0.00    +0.000 A 
ATOM      3  C   UNL     1      46.078   4.114  13.161  0.00  0.00    +0.000 A 
ATOM      4  C   UNL     1      46.094   5.352  12.505  0.00  0.00    +0.000 A 
ATOM      5  C   UNL     1      46.941   6.363  12.977  0.00  0.00    +0.000 A 
ATOM      6  C   UNL     1      47.663   6.181  14.157  0.00  0.00    +0.000 A 
ENDROOT
BRANCH   1   7
ATOM      7  C   UNL     1      48.163   4.849  16.246  0.00  0.00    +0.000 C 
BRANCH   7  10
ATOM      8  O   UNL     1      49.641   5.781  18.449  0.00  0.00    +0.000 OA
ATOM      9  C   UNL     1      48.599   6.352  18.140  0.00  0.00    +0.000 C 
ATOM     10  N   UNL     1      47.795   5.925  17.115  0.00  0.00    +0.000 N 
ATOM     11  H   UNL     1      47.050   6.528  16.785  0.00  0.00    +0.000 HD
BRANCH   9  12
ATOM     12  C   UNL     1      48.111   7.514  18.890  0.00  0.00    +0.000 A 
ATOM     13  C   UNL     1      47.812   7.384  20.239  0.00  0.00    +0.000 A 
ATOM     14  S   UNL     1      47.251   8.828  20.952  0.00  0.00    +0.000 S 
ATOM     15  C   UNL     1      47.435   9.684  19.493  0.00  0.00    +0.000 A 
ATOM     16  N   UNL     1      47.157  11.015  19.426  0.00  0.00    +0.000 NA
ATOM     17  C   UNL     1      47.381  11.549  18.271  0.00  0.00    +0.000 A 
ATOM     18  N   UNL     1      47.838  10.872  17.172  0.00  0.00    +0.000 N 
ATOM     19  C   UNL     1      48.048   9.512  17.171  0.00  0.00    +0.000 A 
ATOM     20  O   UNL     1      48.308   8.914  16.130  0.00  0.00    +0.000 OA
ATOM     21  C   UNL     1      47.878   8.873  18.464  0.00  0.00    +0.000 A 
ATOM     22  H   UNL     1      47.958  11.340  16.288  0.00  0.00    +0.000 HD
ENDBRANCH   9  12
ENDBRANCH   7  10
ENDBRANCH   1   7
BRANCH   4  23
ATOM     23  C   UNL     1      45.153   5.613  11.347  0.00  0.00    +0.000 C 
BRANCH  23  24
ATOM     24  N   UNL     1      44.523   4.371  10.815  0.00  0.00    +0.000 NA
BRANCH  24  25
ATOM     25  C   UNL     1      43.156   4.200  11.368  0.00  0.00    +0.000 C 
BRANCH  25  26
ATOM     26  C   UNL     1      42.522   5.472  11.964  0.00  0.00    +0.000 C 
BRANCH  26  27
ATOM     27  O   UNL     1      42.539   5.420  13.389  0.00  0.00    +0.000 OA
ATOM     28  H   UNL     1      43.432   5.677  13.676  0.00  0.00    +0.000 HD
ENDBRANCH  26  27
ENDBRANCH  25  26
ENDBRANCH  24  25
BRANCH  24  29
ATOM     29  C   UNL     1      44.481   4.437   9.333  0.00  0.00    +0.000 C 
BRANCH  29  30
ATOM     30  C   UNL     1      45.376   3.439   8.632  0.00  0.00    +0.000 A 
ATOM     31  C   UNL     1      46.208   3.825   7.588  0.00  0.00    +0.000 A 
ATOM     32  C   UNL     1      46.979   2.856   6.963  0.00  0.00    +0.000 A 
ATOM     33  C   UNL     1      46.878   1.556   7.415  0.00  0.00    +0.000 A 
ATOM     34  N   UNL     1      46.073   1.201   8.436  0.00  0.00    +0.000 NA
ATOM     35  N   UNL     1      45.313   2.152   9.048  0.00  0.00    +0.000 NA
ENDBRANCH  29  30
ENDBRANCH  24  29
ENDBRANCH  23  24
ENDBRANCH   4  23
TORSDOF 10
ENDMDL
MODEL 4
REMARK VINA RESULT:    -7.136      2.260      2.757
REMARK INTER + INTRA:         -12.918
REMARK INTER:                 -11.661
REMARK INTRA:                  -1.257
REMARK UNBOUND:                -1.819
REMARK  Name = 
REMARK  10 active torsions:
REMARK  status: ('A' for Active; 'I' for Inactive)
REMARK    1  A    between atoms: C_2  and  C_23
REMARK    2  A    between atoms: N_3  and  C_4
REMARK    3  A    between atoms: C_4  and  C_5
REMARK    4  A    between atoms: C_8  and  C_9
REMARK    5  A    between atoms: C_9  and  N_10
REMARK    6  A    between atoms: N_10  and  C_11
REMARK    7  A    between atoms: N_10  and  C_14
REMARK    8  A    between atoms: C_11  and  C_12
REMARK    9  A    between atoms: C_12  and  O_13
REMARK   10  A    between atoms: C_14  and  C_15
REMARK                            x       y       z     vdW  Elec       q    Type
REMARK                         _______ _______ _______ _____ _____    ______ ____
ROOT
ATOM      1  C   UNL     1      47.770   6.695  13.766  0.00  0.00    +0.000 A 
ATOM      2  C   UNL     1      47.179   7.770  13.091  0.00  0.00    +0.000 A 
ATOM      3  C   UNL     1      46.144   7.549  12.186  0.00  0.00    +0.000 A 
ATOM      4  C   UNL     1      45.687   6.248  11.938  0.00  0.00    +0.000 A 
ATOM      5  C   UNL     1      46.189   5.191  12.709  0.00  0.00    +0.000 A 
ATOM      6  C   UNL     1      47.220   5.415  13.623  0.00  0.00    +0.000 A 
ENDROOT
BRANCH   1   7
ATOM      7  C   UNL     1      48.995   6.919  14.610  0.00  0.00    +0.000 C 
BRANCH   7  10
ATOM      8  O   UNL     1      49.860   8.712  16.596  0.00  0.00    +0.000 OA
ATOM      9  C   UNL     1      49.116   7.785  16.906  0.00  0.00    +0.000 C 
ATOM     10  N   UNL     1      48.697   6.838  16.007  0.00  0.00    +0.000 N 
ATOM     11  H   UNL     1      47.947   6.206  16.266  0.00  0.00    +0.000 HD
BRANCH   9  12
ATOM     12  C   UNL     1      48.664   7.595  18.288  0.00  0.00    +0.000 A 
ATOM     13  C   UNL     1      47.979   8.616  18.933  0.00  0.00    +0.000 A 
ATOM     14  S   UNL     1      47.536   8.230  20.533  0.00  0.00    +0.000 S 
ATOM     15  C   UNL     1      48.202   6.670  20.400  0.00  0.00    +0.000 A 
ATOM     16  N   UNL     1      48.123   5.787  21.433  0.00  0.00    +0.000 NA
ATOM     17  C   UNL     1      48.631   4.626  21.182  0.00  0.00    +0.000 A 
ATOM     18  N   UNL     1      49.226   4.271  20.002  0.00  0.00    +0.000 N 
ATOM     19  C   UNL     1      49.406   5.157  18.965  0.00  0.00    +0.000 A 
ATOM     20  O   UNL     1      50.080   4.854  17.984  0.00  0.00    +0.000 OA
ATOM     21  C   UNL     1      48.793   6.458  19.168  0.00  0.00    +0.000 A 
ATOM     22  H   UNL     1      49.637   3.359  19.882  0.00  0.00    +0.000 HD
ENDBRANCH   9  12
ENDBRANCH   7  10
ENDBRANCH   1   7
BRANCH   4  23
ATOM     23  C   UNL     1      44.720   5.983  10.803  0.00  0.00    +0.000 C 
BRANCH  23  24
ATOM     24  N   UNL     1      44.476   4.530  10.572  0.00  0.00    +0.000 NA
BRANCH  24  25
ATOM     25  C   UNL     1      43.276   4.077  11.319  0.00  0.00    +0.000 C 
BRANCH  25  26
ATOM     26  C   UNL     1      43.476   2.819  12.187  0.00  0.00    +0.000 C 
BRANCH  26  27
ATOM     27  O   UNL     1      43.096   1.648  11.467  0.00  0.00    +0.000 OA
ATOM     28  H   UNL     1      43.725   1.546  10.731  0.00  0.00    +0.000 HD
ENDBRANCH  26  27
ENDBRANCH  25  26
ENDBRANCH  24  25
BRANCH  24  29
ATOM     29  C   UNL     1      44.307   4.285   9.118  0.00  0.00    +0.000 C 
BRANCH  29  30
ATOM     30  C   UNL     1      45.264   3.268   8.536  0.00  0.00    +0.000 A 
ATOM     31  C   UNL     1      46.205   3.627   7.578  0.00  0.00    +0.000 A 
ATOM     32  C   UNL     1      47.030   2.641   7.057  0.00  0.00    +0.000 A 
ATOM     33  C   UNL     1      46.872   1.351   7.523  0.00  0.00    +0.000 A 
ATOM     34  N   UNL     1      45.961   1.022   8.460  0.00  0.00    +0.000 NA
ATOM     35  N   UNL     1      45.148   1.989   8.969  0.00  0.00    +0.000 NA
ENDBRANCH  29  30
ENDBRANCH  24  29
ENDBRANCH  23  24
ENDBRANCH   4  23
TORSDOF 10
ENDMDL
MODEL 5
REMARK VINA RESULT:    -6.733      2.612      3.342
REMARK INTER + INTRA:         -12.291
REMARK INTER:                 -11.292
REMARK INTRA:                  -0.999
REMARK UNBOUND:                -1.819
REMARK  Name = 
REMARK  10 active torsions:
REMARK  status: ('A' for Active; 'I' for Inactive)
REMARK    1  A    between atoms: C_2  and  C_23
REMARK    2  A    between atoms: N_3  and  C_4
REMARK    3  A    between atoms: C_4  and  C_5
REMARK    4  A    between atoms: C_8  and  C_9
REMARK    5  A    between atoms: C_9  and  N_10
REMARK    6  A    between atoms: N_10  and  C_11
REMARK    7  A    between atoms: N_10  and  C_14
REMARK    8  A    between atoms: C_11  and  C_12
REMARK    9  A    between atoms: C_12  and  O_13
REMARK   10  A    between atoms: C_14  and  C_15
REMARK                            x       y       z     vdW  Elec       q    Type
REMARK                         _______ _______ _______ _____ _____    ______ ____
ROOT
ATOM      1  C   UNL     1      48.111   7.180  14.697  0.00  0.00    +0.000 A 
ATOM      2  C   UNL     1      47.470   8.134  13.899  0.00  0.00    +0.000 A 
ATOM      3  C   UNL     1      46.717   7.737  12.796  0.00  0.00    +0.000 A 
ATOM      4  C   UNL     1      46.598   6.379  12.473  0.00  0.00    +0.000 A 
ATOM      5  C   UNL     1      47.130   5.421  13.346  0.00  0.00    +0.000 A 
ATOM      6  C   UNL     1      47.877   5.819  14.456  0.00  0.00    +0.000 A 
ENDROOT
BRANCH   1   7
ATOM      7  C   UNL     1      49.058   7.619  15.780  0.00  0.00    +0.000 C 
BRANCH   7  10
ATOM      8  O   UNL     1      50.695   7.513  18.064  0.00  0.00    +0.000 OA
ATOM      9  C   UNL     1      50.753   6.603  17.241  0.00  0.00    +0.000 C 
ATOM     10  N   UNL     1      50.029   6.610  16.076  0.00  0.00    +0.000 N 
ATOM     11  H   UNL     1      49.972   5.762  15.523  0.00  0.00    +0.000 HD
BRANCH   9  12
ATOM     12  C   UNL     1      51.652   5.460  17.425  0.00  0.00    +0.000 A 
ATOM     13  C   UNL     1      53.007   5.677  17.629  0.00  0.00    +0.000 A 
ATOM     14  S   UNL     1      53.905   4.240  17.815  0.00  0.00    +0.000 S 
ATOM     15  C   UNL     1      52.506   3.283  17.677  0.00  0.00    +0.000 A 
ATOM     16  N   UNL     1      52.573   1.928  17.789  0.00  0.00    +0.000 NA
ATOM     17  C   UNL     1      51.432   1.328  17.707  0.00  0.00    +0.000 A 
ATOM     18  N   UNL     1      50.232   1.955  17.505  0.00  0.00    +0.000 N 
ATOM     19  C   UNL     1      50.128   3.311  17.299  0.00  0.00    +0.000 A 
ATOM     20  O   UNL     1      49.060   3.820  16.967  0.00  0.00    +0.000 OA
ATOM     21  C   UNL     1      51.373   4.043  17.449  0.00  0.00    +0.000 A 
ATOM     22  H   UNL     1      49.380   1.426  17.414  0.00  0.00    +0.000 HD
ENDBRANCH   9  12
ENDBRANCH   7  10
ENDBRANCH   1   7
BRANCH   4  23
ATOM     23  C   UNL     1      45.968   5.960  11.161  0.00  0.00    +0.000 C 
BRANCH  23  24
ATOM     24  N   UNL     1      44.914   4.919  11.326  0.00  0.00    +0.000 NA
BRANCH  24  25
ATOM     25  C   UNL     1      43.907   5.349  12.328  0.00  0.00    +0.000 C 
BRANCH  25  26
ATOM     26  C   UNL     1      42.442   5.300  11.854  0.00  0.00    +0.000 C 
BRANCH  26  27
ATOM     27  O   UNL     1      41.888   6.613  11.800  0.00  0.00    +0.000 OA
ATOM     28  H   UNL     1      41.131   6.631  12.411  0.00  0.00    +0.000 HD
ENDBRANCH  26  27
ENDBRANCH  25  26
ENDBRANCH  24  25
BRANCH  24  29
ATOM     29  C   UNL     1      44.267   4.661  10.015  0.00  0.00    +0.000 C 
BRANCH  29  30
ATOM     30  C   UNL     1      45.115   3.877   9.038  0.00  0.00    +0.000 A 
ATOM     31  C   UNL     1      45.275   2.502   9.163  0.00  0.00    +0.000 A 
ATOM     32  C   UNL     1      46.094   1.845   8.256  0.00  0.00    +0.000 A 
ATOM     33  C   UNL     1      46.704   2.596   7.272  0.00  0.00    +0.000 A 
ATOM     34  N   UNL     1      46.529   3.927   7.158  0.00  0.00    +0.000 NA
ATOM     35  N   UNL     1      45.728   4.573   8.051  0.00  0.00    +0.000 NA
ENDBRANCH  29  30
ENDBRANCH  24  29
ENDBRANCH  23  24
ENDBRANCH   4  23
TORSDOF 10
ENDMDL
MODEL 6
REMARK VINA RESULT:    -6.662      2.277      3.085
REMARK INTER + INTRA:         -12.181
REMARK INTER:                 -11.208
REMARK INTRA:                  -0.972
REMARK UNBOUND:                -1.819
REMARK  Name = 
REMARK  10 active torsions:
REMARK  status: ('A' for Active; 'I' for Inactive)
REMARK    1  A    between atoms: C_2  and  C_23
REMARK    2  A    between atoms: N_3  and  C_4
REMARK    3  A    between atoms: C_4  and  C_5
REMARK    4  A    between atoms: C_8  and  C_9
REMARK    5  A    between atoms: C_9  and  N_10
REMARK    6  A    between atoms: N_10  and  C_11
REMARK    7  A    between atoms: N_10  and  C_14
REMARK    8  A    between atoms: C_11  and  C_12
REMARK    9  A    between atoms: C_12  and  O_13
REMARK   10  A    between atoms: C_14  and  C_15
REMARK                            x       y       z     vdW  Elec       q    Type
REMARK                         _______ _______ _______ _____ _____    ______ ____
ROOT
ATOM      1  C   UNL     1      47.396   7.104  13.733  0.00  0.00    +0.000 A 
ATOM      2  C   UNL     1      46.704   8.016  12.929  0.00  0.00    +0.000 A 
ATOM      3  C   UNL     1      45.986   7.574  11.820  0.00  0.00    +0.000 A 
ATOM      4  C   UNL     1      45.955   6.211  11.496  0.00  0.00    +0.000 A 
ATOM      5  C   UNL     1      46.538   5.288  12.374  0.00  0.00    +0.000 A 
ATOM      6  C   UNL     1      47.248   5.732  13.490  0.00  0.00    +0.000 A 
ENDROOT
BRANCH   1   7
ATOM      7  C   UNL     1      48.304   7.601  14.825  0.00  0.00    +0.000 C 
BRANCH   7  10
ATOM      8  O   UNL     1      48.466   7.012  17.569  0.00  0.00    +0.000 OA
ATOM      9  C   UNL     1      49.039   6.283  16.764  0.00  0.00    +0.000 C 
ATOM     10  N   UNL     1      49.054   6.535  15.416  0.00  0.00    +0.000 N 
ATOM     11  H   UNL     1      49.380   5.815  14.781  0.00  0.00    +0.000 HD
BRANCH   9  12
ATOM     12  C   UNL     1      49.801   5.109  17.200  0.00  0.00    +0.000 A 
ATOM     13  C   UNL     1      49.264   3.840  17.034  0.00  0.00    +0.000 A 
ATOM     14  S   UNL     1      50.279   2.593  17.602  0.00  0.00    +0.000 S 
ATOM     15  C   UNL     1      51.488   3.705  18.045  0.00  0.00    +0.000 A 
ATOM     16  N   UNL     1      52.668   3.278  18.573  0.00  0.00    +0.000 NA
ATOM     17  C   UNL     1      53.513   4.223  18.825  0.00  0.00    +0.000 A 
ATOM     18  N   UNL     1      53.280   5.555  18.616  0.00  0.00    +0.000 N 
ATOM     19  C   UNL     1      52.072   6.038  18.168  0.00  0.00    +0.000 A 
ATOM     20  O   UNL     1      51.844   7.244  18.139  0.00  0.00    +0.000 OA
ATOM     21  C   UNL     1      51.109   5.013  17.804  0.00  0.00    +0.000 A 
ATOM     22  H   UNL     1      53.967   6.247  18.867  0.00  0.00    +0.000 HD
ENDBRANCH   9  12
ENDBRANCH   7  10
ENDBRANCH   1   7
BRANCH   4  23
ATOM     23  C   UNL     1      45.364   5.754  10.179  0.00  0.00    +0.000 C 
BRANCH  23  24
ATOM     24  N   UNL     1      44.819   4.368  10.233  0.00  0.00    +0.000 NA
BRANCH  24  25
ATOM     25  C   UNL     1      43.599   4.319  11.078  0.00  0.00    +0.000 C 
BRANCH  25  26
ATOM     26  C   UNL     1      43.316   2.962  11.750  0.00  0.00    +0.000 C 
BRANCH  26  27
ATOM     27  O   UNL     1      44.444   2.533  12.510  0.00  0.00    +0.000 OA
ATOM     28  H   UNL     1      45.026   3.304  12.621  0.00  0.00    +0.000 HD
ENDBRANCH  26  27
ENDBRANCH  25  26
ENDBRANCH  24  25
BRANCH  24  29
ATOM     29  C   UNL     1      44.517   3.902   8.857  0.00  0.00    +0.000 C 
BRANCH  29  30
ATOM     30  C   UNL     1      45.571   3.002   8.251  0.00  0.00    +0.000 A 
ATOM     31  C   UNL     1      46.496   3.487   7.334  0.00  0.00    +0.000 A 
ATOM     32  C   UNL     1      47.415   2.603   6.788  0.00  0.00    +0.000 A 
ATOM     33  C   UNL     1      47.363   1.284   7.190  0.00  0.00    +0.000 A 
ATOM     34  N   UNL     1      46.466   0.832   8.089  0.00  0.00    +0.000 NA
ATOM     35  N   UNL     1      45.561   1.699   8.622  0.00  0.00    +0.000 NA
ENDBRANCH  29  30
ENDBRANCH  24  29
ENDBRANCH  23  24
ENDBRANCH   4  23
TORSDOF 10
ENDMDL
MODEL 7
REMARK VINA RESULT:    -6.493      2.995      3.950
REMARK INTER + INTRA:         -11.918
REMARK INTER:                 -11.193
REMARK INTRA:                  -0.725
REMARK UNBOUND:                -1.819
REMARK  Name = 
REMARK  10 active torsions:
REMARK  status: ('A' for Active; 'I' for Inactive)
REMARK    1  A    between atoms: C_2  and  C_23
REMARK    2  A    between atoms: N_3  and  C_4
REMARK    3  A    between atoms: C_4  and  C_5
REMARK    4  A    between atoms: C_8  and  C_9
REMARK    5  A    between atoms: C_9  and  N_10
REMARK    6  A    between atoms: N_10  and  C_11
REMARK    7  A    between atoms: N_10  and  C_14
REMARK    8  A    between atoms: C_11  and  C_12
REMARK    9  A    between atoms: C_12  and  O_13
REMARK   10  A    between atoms: C_14  and  C_15
REMARK                            x       y       z     vdW  Elec       q    Type
REMARK                         _______ _______ _______ _____ _____    ______ ____
ROOT
ATOM      1  C   UNL     1      47.359   4.946  15.104  0.00  0.00    +0.000 A 
ATOM      2  C   UNL     1      46.827   3.915  14.320  0.00  0.00    +0.000 A 
ATOM      3  C   UNL     1      46.460   4.155  12.998  0.00  0.00    +0.000 A 
ATOM      4  C   UNL     1      46.614   5.432  12.442  0.00  0.00    +0.000 A 
ATOM      5  C   UNL     1      47.266   6.425  13.185  0.00  0.00    +0.000 A 
ATOM      6  C   UNL     1      47.642   6.181  14.506  0.00  0.00    +0.000 A 
ENDROOT
BRANCH   1   7
ATOM      7  C   UNL     1      47.595   4.728  16.573  0.00  0.00    +0.000 C 
BRANCH   7  10
ATOM      8  O   UNL     1      49.096   2.660  17.745  0.00  0.00    +0.000 OA
ATOM      9  C   UNL     1      49.660   3.702  17.423  0.00  0.00    +0.000 C 
ATOM     10  N   UNL     1      48.988   4.777  16.899  0.00  0.00    +0.000 N 
ATOM     11  H   UNL     1      49.515   5.537  16.485  0.00  0.00    +0.000 HD
BRANCH   9  12
ATOM     12  C   UNL     1      51.098   3.891  17.631  0.00  0.00    +0.000 A 
ATOM     13  C   UNL     1      51.623   5.175  17.685  0.00  0.00    +0.000 A 
ATOM     14  S   UNL     1      53.310   5.211  17.924  0.00  0.00    +0.000 S 
ATOM     15  C   UNL     1      53.389   3.513  18.010  0.00  0.00    +0.000 A 
ATOM     16  N   UNL     1      54.571   2.881  18.245  0.00  0.00    +0.000 NA
ATOM     17  C   UNL     1      54.481   1.595  18.328  0.00  0.00    +0.000 A 
ATOM     18  N   UNL     1      53.322   0.882  18.181  0.00  0.00    +0.000 N 
ATOM     19  C   UNL     1      52.122   1.471  17.856  0.00  0.00    +0.000 A 
ATOM     20  O   UNL     1      51.138   0.791  17.578  0.00  0.00    +0.000 OA
ATOM     21  C   UNL     1      52.153   2.923  17.817  0.00  0.00    +0.000 A 
ATOM     22  H   UNL     1      53.324  -0.125  18.221  0.00  0.00    +0.000 HD
ENDBRANCH   9  12
ENDBRANCH   7  10
ENDBRANCH   1   7
BRANCH   4  23
ATOM     23  C   UNL     1      46.018   5.750  11.086  0.00  0.00    +0.000 C 
BRANCH  23  24
ATOM     24  N   UNL     1      45.139   4.664  10.565  0.00  0.00    +0.000 NA
BRANCH  24  25
ATOM     25  C   UNL     1      43.754   4.823  11.074  0.00  0.00    +0.000 C 
BRANCH  25  26
ATOM     26  C   UNL     1      43.059   3.519  11.512  0.00  0.00    +0.000 C 
BRANCH  26  27
ATOM     27  O   UNL     1      43.953   2.413  11.405  0.00  0.00    +0.000 OA
ATOM     28  H   UNL     1      43.412   1.604  11.408  0.00  0.00    +0.000 HD
ENDBRANCH  26  27
ENDBRANCH  25  26
ENDBRANCH  24  25
BRANCH  24  29
ATOM     29  C   UNL     1      45.155   4.688   9.081  0.00  0.00    +0.000 C 
BRANCH  29  30
ATOM     30  C   UNL     1      45.829   3.496   8.439  0.00  0.00    +0.000 A 
ATOM     31  C   UNL     1      46.665   3.647   7.339  0.00  0.00    +0.000 A 
ATOM     32  C   UNL     1      47.226   2.511   6.773  0.00  0.00    +0.000 A 
ATOM     33  C   UNL     1      46.924   1.289   7.338  0.00  0.00    +0.000 A 
ATOM     34  N   UNL     1      46.119   1.162   8.411  0.00  0.00    +0.000 NA
ATOM     35  N   UNL     1      45.565   2.276   8.965  0.00  0.00    +0.000 NA
ENDBRANCH  29  30
ENDBRANCH  24  29
ENDBRANCH  23  24
ENDBRANCH   4  23
TORSDOF 10
ENDMDL
MODEL 8
REMARK VINA RESULT:    -6.365      3.226      8.053
REMARK INTER + INTRA:         -11.719
REMARK INTER:                 -10.514
REMARK INTRA:                  -1.205
REMARK UNBOUND:                -1.819
REMARK  Name = 
REMARK  10 active torsions:
REMARK  status: ('A' for Active; 'I' for Inactive)
REMARK    1  A    between atoms: C_2  and  C_23
REMARK    2  A    between atoms: N_3  and  C_4
REMARK    3  A    between atoms: C_4  and  C_5
REMARK    4  A    between atoms: C_8  and  C_9
REMARK    5  A    between atoms: C_9  and  N_10
REMARK    6  A    between atoms: N_10  and  C_11
REMARK    7  A    between atoms: N_10  and  C_14
REMARK    8  A    between atoms: C_11  and  C_12
REMARK    9  A    between atoms: C_12  and  O_13
REMARK   10  A    between atoms: C_14  and  C_15
REMARK                            x       y       z     vdW  Elec       q    Type
REMARK                         _______ _______ _______ _____ _____    ______ ____
ROOT
ATOM      1  C   UNL     1      49.547   7.814  14.745  0.00  0.00    +0.000 A 
ATOM      2  C   UNL     1      48.564   8.646  15.293  0.00  0.00    +0.000 A 
ATOM      3  C   UNL     1      48.433   8.764  16.675  0.00  0.00    +0.000 A 
ATOM      4  C   UNL     1      49.280   8.046  17.529  0.00  0.00    +0.000 A 
ATOM      5  C   UNL     1      50.345   7.319  16.980  0.00  0.00    +0.000 A 
ATOM      6  C   UNL     1      50.481   7.209  15.596  0.00  0.00    +0.000 A 
ENDROOT
BRANCH   1   7
ATOM      7  C   UNL     1      49.575   7.559  13.263  0.00  0.00    +0.000 C 
BRANCH   7  10
ATOM      8  O   UNL     1      48.100   5.189  13.600  0.00  0.00    +0.000 OA
ATOM      9  C   UNL     1      47.592   6.132  12.999  0.00  0.00    +0.000 C 
ATOM     10  N   UNL     1      48.266   7.299  12.745  0.00  0.00    +0.000 N 
ATOM     11  H   UNL     1      47.752   8.105  12.411  0.00  0.00    +0.000 HD
BRANCH   9  12
ATOM     12  C   UNL     1      46.232   6.052  12.458  0.00  0.00    +0.000 A 
ATOM     13  C   UNL     1      45.623   7.194  11.956  0.00  0.00    +0.000 A 
ATOM     14  S   UNL     1      44.044   6.923  11.375  0.00  0.00    +0.000 S 
ATOM     15  C   UNL     1      44.139   5.262  11.731  0.00  0.00    +0.000 A 
ATOM     16  N   UNL     1      43.107   4.425  11.437  0.00  0.00    +0.000 NA
ATOM     17  C   UNL     1      43.328   3.184  11.720  0.00  0.00    +0.000 A 
ATOM     18  N   UNL     1      44.478   2.705  12.288  0.00  0.00    +0.000 N 
ATOM     19  C   UNL     1      45.510   3.526  12.682  0.00  0.00    +0.000 A 
ATOM     20  O   UNL     1      46.457   3.084  13.328  0.00  0.00    +0.000 OA
ATOM     21  C   UNL     1      45.342   4.923  12.324  0.00  0.00    +0.000 A 
ATOM     22  H   UNL     1      44.574   1.730  12.519  0.00  0.00    +0.000 HD
ENDBRANCH   9  12
ENDBRANCH   7  10
ENDBRANCH   1   7
BRANCH   4  23
ATOM     23  C   UNL     1      49.003   8.001  19.017  0.00  0.00    +0.000 C 
BRANCH  23  24
ATOM     24  N   UNL     1      49.140   6.634  19.596  0.00  0.00    +0.000 NA
BRANCH  24  25
ATOM     25  C   UNL     1      49.493   6.709  21.036  0.00  0.00    +0.000 C 
BRANCH  25  26
ATOM     26  C   UNL     1      49.631   5.352  21.752  0.00  0.00    +0.000 C 
BRANCH  26  27
ATOM     27  O   UNL     1      50.662   4.570  21.151  0.00  0.00    +0.000 OA
ATOM     28  H   UNL     1      51.032   5.095  20.420  0.00  0.00    +0.000 HD
ENDBRANCH  26  27
ENDBRANCH  25  26
ENDBRANCH  24  25
BRANCH  24  29
ATOM     29  C   UNL     1      47.870   5.889  19.408  0.00  0.00    +0.000 C 
BRANCH  29  30
ATOM     30  C   UNL     1      47.949   4.748  18.418  0.00  0.00    +0.000 A 
ATOM     31  C   UNL     1      49.145   4.082  18.178  0.00  0.00    +0.000 A 
ATOM     32  C   UNL     1      49.159   3.067  17.232  0.00  0.00    +0.000 A 
ATOM     33  C   UNL     1      47.979   2.772  16.581  0.00  0.00    +0.000 A 
ATOM     34  N   UNL     1      46.826   3.421  16.833  0.00  0.00    +0.000 NA
ATOM     35  N   UNL     1      46.812   4.420  17.759  0.00  0.00    +0.000 NA
ENDBRANCH  29  30
ENDBRANCH  24  29
ENDBRANCH  23  24
ENDBRANCH   4  23
TORSDOF 10
ENDMDL
MODEL 9
REMARK VINA RESULT:    -6.155      4.024      9.384
REMARK INTER + INTRA:         -11.392
REMARK INTER:                 -10.096
REMARK INTRA:                  -1.295
REMARK UNBOUND:                -1.819
REMARK  Name = 
REMARK  10 active torsions:
REMARK  status: ('A' for Active; 'I' for Inactive)
REMARK    1  A    between atoms: C_2  and  C_23
REMARK    2  A    between atoms: N_3  and  C_4
REMARK    3  A    between atoms: C_4  and  C_5
REMARK    4  A    between atoms: C_8  and  C_9
REMARK    5  A    between atoms: C_9  and  N_10
REMARK    6  A    between atoms: N_10  and  C_11
REMARK    7  A    between atoms: N_10  and  C_14
REMARK    8  A    between atoms: C_11  and  C_12
REMARK    9  A    between atoms: C_12  and  O_13
REMARK   10  A    between atoms: C_14  and  C_15
REMARK                            x       y       z     vdW  Elec       q    Type
REMARK                         _______ _______ _______ _____ _____    ______ ____
ROOT
ATOM      1  C   UNL     1      48.524   3.794  17.473  0.00  0.00    +0.000 A 
ATOM      2  C   UNL     1      49.628   2.955  17.281  0.00  0.00    +0.000 A 
ATOM      3  C   UNL     1      50.890   3.341  17.727  0.00  0.00    +0.000 A 
ATOM      4  C   UNL     1      51.068   4.575  18.366  0.00  0.00    +0.000 A 
ATOM      5  C   UNL     1      49.943   5.352  18.673  0.00  0.00    +0.000 A 
ATOM      6  C   UNL     1      48.677   4.960  18.235  0.00  0.00    +0.000 A 
ENDROOT
BRANCH   1   7
ATOM      7  C   UNL     1      47.202   3.452  16.843  0.00  0.00    +0.000 C 
BRANCH   7  10
ATOM      8  O   UNL     1      47.245   3.105  14.053  0.00  0.00    +0.000 OA
ATOM      9  C   UNL     1      46.816   4.157  14.521  0.00  0.00    +0.000 C 
ATOM     10  N   UNL     1      46.814   4.423  15.866  0.00  0.00    +0.000 N 
ATOM     11  H   UNL     1      46.289   5.218  16.213  0.00  0.00    +0.000 HD
BRANCH   9  12
ATOM     12  C   UNL     1      46.320   5.233  13.658  0.00  0.00    +0.000 A 
ATOM     13  C   UNL     1      47.105   6.357  13.441  0.00  0.00    +0.000 A 
ATOM     14  S   UNL     1      46.373   7.510  12.421  0.00  0.00    +0.000 S 
ATOM     15  C   UNL     1      45.004   6.525  12.197  0.00  0.00    +0.000 A 
ATOM     16  N   UNL     1      43.988   6.917  11.382  0.00  0.00    +0.000 NA
ATOM     17  C   UNL     1      43.031   6.056  11.269  0.00  0.00    +0.000 A 
ATOM     18  N   UNL     1      42.988   4.848  11.910  0.00  0.00    +0.000 N 
ATOM     19  C   UNL     1      43.949   4.449  12.811  0.00  0.00    +0.000 A 
ATOM     20  O   UNL     1      43.802   3.433  13.484  0.00  0.00    +0.000 OA
ATOM     21  C   UNL     1      45.083   5.350  12.923  0.00  0.00    +0.000 A 
ATOM     22  H   UNL     1      42.195   4.235  11.809  0.00  0.00    +0.000 HD
ENDBRANCH   9  12
ENDBRANCH   7  10
ENDBRANCH   1   7
BRANCH   4  23
ATOM     23  C   UNL     1      52.462   5.091  18.654  0.00  0.00    +0.000 C 
BRANCH  23  24
ATOM     24  N   UNL     1      53.527   4.322  17.949  0.00  0.00    +0.000 NA
BRANCH  24  25
ATOM     25  C   UNL     1      54.447   5.240  17.232  0.00  0.00    +0.000 C 
BRANCH  25  26
ATOM     26  C   UNL     1      53.835   6.589  16.808  0.00  0.00    +0.000 C 
BRANCH  26  27
ATOM     27  O   UNL     1      53.221   6.480  15.525  0.00  0.00    +0.000 OA
ATOM     28  H   UNL     1      53.705   7.073  14.924  0.00  0.00    +0.000 HD
ENDBRANCH  26  27
ENDBRANCH  25  26
ENDBRANCH  24  25
BRANCH  24  29
ATOM     29  C   UNL     1      54.274   3.500  18.933  0.00  0.00    +0.000 C 
BRANCH  29  30
ATOM     30  C   UNL     1      54.267   2.014  18.648  0.00  0.00    +0.000 A 
ATOM     31  C   UNL     1      54.007   1.526  17.373  0.00  0.00    +0.000 A 
ATOM     32  C   UNL     1      53.980   0.152  17.183  0.00  0.00    +0.000 A 
ATOM     33  C   UNL     1      54.216  -0.658  18.274  0.00  0.00    +0.000 A 
ATOM     34  N   UNL     1      54.477  -0.167  19.502  0.00  0.00    +0.000 NA
ATOM     35  N   UNL     1      54.500   1.181  19.690  0.00  0.00    +0.000 NA
ENDBRANCH  29  30
ENDBRANCH  24  29
ENDBRANCH  23  24
ENDBRANCH   4  23
TORSDOF 10
ENDMDL
