MODEL 1
REMARK VINA RESULT:    -7.598      0.000      0.000
REMARK INTER + INTRA:         -12.738
REMARK INTER:                 -11.595
REMARK INTRA:                  -1.143
REMARK UNBOUND:                -1.143
REMARK  Name = 
REMARK  9 active torsions:
REMARK  status: ('A' for Active; 'I' for Inactive)
REMARK    1  A    between atoms: C_2  and  C_3
REMARK    2  A    between atoms: C_3  and  C_4
REMARK    3  A    between atoms: C_3  and  N_11
REMARK    4  A    between atoms: C_4  and  C_5
REMARK    5  A    between atoms: N_11  and  C_12
REMARK    6  A    between atoms: C_12  and  C_13
REMARK    7  A    between atoms: C_16  and  C_17
REMARK    8  A    between atoms: C_17  and  N_18
REMARK    9  A    between atoms: C_19  and  C_21
REMARK                            x       y       z     vdW  Elec       q    Type
REMARK                         _______ _______ _______ _____ _____    ______ ____
ROOT
ATOM      1  C   UNL     1      46.589   5.083  13.385  0.00  0.00    +0.000 A 
ATOM      2  C   UNL     1      47.212   6.292  13.046  0.00  0.00    +0.000 A 
ATOM      3  C   UNL     1      48.096   6.916  13.932  0.00  0.00    +0.000 A 
ATOM      4  C   UNL     1      48.367   6.348  15.183  0.00  0.00    +0.000 A 
ATOM      5  C   UNL     1      47.689   5.180  15.554  0.00  0.00    +0.000 A 
ATOM      6  C   UNL     1      46.818   4.547  14.661  0.00  0.00    +0.000 A 
ENDROOT
BRANCH   1   7
ATOM      7  C   UNL     1      45.695   4.368  12.395  0.00  0.00    +0.000 C 
BRANCH   7   8
ATOM      8  N   UNL     1      45.619   5.105  11.126  0.00  0.00    +0.000 NA
ATOM      9  H   UNL     1      45.726   6.100  11.314  0.00  0.00    +0.000 HD
BRANCH   8  10
ATOM     10  C   UNL     1      44.352   4.873  10.390  0.00  0.00    +0.000 C 
BRANCH  10  12
ATOM     11  N   UNL     1      42.216   5.453  11.837  0.00  0.00    +0.000 NA
ATOM     12  C   UNL     1      43.160   5.200  11.213  0.00  0.00    +0.000 C 
ENDBRANCH  10  12
BRANCH  10  13
ATOM     13  C   UNL     1      44.307   3.384   9.947  0.00  0.00    +0.000 C 
BRANCH  13  14
ATOM     14  C   UNL     1      45.260   3.012   8.830  0.00  0.00    +0.000 A 
ATOM     15  C   UNL     1      45.696   3.939   7.880  0.00  0.00    +0.000 A 
ATOM     16  C   UNL     1      46.555   3.507   6.876  0.00  0.00    +0.000 A 
ATOM     17  N   UNL     1      46.997   2.237   6.754  0.00  0.00    +0.000 NA
ATOM     18  C   UNL     1      46.570   1.358   7.683  0.00  0.00    +0.000 A 
ATOM     19  C   UNL     1      45.723   1.694   8.726  0.00  0.00    +0.000 A 
ENDBRANCH  13  14
ENDBRANCH  10  13
ENDBRANCH   8  10
ENDBRANCH   7   8
ENDBRANCH   1   7
BRANCH   4  20
ATOM     20  C   UNL     1      49.362   6.977  16.124  0.00  0.00    +0.000 C 
BRANCH  20  21
ATOM     21  N   UNL     1      50.350   6.028  16.560  0.00  0.00    +0.000 N 
ATOM     22  C   UNL     1      50.606   5.827  17.893  0.00  0.00    +0.000 C 
ATOM     23  O   UNL     1      49.992   6.420  18.776  0.00  0.00    +0.000 OA
ATOM     24  H   UNL     1      51.045   5.743  15.878  0.00  0.00    +0.000 HD
BRANCH  22  25
ATOM     25  C   UNL     1      51.613   4.806  18.210  0.00  0.00    +0.000 A 
ATOM     26  C   UNL     1      52.784   5.170  18.863  0.00  0.00    +0.000 A 
ATOM     27  S   UNL     1      53.818   3.854  19.189  0.00  0.00    +0.000 S 
ATOM     28  C   UNL     1      52.760   2.760  18.427  0.00  0.00    +0.000 A 
ATOM     29  N   UNL     1      53.067   1.439  18.326  0.00  0.00    +0.000 NA
ATOM     30  C   UNL     1      52.188   0.728  17.706  0.00  0.00    +0.000 A 
ATOM     31  N   UNL     1      51.019   1.225  17.178  0.00  0.00    +0.000 N 
ATOM     32  C   UNL     1      50.652   2.542  17.287  0.00  0.00    +0.000 A 
ATOM     33  O   UNL     1      49.572   2.935  16.857  0.00  0.00    +0.000 OA
ATOM     34  C   UNL     1      51.620   3.387  17.956  0.00  0.00    +0.000 A 
ATOM     35  H   UNL     1      50.363   0.611  16.715  0.00  0.00    +0.000 HD
ENDBRANCH  22  25
ENDBRANCH  20  21
ENDBRANCH   4  20
TORSDOF 9
ENDMDL
MODEL 2
REMARK VINA RESULT:    -7.445      4.213      9.481
REMARK INTER + INTRA:         -12.505
REMARK INTER:                  -9.645
REMARK INTRA:                  -2.860
REMARK UNBOUND:                -1.143
REMARK  Name = 
REMARK  9 active torsions:
REMARK  status: ('A' for Active; 'I' for Inactive)
REMARK    1  A    between atoms: C_2  and  C_3
REMARK    2  A    between atoms: C_3  and  C_4
REMARK    3  A    between atoms: C_3  and  N_11
REMARK    4  A    between atoms: C_4  and  C_5
REMARK    5  A    between atoms: N_11  and  C_12
REMARK    6  A    between atoms: C_12  and  C_13
REMARK    7  A    between atoms: C_16  and  C_17
REMARK    8  A    between atoms: C_17  and  N_18
REMARK    9  A    between atoms: C_19  and  C_21
REMARK                            x       y       z     vdW  Elec       q    Type
REMARK                         _______ _______ _______ _____ _____    ______ ____
ROOT
ATOM      1  C   UNL     1      48.207   5.408  20.282  0.00  0.00    +0.000 A 
ATOM      2  C   UNL     1      48.931   4.268  19.903  0.00  0.00    +0.000 A 
ATOM      3  C   UNL     1      48.708   3.657  18.665  0.00  0.00    +0.000 A 
ATOM      4  C   UNL     1      47.746   4.166  17.784  0.00  0.00    +0.000 A 
ATOM      5  C   UNL     1      46.970   5.258  18.192  0.00  0.00    +0.000 A 
ATOM      6  C   UNL     1      47.205   5.881  19.423  0.00  0.00    +0.000 A 
ENDROOT
BRANCH   1   7
ATOM      7  C   UNL     1      48.505   6.115  21.587  0.00  0.00    +0.000 C 
BRANCH   7   8
ATOM      8  N   UNL     1      48.881   7.516  21.353  0.00  0.00    +0.000 NA
ATOM      9  H   UNL     1      48.122   7.986  20.865  0.00  0.00    +0.000 HD
BRANCH   8  10
ATOM     10  C   UNL     1      50.136   7.663  20.576  0.00  0.00    +0.000 C 
BRANCH  10  12
ATOM     11  N   UNL     1      52.098   8.650  22.048  0.00  0.00    +0.000 NA
ATOM     12  C   UNL     1      51.237   8.228  21.396  0.00  0.00    +0.000 C 
ENDBRANCH  10  12
BRANCH  10  13
ATOM     13  C   UNL     1      49.852   8.580  19.353  0.00  0.00    +0.000 C 
BRANCH  13  14
ATOM     14  C   UNL     1      49.783   7.872  18.016  0.00  0.00    +0.000 A 
ATOM     15  C   UNL     1      48.877   8.244  17.019  0.00  0.00    +0.000 A 
ATOM     16  C   UNL     1      48.868   7.527  15.829  0.00  0.00    +0.000 A 
ATOM     17  N   UNL     1      49.681   6.480  15.571  0.00  0.00    +0.000 NA
ATOM     18  C   UNL     1      50.551   6.138  16.542  0.00  0.00    +0.000 A 
ATOM     19  C   UNL     1      50.644   6.798  17.756  0.00  0.00    +0.000 A 
ENDBRANCH  13  14
ENDBRANCH  10  13
ENDBRANCH   8  10
ENDBRANCH   7   8
ENDBRANCH   1   7
BRANCH   4  20
ATOM     20  C   UNL     1      47.535   3.553  16.423  0.00  0.00    +0.000 C 
BRANCH  20  21
ATOM     21  N   UNL     1      46.944   4.492  15.508  0.00  0.00    +0.000 N 
ATOM     22  C   UNL     1      46.822   4.203  14.172  0.00  0.00    +0.000 C 
ATOM     23  O   UNL     1      47.182   3.129  13.697  0.00  0.00    +0.000 OA
ATOM     24  H   UNL     1      46.900   5.459  15.807  0.00  0.00    +0.000 HD
BRANCH  22  25
ATOM     25  C   UNL     1      46.170   5.228  13.347  0.00  0.00    +0.000 A 
ATOM     26  C   UNL     1      46.836   6.414  13.065  0.00  0.00    +0.000 A 
ATOM     27  S   UNL     1      45.950   7.470  12.061  0.00  0.00    +0.000 S 
ATOM     28  C   UNL     1      44.627   6.401  12.008  0.00  0.00    +0.000 A 
ATOM     29  N   UNL     1      43.493   6.717  11.326  0.00  0.00    +0.000 NA
ATOM     30  C   UNL     1      42.562   5.828  11.388  0.00  0.00    +0.000 A 
ATOM     31  N   UNL     1      42.667   4.639  12.073  0.00  0.00    +0.000 N 
ATOM     32  C   UNL     1      43.802   4.263  12.744  0.00  0.00    +0.000 A 
ATOM     33  O   UNL     1      43.880   3.167  13.291  0.00  0.00    +0.000 OA
ATOM     34  C   UNL     1      44.870   5.242  12.723  0.00  0.00    +0.000 A 
ATOM     35  H   UNL     1      41.905   3.976  12.069  0.00  0.00    +0.000 HD
ENDBRANCH  22  25
ENDBRANCH  20  21
ENDBRANCH   4  20
TORSDOF 9
ENDMDL
MODEL 3
REMARK VINA RESULT:    -7.440      2.612      3.371
REMARK INTER + INTRA:         -12.498
REMARK INTER:                 -11.742
REMARK INTRA:                  -0.755
REMARK UNBOUND:                -1.143
REMARK  Name = 
REMARK  9 active torsions:
REMARK  status: ('A' for Active; 'I' for Inactive)
REMARK    1  A    between atoms: C_2  and  C_3
REMARK    2  A    between atoms: C_3  and  C_4
REMARK    3  A    between atoms: C_3  and  N_11
REMARK    4  A    between atoms: C_4  and  C_5
REMARK    5  A    between atoms: N_11  and  C_12
REMARK    6  A    between atoms: C_12  and  C_13
REMARK    7  A    between atoms: C_16  and  C_17
REMARK    8  A    between atoms: C_17  and  N_18
REMARK    9  A    between atoms: C_19  and  C_21
REMARK                            x       y       z     vdW  Elec       q    Type
REMARK                         _______ _______ _______ _____ _____    ______ ____
ROOT
ATOM      1  C   UNL     1      44.218   5.787  11.729  0.00  0.00    +0.000 A 
ATOM      2  C   UNL     1      44.278   7.157  11.436  0.00  0.00    +0.000 A 
ATOM      3  C   UNL     1      45.258   7.971  12.013  0.00  0.00    +0.000 A 
ATOM      4  C   UNL     1      46.193   7.433  12.907  0.00  0.00    +0.000 A 
ATOM      5  C   UNL     1      46.088   6.081  13.258  0.00  0.00    +0.000 A 
ATOM      6  C   UNL     1      45.118   5.263  12.667  0.00  0.00    +0.000 A 
ENDROOT
BRANCH   1   7
ATOM      7  C   UNL     1      43.208   4.893  11.042  0.00  0.00    +0.000 C 
BRANCH   7   8
ATOM      8  N   UNL     1      43.453   4.834   9.595  0.00  0.00    +0.000 NA
ATOM      9  H   UNL     1      42.685   4.337   9.148  0.00  0.00    +0.000 HD
BRANCH   8  10
ATOM     10  C   UNL     1      44.737   4.179   9.246  0.00  0.00    +0.000 C 
BRANCH  10  12
ATOM     11  N   UNL     1      46.707   5.934   9.059  0.00  0.00    +0.000 NA
ATOM     12  C   UNL     1      45.850   5.155   9.135  0.00  0.00    +0.000 C 
ENDBRANCH  10  12
BRANCH  10  13
ATOM     13  C   UNL     1      44.552   3.421   7.901  0.00  0.00    +0.000 C 
BRANCH  13  14
ATOM     14  C   UNL     1      45.795   2.738   7.367  0.00  0.00    +0.000 A 
ATOM     15  C   UNL     1      46.494   3.220   6.258  0.00  0.00    +0.000 A 
ATOM     16  C   UNL     1      47.613   2.520   5.823  0.00  0.00    +0.000 A 
ATOM     17  N   UNL     1      48.071   1.391   6.404  0.00  0.00    +0.000 NA
ATOM     18  C   UNL     1      47.387   0.944   7.477  0.00  0.00    +0.000 A 
ATOM     19  C   UNL     1      46.268   1.577   7.991  0.00  0.00    +0.000 A 
ENDBRANCH  13  14
ENDBRANCH  10  13
ENDBRANCH   8  10
ENDBRANCH   7   8
ENDBRANCH   1   7
BRANCH   4  20
ATOM     20  C   UNL     1      47.290   8.284  13.491  0.00  0.00    +0.000 C 
BRANCH  20  21
ATOM     21  N   UNL     1      47.668   7.831  14.803  0.00  0.00    +0.000 N 
ATOM     22  C   UNL     1      48.824   7.121  15.006  0.00  0.00    +0.000 C 
ATOM     23  O   UNL     1      49.604   6.862  14.093  0.00  0.00    +0.000 OA
ATOM     24  H   UNL     1      46.934   7.784  15.501  0.00  0.00    +0.000 HD
BRANCH  22  25
ATOM     25  C   UNL     1      49.115   6.746  16.395  0.00  0.00    +0.000 A 
ATOM     26  C   UNL     1      49.764   7.645  17.232  0.00  0.00    +0.000 A 
ATOM     27  S   UNL     1      49.981   7.062  18.820  0.00  0.00    +0.000 S 
ATOM     28  C   UNL     1      49.260   5.570  18.432  0.00  0.00    +0.000 A 
ATOM     29  N   UNL     1      49.152   4.579  19.356  0.00  0.00    +0.000 NA
ATOM     30  C   UNL     1      48.606   3.495  18.922  0.00  0.00    +0.000 A 
ATOM     31  N   UNL     1      48.149   3.315  17.637  0.00  0.00    +0.000 N 
ATOM     32  C   UNL     1      48.204   4.299  16.682  0.00  0.00    +0.000 A 
ATOM     33  O   UNL     1      47.730   4.122  15.564  0.00  0.00    +0.000 OA
ATOM     34  C   UNL     1      48.833   5.530  17.116  0.00  0.00    +0.000 A 
ATOM     35  H   UNL     1      47.715   2.445  17.363  0.00  0.00    +0.000 HD
ENDBRANCH  22  25
ENDBRANCH  20  21
ENDBRANCH   4  20
TORSDOF 9
ENDMDL
MODEL 4
REMARK VINA RESULT:    -7.405      3.788      8.746
REMARK INTER + INTRA:         -12.445
REMARK INTER:                 -10.721
REMARK INTRA:                  -1.723
REMARK UNBOUND:                -1.143
REMARK  Name = 
REMARK  9 active torsions:
REMARK  status: ('A' for Active; 'I' for Inactive)
REMARK    1  A    between atoms: C_2  and  C_3
REMARK    2  A    between atoms: C_3  and  C_4
REMARK    3  A    between atoms: C_3  and  N_11
REMARK    4  A    between atoms: C_4  and  C_5
REMARK    5  A    between atoms: N_11  and  C_12
REMARK    6  A    between atoms: C_12  and  C_13
REMARK    7  A    between atoms: C_16  and  C_17
REMARK    8  A    between atoms: C_17  and  N_18
REMARK    9  A    between atoms: C_19  and  C_21
REMARK                            x       y       z     vdW  Elec       q    Type
REMARK                         _______ _______ _______ _____ _____    ______ ____
ROOT
ATOM      1  C   UNL     1      48.844   7.753  16.204  0.00  0.00    +0.000 A 
ATOM      2  C   UNL     1      48.332   8.952  15.688  0.00  0.00    +0.000 A 
ATOM      3  C   UNL     1      48.140   9.116  14.312  0.00  0.00    +0.000 A 
ATOM      4  C   UNL     1      48.468   8.087  13.421  0.00  0.00    +0.000 A 
ATOM      5  C   UNL     1      49.049   6.918  13.928  0.00  0.00    +0.000 A 
ATOM      6  C   UNL     1      49.224   6.746  15.305  0.00  0.00    +0.000 A 
ENDROOT
BRANCH   1   7
ATOM      7  C   UNL     1      48.975   7.547  17.698  0.00  0.00    +0.000 C 
BRANCH   7   8
ATOM      8  N   UNL     1      47.710   7.078  18.279  0.00  0.00    +0.000 NA
ATOM      9  H   UNL     1      47.371   7.773  18.941  0.00  0.00    +0.000 HD
BRANCH   8  10
ATOM     10  C   UNL     1      47.829   5.764  18.956  0.00  0.00    +0.000 C 
BRANCH  10  12
ATOM     11  N   UNL     1      47.335   5.921  21.550  0.00  0.00    +0.000 NA
ATOM     12  C   UNL     1      47.561   5.861  20.414  0.00  0.00    +0.000 C 
ENDBRANCH  10  12
BRANCH  10  13
ATOM     13  C   UNL     1      49.261   5.212  18.709  0.00  0.00    +0.000 C 
BRANCH  13  14
ATOM     14  C   UNL     1      49.338   3.989  17.819  0.00  0.00    +0.000 A 
ATOM     15  C   UNL     1      48.264   3.570  17.030  0.00  0.00    +0.000 A 
ATOM     16  C   UNL     1      48.414   2.425  16.258  0.00  0.00    +0.000 A 
ATOM     17  N   UNL     1      49.539   1.678  16.223  0.00  0.00    +0.000 NA
ATOM     18  C   UNL     1      50.567   2.101  16.987  0.00  0.00    +0.000 A 
ATOM     19  C   UNL     1      50.517   3.234  17.781  0.00  0.00    +0.000 A 
ENDBRANCH  13  14
ENDBRANCH  10  13
ENDBRANCH   8  10
ENDBRANCH   7   8
ENDBRANCH   1   7
BRANCH   4  20
ATOM     20  C   UNL     1      48.213   8.227  11.942  0.00  0.00    +0.000 C 
BRANCH  20  21
ATOM     21  N   UNL     1      47.539   7.072  11.412  0.00  0.00    +0.000 N 
ATOM     22  C   UNL     1      46.169   6.995  11.391  0.00  0.00    +0.000 C 
ATOM     23  O   UNL     1      45.454   7.909  11.794  0.00  0.00    +0.000 OA
ATOM     24  H   UNL     1      48.080   6.219  11.338  0.00  0.00    +0.000 HD
BRANCH  22  25
ATOM     25  C   UNL     1      45.601   5.781  10.792  0.00  0.00    +0.000 A 
ATOM     26  C   UNL     1      45.789   5.524   9.440  0.00  0.00    +0.000 A 
ATOM     27  S   UNL     1      45.101   4.051   8.924  0.00  0.00    +0.000 S 
ATOM     28  C   UNL     1      44.486   3.730  10.478  0.00  0.00    +0.000 A 
ATOM     29  N   UNL     1      43.750   2.613  10.726  0.00  0.00    +0.000 NA
ATOM     30  C   UNL     1      43.328   2.505  11.939  0.00  0.00    +0.000 A 
ATOM     31  N   UNL     1      43.582   3.419  12.935  0.00  0.00    +0.000 N 
ATOM     32  C   UNL     1      44.348   4.541  12.740  0.00  0.00    +0.000 A 
ATOM     33  O   UNL     1      44.605   5.301  13.669  0.00  0.00    +0.000 OA
ATOM     34  C   UNL     1      44.826   4.718  11.383  0.00  0.00    +0.000 A 
ATOM     35  H   UNL     1      43.235   3.268  13.872  0.00  0.00    +0.000 HD
ENDBRANCH  22  25
ENDBRANCH  20  21
ENDBRANCH   4  20
TORSDOF 9
ENDMDL
MODEL 5
REMARK VINA RESULT:    -7.402      3.708      8.940
REMARK INTER + INTRA:         -12.440
REMARK INTER:                 -10.580
REMARK INTRA:                  -1.860
REMARK UNBOUND:                -1.143
REMARK  Name = 
REMARK  9 active torsions:
REMARK  status: ('A' for Active; 'I' for Inactive)
REMARK    1  A    between atoms: C_2  and  C_3
REMARK    2  A    between atoms: C_3  and  C_4
REMARK    3  A    between atoms: C_3  and  N_11
REMARK    4  A    between atoms: C_4  and  C_5
REMARK    5  A    between atoms: N_11  and  C_12
REMARK    6  A    between atoms: C_12  and  C_13
REMARK    7  A    between atoms: C_16  and  C_17
REMARK    8  A    between atoms: C_17  and  N_18
REMARK    9  A    between atoms: C_19  and  C_21
REMARK                            x       y       z     vdW  Elec       q    Type
REMARK                         _______ _______ _______ _____ _____    ______ ____
ROOT
ATOM      1  C   UNL     1      49.132   7.895  16.095  0.00  0.00    +0.000 A 
ATOM      2  C   UNL     1      48.195   8.832  15.637  0.00  0.00    +0.000 A 
ATOM      3  C   UNL     1      47.741   8.804  14.314  0.00  0.00    +0.000 A 
ATOM      4  C   UNL     1      48.225   7.843  13.417  0.00  0.00    +0.000 A 
ATOM      5  C   UNL     1      49.215   6.954  13.852  0.00  0.00    +0.000 A 
ATOM      6  C   UNL     1      49.656   6.971  15.180  0.00  0.00    +0.000 A 
ENDROOT
BRANCH   1   7
ATOM      7  C   UNL     1      49.561   7.876  17.546  0.00  0.00    +0.000 C 
BRANCH   7   8
ATOM      8  N   UNL     1      48.407   7.690  18.436  0.00  0.00    +0.000 NA
ATOM      9  H   UNL     1      48.549   8.237  19.282  0.00  0.00    +0.000 HD
BRANCH   8  10
ATOM     10  C   UNL     1      48.169   6.271  18.796  0.00  0.00    +0.000 C 
BRANCH  10  12
ATOM     11  N   UNL     1      47.295   6.032  21.281  0.00  0.00    +0.000 NA
ATOM     12  C   UNL     1      47.677   6.124  20.189  0.00  0.00    +0.000 C 
ENDBRANCH  10  12
BRANCH  10  13
ATOM     13  C   UNL     1      49.498   5.488  18.611  0.00  0.00    +0.000 C 
BRANCH  13  14
ATOM     14  C   UNL     1      49.399   4.237  17.761  0.00  0.00    +0.000 A 
ATOM     15  C   UNL     1      48.276   3.952  16.981  0.00  0.00    +0.000 A 
ATOM     16  C   UNL     1      48.260   2.771  16.247  0.00  0.00    +0.000 A 
ATOM     17  N   UNL     1      49.267   1.871  16.242  0.00  0.00    +0.000 NA
ATOM     18  C   UNL     1      50.344   2.166  16.996  0.00  0.00    +0.000 A 
ATOM     19  C   UNL     1      50.458   3.321  17.753  0.00  0.00    +0.000 A 
ENDBRANCH  13  14
ENDBRANCH  10  13
ENDBRANCH   8  10
ENDBRANCH   7   8
ENDBRANCH   1   7
BRANCH   4  20
ATOM     20  C   UNL     1      47.702   7.763  12.006  0.00  0.00    +0.000 C 
BRANCH  20  21
ATOM     21  N   UNL     1      46.986   6.537  11.777  0.00  0.00    +0.000 N 
ATOM     22  C   UNL     1      45.624   6.469  11.931  0.00  0.00    +0.000 C 
ATOM     23  O   UNL     1      44.949   7.446  12.242  0.00  0.00    +0.000 OA
ATOM     24  H   UNL     1      47.527   5.680  11.796  0.00  0.00    +0.000 HD
BRANCH  22  25
ATOM     25  C   UNL     1      45.007   5.170  11.634  0.00  0.00    +0.000 A 
ATOM     26  C   UNL     1      44.299   4.499  12.624  0.00  0.00    +0.000 A 
ATOM     27  S   UNL     1      43.613   3.030  12.093  0.00  0.00    +0.000 S 
ATOM     28  C   UNL     1      44.279   3.216  10.538  0.00  0.00    +0.000 A 
ATOM     29  N   UNL     1      44.096   2.271   9.577  0.00  0.00    +0.000 NA
ATOM     30  C   UNL     1      44.673   2.527   8.453  0.00  0.00    +0.000 A 
ATOM     31  N   UNL     1      45.419   3.656   8.202  0.00  0.00    +0.000 N 
ATOM     32  C   UNL     1      45.601   4.651   9.128  0.00  0.00    +0.000 A 
ATOM     33  O   UNL     1      46.221   5.672   8.846  0.00  0.00    +0.000 OA
ATOM     34  C   UNL     1      44.990   4.396  10.418  0.00  0.00    +0.000 A 
ATOM     35  H   UNL     1      45.833   3.806   7.292  0.00  0.00    +0.000 HD
ENDBRANCH  22  25
ENDBRANCH  20  21
ENDBRANCH   4  20
TORSDOF 9
ENDMDL
MODEL 6
REMARK VINA RESULT:    -7.297      2.642      3.501
REMARK INTER + INTRA:         -12.279
REMARK INTER:                 -11.280
REMARK INTRA:                  -0.999
REMARK UNBOUND:                -1.143
REMARK  Name = 
REMARK  9 active torsions:
REMARK  status: ('A' for Active; 'I' for Inactive)
REMARK    1  A    between atoms: C_2  and  C_3
REMARK    2  A    between atoms: C_3  and  C_4
REMARK    3  A    between atoms: C_3  and  N_11
REMARK    4  A    between atoms: C_4  and  C_5
REMARK    5  A    between atoms: N_11  and  C_12
REMARK    6  A    between atoms: C_12  and  C_13
REMARK    7  A    between atoms: C_16  and  C_17
REMARK    8  A    between atoms: C_17  and  N_18
REMARK    9  A    between atoms: C_19  and  C_21
REMARK                            x       y       z     vdW  Elec       q    Type
REMARK                         _______ _______ _______ _____ _____    ______ ____
ROOT
ATOM      1  C   UNL     1      44.653   5.723  11.536  0.00  0.00    +0.000 A 
ATOM      2  C   UNL     1      45.717   6.345  10.865  0.00  0.00    +0.000 A 
ATOM      3  C   UNL     1      46.908   6.644  11.533  0.00  0.00    +0.000 A 
ATOM      4  C   UNL     1      47.057   6.338  12.892  0.00  0.00    +0.000 A 
ATOM      5  C   UNL     1      45.970   5.785  13.581  0.00  0.00    +0.000 A 
ATOM      6  C   UNL     1      44.785   5.469  12.908  0.00  0.00    +0.000 A 
ENDROOT
BRANCH   1   7
ATOM      7  C   UNL     1      43.396   5.327  10.792  0.00  0.00    +0.000 C 
BRANCH   7   8
ATOM      8  N   UNL     1      43.720   4.652   9.529  0.00  0.00    +0.000 NA
ATOM      9  H   UNL     1      42.939   4.759   8.885  0.00  0.00    +0.000 HD
BRANCH   8  10
ATOM     10  C   UNL     1      44.030   3.211   9.697  0.00  0.00    +0.000 C 
BRANCH  10  12
ATOM     11  N   UNL     1      43.077   2.232  11.962  0.00  0.00    +0.000 NA
ATOM     12  C   UNL     1      43.499   2.672  10.975  0.00  0.00    +0.000 C 
ENDBRANCH  10  12
BRANCH  10  13
ATOM     13  C   UNL     1      45.572   3.030   9.638  0.00  0.00    +0.000 C 
BRANCH  13  14
ATOM     14  C   UNL     1      46.129   2.664   8.277  0.00  0.00    +0.000 A 
ATOM     15  C   UNL     1      46.563   1.372   7.970  0.00  0.00    +0.000 A 
ATOM     16  C   UNL     1      47.079   1.129   6.703  0.00  0.00    +0.000 A 
ATOM     17  N   UNL     1      47.194   2.069   5.740  0.00  0.00    +0.000 NA
ATOM     18  C   UNL     1      46.765   3.308   6.053  0.00  0.00    +0.000 A 
ATOM     19  C   UNL     1      46.227   3.646   7.284  0.00  0.00    +0.000 A 
ENDBRANCH  13  14
ENDBRANCH  10  13
ENDBRANCH   8  10
ENDBRANCH   7   8
ENDBRANCH   1   7
BRANCH   4  20
ATOM     20  C   UNL     1      48.355   6.601  13.611  0.00  0.00    +0.000 C 
BRANCH  20  21
ATOM     21  N   UNL     1      48.180   6.586  15.038  0.00  0.00    +0.000 N 
ATOM     22  C   UNL     1      49.069   7.219  15.871  0.00  0.00    +0.000 C 
ATOM     23  O   UNL     1      50.035   7.847  15.445  0.00  0.00    +0.000 OA
ATOM     24  H   UNL     1      47.578   5.865  15.419  0.00  0.00    +0.000 HD
BRANCH  22  25
ATOM     25  C   UNL     1      48.762   7.160  17.306  0.00  0.00    +0.000 A 
ATOM     26  C   UNL     1      48.386   8.316  17.979  0.00  0.00    +0.000 A 
ATOM     27  S   UNL     1      48.024   8.057  19.626  0.00  0.00    +0.000 S 
ATOM     28  C   UNL     1      48.404   6.402  19.507  0.00  0.00    +0.000 A 
ATOM     29  N   UNL     1      48.334   5.585  20.592  0.00  0.00    +0.000 NA
ATOM     30  C   UNL     1      48.670   4.361  20.367  0.00  0.00    +0.000 A 
ATOM     31  N   UNL     1      49.068   3.877  19.142  0.00  0.00    +0.000 N 
ATOM     32  C   UNL     1      49.120   4.656  18.013  0.00  0.00    +0.000 A 
ATOM     33  O   UNL     1      49.421   4.174  16.925  0.00  0.00    +0.000 OA
ATOM     34  C   UNL     1      48.774   6.048  18.222  0.00  0.00    +0.000 A 
ATOM     35  H   UNL     1      49.304   2.902  19.027  0.00  0.00    +0.000 HD
ENDBRANCH  22  25
ENDBRANCH  20  21
ENDBRANCH   4  20
TORSDOF 9
ENDMDL
MODEL 7
REMARK VINA RESULT:    -7.255      3.815     10.326
REMARK INTER + INTRA:         -12.215
REMARK INTER:                 -10.100
REMARK INTRA:                  -2.115
REMARK UNBOUND:                -1.143
REMARK  Name = 
REMARK  9 active torsions:
REMARK  status: ('A' for Active; 'I' for Inactive)
REMARK    1  A    between atoms: C_2  and  C_3
REMARK    2  A    between atoms: C_3  and  C_4
REMARK    3  A    between atoms: C_3  and  N_11
REMARK    4  A    between atoms: C_4  and  C_5
REMARK    5  A    between atoms: N_11  and  C_12
REMARK    6  A    between atoms: C_12  and  C_13
REMARK    7  A    between atoms: C_16  and  C_17
REMARK    8  A    between atoms: C_17  and  N_18
REMARK    9  A    between atoms: C_19  and  C_21
REMARK                            x       y       z     vdW  Elec       q    Type
REMARK                         _______ _______ _______ _____ _____    ______ ____
ROOT
ATOM      1  C   UNL     1      51.391   3.720  17.744  0.00  0.00    +0.000 A 
ATOM      2  C   UNL     1      50.656   4.895  17.526  0.00  0.00    +0.000 A 
ATOM      3  C   UNL     1      49.294   4.841  17.217  0.00  0.00    +0.000 A 
ATOM      4  C   UNL     1      48.637   3.609  17.109  0.00  0.00    +0.000 A 
ATOM      5  C   UNL     1      49.385   2.433  17.253  0.00  0.00    +0.000 A 
ATOM      6  C   UNL     1      50.744   2.487  17.579  0.00  0.00    +0.000 A 
ENDROOT
BRANCH   1   7
ATOM      7  C   UNL     1      52.846   3.783  18.157  0.00  0.00    +0.000 C 
BRANCH   7   8
ATOM      8  N   UNL     1      52.994   3.563  19.602  0.00  0.00    +0.000 NA
ATOM      9  H   UNL     1      52.276   2.912  19.913  0.00  0.00    +0.000 HD
BRANCH   8  10
ATOM     10  C   UNL     1      52.909   4.813  20.395  0.00  0.00    +0.000 C 
BRANCH  10  12
ATOM     11  N   UNL     1      55.170   5.359  21.654  0.00  0.00    +0.000 NA
ATOM     12  C   UNL     1      54.177   5.109  21.109  0.00  0.00    +0.000 C 
ENDBRANCH  10  12
BRANCH  10  13
ATOM     13  C   UNL     1      51.742   4.670  21.412  0.00  0.00    +0.000 C 
BRANCH  13  14
ATOM     14  C   UNL     1      50.454   5.365  21.020  0.00  0.00    +0.000 A 
ATOM     15  C   UNL     1      49.222   4.706  21.014  0.00  0.00    +0.000 A 
ATOM     16  C   UNL     1      48.093   5.415  20.621  0.00  0.00    +0.000 A 
ATOM     17  N   UNL     1      48.108   6.710  20.237  0.00  0.00    +0.000 NA
ATOM     18  C   UNL     1      49.305   7.330  20.255  0.00  0.00    +0.000 A 
ATOM     19  C   UNL     1      50.483   6.713  20.641  0.00  0.00    +0.000 A 
ENDBRANCH  13  14
ENDBRANCH  10  13
ENDBRANCH   8  10
ENDBRANCH   7   8
ENDBRANCH   1   7
BRANCH   4  20
ATOM     20  C   UNL     1      47.157   3.536  16.835  0.00  0.00    +0.000 C 
BRANCH  20  21
ATOM     21  N   UNL     1      46.756   4.500  15.845  0.00  0.00    +0.000 N 
ATOM     22  C   UNL     1      46.833   4.218  14.505  0.00  0.00    +0.000 C 
ATOM     23  O   UNL     1      47.218   3.130  14.084  0.00  0.00    +0.000 OA
ATOM     24  H   UNL     1      46.706   5.468  16.142  0.00  0.00    +0.000 HD
BRANCH  22  25
ATOM     25  C   UNL     1      46.361   5.271  13.596  0.00  0.00    +0.000 A 
ATOM     26  C   UNL     1      47.179   6.358  13.314  0.00  0.00    +0.000 A 
ATOM     27  S   UNL     1      46.490   7.459  12.209  0.00  0.00    +0.000 S 
ATOM     28  C   UNL     1      45.057   6.547  12.107  0.00  0.00    +0.000 A 
ATOM     29  N   UNL     1      44.015   6.959  11.335  0.00  0.00    +0.000 NA
ATOM     30  C   UNL     1      42.984   6.186  11.367  0.00  0.00    +0.000 A 
ATOM     31  N   UNL     1      42.903   5.027  12.104  0.00  0.00    +0.000 N 
ATOM     32  C   UNL     1      43.941   4.555  12.868  0.00  0.00    +0.000 A 
ATOM     33  O   UNL     1      43.853   3.485  13.462  0.00  0.00    +0.000 OA
ATOM     34  C   UNL     1      45.115   5.404  12.883  0.00  0.00    +0.000 A 
ATOM     35  H   UNL     1      42.070   4.456  12.074  0.00  0.00    +0.000 HD
ENDBRANCH  22  25
ENDBRANCH  20  21
ENDBRANCH   4  20
TORSDOF 9
ENDMDL
MODEL 8
REMARK VINA RESULT:    -7.033      2.818      4.153
REMARK INTER + INTRA:         -11.876
REMARK INTER:                 -11.239
REMARK INTRA:                  -0.637
REMARK UNBOUND:                -1.143
REMARK  Name = 
REMARK  9 active torsions:
REMARK  status: ('A' for Active; 'I' for Inactive)
REMARK    1  A    between atoms: C_2  and  C_3
REMARK    2  A    between atoms: C_3  and  C_4
REMARK    3  A    between atoms: C_3  and  N_11
REMARK    4  A    between atoms: C_4  and  C_5
REMARK    5  A    between atoms: N_11  and  C_12
REMARK    6  A    between atoms: C_12  and  C_13
REMARK    7  A    between atoms: C_16  and  C_17
REMARK    8  A    between atoms: C_17  and  N_18
REMARK    9  A    between atoms: C_19  and  C_21
REMARK                            x       y       z     vdW  Elec       q    Type
REMARK                         _______ _______ _______ _____ _____    ______ ____
ROOT
ATOM      1  C   UNL     1      44.841   4.625  12.548  0.00  0.00    +0.000 A 
ATOM      2  C   UNL     1      45.861   3.813  13.066  0.00  0.00    +0.000 A 
ATOM      3  C   UNL     1      46.968   4.376  13.708  0.00  0.00    +0.000 A 
ATOM      4  C   UNL     1      47.086   5.766  13.835  0.00  0.00    +0.000 A 
ATOM      5  C   UNL     1      46.106   6.580  13.254  0.00  0.00    +0.000 A 
ATOM      6  C   UNL     1      44.989   6.017  12.627  0.00  0.00    +0.000 A 
ENDROOT
BRANCH   1   7
ATOM      7  C   UNL     1      43.605   4.012  11.925  0.00  0.00    +0.000 C 
BRANCH   7   8
ATOM      8  N   UNL     1      43.586   4.225  10.472  0.00  0.00    +0.000 NA
ATOM      9  H   UNL     1      42.816   3.694  10.069  0.00  0.00    +0.000 HD
BRANCH   8  10
ATOM     10  C   UNL     1      44.854   3.841   9.807  0.00  0.00    +0.000 C 
BRANCH  10  12
ATOM     11  N   UNL     1      46.276   5.941   9.056  0.00  0.00    +0.000 NA
ATOM     12  C   UNL     1      45.650   5.026   9.397  0.00  0.00    +0.000 C 
ENDBRANCH  10  12
BRANCH  10  13
ATOM     13  C   UNL     1      44.515   2.967   8.567  0.00  0.00    +0.000 C 
BRANCH  13  14
ATOM     14  C   UNL     1      45.709   2.482   7.771  0.00  0.00    +0.000 A 
ATOM     15  C   UNL     1      46.216   3.190   6.679  0.00  0.00    +0.000 A 
ATOM     16  C   UNL     1      47.303   2.661   5.993  0.00  0.00    +0.000 A 
ATOM     17  N   UNL     1      47.904   1.494   6.312  0.00  0.00    +0.000 NA
ATOM     18  C   UNL     1      47.404   0.828   7.372  0.00  0.00    +0.000 A 
ATOM     19  C   UNL     1      46.332   1.278   8.125  0.00  0.00    +0.000 A 
ENDBRANCH  13  14
ENDBRANCH  10  13
ENDBRANCH   8  10
ENDBRANCH   7   8
ENDBRANCH   1   7
BRANCH   4  20
ATOM     20  C   UNL     1      48.243   6.385  14.575  0.00  0.00    +0.000 C 
BRANCH  20  21
ATOM     21  N   UNL     1      48.084   6.264  16.000  0.00  0.00    +0.000 N 
ATOM     22  C   UNL     1      49.116   5.835  16.797  0.00  0.00    +0.000 C 
ATOM     23  O   UNL     1      50.224   5.562  16.346  0.00  0.00    +0.000 OA
ATOM     24  H   UNL     1      47.135   6.211  16.352  0.00  0.00    +0.000 HD
BRANCH  22  25
ATOM     25  C   UNL     1      48.838   5.787  18.239  0.00  0.00    +0.000 A 
ATOM     26  C   UNL     1      49.058   4.611  18.945  0.00  0.00    +0.000 A 
ATOM     27  S   UNL     1      48.726   4.748  20.613  0.00  0.00    +0.000 S 
ATOM     28  C   UNL     1      48.231   6.367  20.439  0.00  0.00    +0.000 A 
ATOM     29  N   UNL     1      47.783   7.083  21.505  0.00  0.00    +0.000 NA
ATOM     30  C   UNL     1      47.419   8.289  21.229  0.00  0.00    +0.000 A 
ATOM     31  N   UNL     1      47.469   8.847  19.972  0.00  0.00    +0.000 N 
ATOM     32  C   UNL     1      47.946   8.174  18.876  0.00  0.00    +0.000 A 
ATOM     33  O   UNL     1      48.033   8.727  17.783  0.00  0.00    +0.000 OA
ATOM     34  C   UNL     1      48.346   6.805  19.132  0.00  0.00    +0.000 A 
ATOM     35  H   UNL     1      47.183   9.805  19.824  0.00  0.00    +0.000 HD
ENDBRANCH  22  25
ENDBRANCH  20  21
ENDBRANCH   4  20
TORSDOF 9
ENDMDL
MODEL 9
REMARK VINA RESULT:    -6.910      1.881      2.694
REMARK INTER + INTRA:         -11.688
REMARK INTER:                 -10.618
REMARK INTRA:                  -1.070
REMARK UNBOUND:                -1.143
REMARK  Name = 
REMARK  9 active torsions:
REMARK  status: ('A' for Active; 'I' for Inactive)
REMARK    1  A    between atoms: C_2  and  C_3
REMARK    2  A    between atoms: C_3  and  C_4
REMARK    3  A    between atoms: C_3  and  N_11
REMARK    4  A    between atoms: C_4  and  C_5
REMARK    5  A    between atoms: N_11  and  C_12
REMARK    6  A    between atoms: C_12  and  C_13
REMARK    7  A    between atoms: C_16  and  C_17
REMARK    8  A    between atoms: C_17  and  N_18
REMARK    9  A    between atoms: C_19  and  C_21
REMARK                            x       y       z     vdW  Elec       q    Type
REMARK                         _______ _______ _______ _____ _____    ______ ____
ROOT
ATOM      1  C   UNL     1      46.317   7.528  12.237  0.00  0.00    +0.000 A 
ATOM      2  C   UNL     1      47.473   6.743  12.116  0.00  0.00    +0.000 A 
ATOM      3  C   UNL     1      48.577   6.959  12.947  0.00  0.00    +0.000 A 
ATOM      4  C   UNL     1      48.552   7.974  13.911  0.00  0.00    +0.000 A 
ATOM      5  C   UNL     1      47.429   8.807  13.983  0.00  0.00    +0.000 A 
ATOM      6  C   UNL     1      46.318   8.580  13.164  0.00  0.00    +0.000 A 
ENDROOT
BRANCH   1   7
ATOM      7  C   UNL     1      45.095   7.241  11.392  0.00  0.00    +0.000 C 
BRANCH   7   8
ATOM      8  N   UNL     1      45.276   6.017  10.600  0.00  0.00    +0.000 NA
ATOM      9  H   UNL     1      45.118   6.232   9.618  0.00  0.00    +0.000 HD
BRANCH   8  10
ATOM     10  C   UNL     1      44.379   4.912  11.017  0.00  0.00    +0.000 C 
BRANCH  10  12
ATOM     11  N   UNL     1      45.625   3.183  12.582  0.00  0.00    +0.000 NA
ATOM     12  C   UNL     1      45.067   3.937  11.899  0.00  0.00    +0.000 C 
ENDBRANCH  10  12
BRANCH  10  13
ATOM     13  C   UNL     1      43.850   4.201   9.740  0.00  0.00    +0.000 C 
BRANCH  13  14
ATOM     14  C   UNL     1      44.895   3.453   8.937  0.00  0.00    +0.000 A 
ATOM     15  C   UNL     1      45.079   2.072   9.053  0.00  0.00    +0.000 A 
ATOM     16  C   UNL     1      46.075   1.470   8.293  0.00  0.00    +0.000 A 
ATOM     17  N   UNL     1      46.887   2.137   7.445  0.00  0.00    +0.000 NA
ATOM     18  C   UNL     1      46.691   3.467   7.343  0.00  0.00    +0.000 A 
ATOM     19  C   UNL     1      45.719   4.155   8.049  0.00  0.00    +0.000 A 
ENDBRANCH  13  14
ENDBRANCH  10  13
ENDBRANCH   8  10
ENDBRANCH   7   8
ENDBRANCH   1   7
BRANCH   4  20
ATOM     20  C   UNL     1      49.710   8.181  14.853  0.00  0.00    +0.000 C 
BRANCH  20  21
ATOM     21  N   UNL     1      50.155   6.938  15.423  0.00  0.00    +0.000 N 
ATOM     22  C   UNL     1      49.632   6.468  16.602  0.00  0.00    +0.000 C 
ATOM     23  O   UNL     1      48.747   7.062  17.210  0.00  0.00    +0.000 OA
ATOM     24  H   UNL     1      51.050   6.582  15.106  0.00  0.00    +0.000 HD
BRANCH  22  25
ATOM     25  C   UNL     1      50.144   5.171  17.062  0.00  0.00    +0.000 A 
ATOM     26  C   UNL     1      49.266   4.113  17.261  0.00  0.00    +0.000 A 
ATOM     27  S   UNL     1      50.036   2.672  17.753  0.00  0.00    +0.000 S 
ATOM     28  C   UNL     1      51.562   3.425  17.763  0.00  0.00    +0.000 A 
ATOM     29  N   UNL     1      52.680   2.744  18.132  0.00  0.00    +0.000 NA
ATOM     30  C   UNL     1      53.765   3.441  18.117  0.00  0.00    +0.000 A 
ATOM     31  N   UNL     1      53.832   4.767  17.758  0.00  0.00    +0.000 N 
ATOM     32  C   UNL     1      52.737   5.484  17.345  0.00  0.00    +0.000 A 
ATOM     33  O   UNL     1      52.847   6.649  16.974  0.00  0.00    +0.000 OA
ATOM     34  C   UNL     1      51.488   4.749  17.369  0.00  0.00    +0.000 A 
ATOM     35  H   UNL     1      54.717   5.254  17.751  0.00  0.00    +0.000 HD
ENDBRANCH  22  25
ENDBRANCH  20  21
ENDBRANCH   4  20
TORSDOF 9
ENDMDL
