MODEL 1
REMARK VINA RESULT:    -7.948      0.000      0.000
REMARK INTER + INTRA:         -11.486
REMARK INTER:                 -10.503
REMARK INTRA:                  -0.983
REMARK UNBOUND:                -0.983
REMARK  Name = 
REMARK  6 active torsions:
REMARK  status: ('A' for Active; 'I' for Inactive)
REMARK    1  A    between atoms: O_1  and  C_2
REMARK    2  A    between atoms: C_2  and  C_3
REMARK    3  A    between atoms: C_6  and  N_7
REMARK    4  A    between atoms: N_7  and  C_8
REMARK    5  A    between atoms: C_8  and  C_9
REMARK    6  A    between atoms: C_13  and  C_14
REMARK                            x       y       z     vdW  Elec       q    Type
REMARK                         _______ _______ _______ _____ _____    ______ ____
ROOT
ATOM      1  C   UNL     1      43.993   4.682  11.357  0.00  0.00    +0.000 C 
ATOM      2  C   UNL     1      42.673   5.010  12.037  0.00  0.00    +0.000 C 
ATOM      3  C   UNL     1      43.226   5.945  11.014  0.00  0.00    +0.000 C 
ENDROOT
BRANCH   1   4
ATOM      4  C   UNL     1      45.272   4.794  12.178  0.00  0.00    +0.000 A 
ATOM      5  C   UNL     1      45.698   3.758  13.014  0.00  0.00    +0.000 A 
ATOM      6  C   UNL     1      46.906   3.863  13.681  0.00  0.00    +0.000 A 
ATOM      7  N   UNL     1      47.725   4.933  13.582  0.00  0.00    +0.000 NA
ATOM      8  C   UNL     1      47.323   5.958  12.785  0.00  0.00    +0.000 A 
ATOM      9  C   UNL     1      46.116   5.914  12.088  0.00  0.00    +0.000 A 
BRANCH   8  10
ATOM     10  C   UNL     1      48.207   7.190  12.622  0.00  0.00    +0.000 C 
ATOM     11  F   UNL     1      47.744   8.307  13.244  0.00  0.00    +0.000 F 
ATOM     12  F   UNL     1      49.469   6.990  13.107  0.00  0.00    +0.000 F 
ATOM     13  F   UNL     1      48.374   7.536  11.311  0.00  0.00    +0.000 F 
ENDBRANCH   8  10
ENDBRANCH   1   4
BRANCH   1  14
ATOM     14  N   UNL     1      43.937   3.504  10.470  0.00  0.00    +0.000 N 
ATOM     15  H   UNL     1      43.753   2.617  10.934  0.00  0.00    +0.000 HD
BRANCH  14  19
ATOM     16  C   UNL     1      46.607   2.691   7.282  0.00  0.00    +0.000 A 
ATOM     17  C   UNL     1      46.187   4.006   7.518  0.00  0.00    +0.000 A 
ATOM     18  C   UNL     1      45.297   4.298   8.558  0.00  0.00    +0.000 A 
ATOM     19  C   UNL     1      44.815   3.288   9.390  0.00  0.00    +0.000 A 
ATOM     20  C   UNL     1      45.261   1.979   9.172  0.00  0.00    +0.000 A 
ATOM     21  C   UNL     1      46.130   1.679   8.122  0.00  0.00    +0.000 A 
BRANCH  16  22
ATOM     22  C   UNL     1      47.477   2.376   6.095  0.00  0.00    +0.000 C 
BRANCH  22  23
ATOM     23  O   UNL     1      48.852   2.565   6.403  0.00  0.00    +0.000 OA
ATOM     24  H   UNL     1      49.158   1.740   6.815  0.00  0.00    +0.000 HD
ENDBRANCH  22  23
ENDBRANCH  16  22
ENDBRANCH  14  19
ENDBRANCH   1  14
TORSDOF 6
ENDMDL
MODEL 2
REMARK VINA RESULT:    -7.590      1.867      2.456
REMARK INTER + INTRA:         -11.014
REMARK INTER:                 -10.307
REMARK INTRA:                  -0.707
REMARK UNBOUND:                -0.983
REMARK  Name = 
REMARK  6 active torsions:
REMARK  status: ('A' for Active; 'I' for Inactive)
REMARK    1  A    between atoms: O_1  and  C_2
REMARK    2  A    between atoms: C_2  and  C_3
REMARK    3  A    between atoms: C_6  and  N_7
REMARK    4  A    between atoms: N_7  and  C_8
REMARK    5  A    between atoms: C_8  and  C_9
REMARK    6  A    between atoms: C_13  and  C_14
REMARK                            x       y       z     vdW  Elec       q    Type
REMARK                         _______ _______ _______ _____ _____    ______ ____
ROOT
ATOM      1  C   UNL     1      44.123   4.958  11.632  0.00  0.00    +0.000 C 
ATOM      2  C   UNL     1      42.851   5.270  12.404  0.00  0.00    +0.000 C 
ATOM      3  C   UNL     1      43.239   6.130  11.248  0.00  0.00    +0.000 C 
ENDROOT
BRANCH   1   4
ATOM      4  C   UNL     1      45.460   5.232  12.308  0.00  0.00    +0.000 A 
ATOM      5  C   UNL     1      46.346   6.195  11.815  0.00  0.00    +0.000 A 
ATOM      6  C   UNL     1      47.515   6.473  12.502  0.00  0.00    +0.000 A 
ATOM      7  N   UNL     1      47.873   5.855  13.650  0.00  0.00    +0.000 NA
ATOM      8  C   UNL     1      47.032   4.906  14.139  0.00  0.00    +0.000 A 
ATOM      9  C   UNL     1      45.841   4.579  13.493  0.00  0.00    +0.000 A 
BRANCH   8  10
ATOM     10  C   UNL     1      47.373   4.181  15.437  0.00  0.00    +0.000 C 
ATOM     11  F   UNL     1      47.716   2.874  15.282  0.00  0.00    +0.000 F 
ATOM     12  F   UNL     1      48.418   4.764  16.097  0.00  0.00    +0.000 F 
ATOM     13  F   UNL     1      46.334   4.191  16.323  0.00  0.00    +0.000 F 
ENDBRANCH   8  10
ENDBRANCH   1   4
BRANCH   1  14
ATOM     14  N   UNL     1      44.071   3.695  10.869  0.00  0.00    +0.000 N 
ATOM     15  H   UNL     1      44.015   2.849  11.430  0.00  0.00    +0.000 HD
BRANCH  14  19
ATOM     16  C   UNL     1      46.407   2.751   7.463  0.00  0.00    +0.000 A 
ATOM     17  C   UNL     1      46.131   4.090   7.765  0.00  0.00    +0.000 A 
ATOM     18  C   UNL     1      45.352   4.427   8.880  0.00  0.00    +0.000 A 
ATOM     19  C   UNL     1      44.842   3.438   9.719  0.00  0.00    +0.000 A 
ATOM     20  C   UNL     1      45.146   2.101   9.431  0.00  0.00    +0.000 A 
ATOM     21  C   UNL     1      45.901   1.759   8.310  0.00  0.00    +0.000 A 
BRANCH  16  22
ATOM     22  C   UNL     1      47.152   2.399   6.203  0.00  0.00    +0.000 C 
BRANCH  22  23
ATOM     23  O   UNL     1      48.547   2.286   6.448  0.00  0.00    +0.000 OA
ATOM     24  H   UNL     1      48.811   3.094   6.919  0.00  0.00    +0.000 HD
ENDBRANCH  22  23
ENDBRANCH  16  22
ENDBRANCH  14  19
ENDBRANCH   1  14
TORSDOF 6
ENDMDL
MODEL 3
REMARK VINA RESULT:    -7.154      1.296      1.943
REMARK INTER + INTRA:         -10.437
REMARK INTER:                 -10.123
REMARK INTRA:                  -0.315
REMARK UNBOUND:                -0.983
REMARK  Name = 
REMARK  6 active torsions:
REMARK  status: ('A' for Active; 'I' for Inactive)
REMARK    1  A    between atoms: O_1  and  C_2
REMARK    2  A    between atoms: C_2  and  C_3
REMARK    3  A    between atoms: C_6  and  N_7
REMARK    4  A    between atoms: N_7  and  C_8
REMARK    5  A    between atoms: C_8  and  C_9
REMARK    6  A    between atoms: C_13  and  C_14
REMARK                            x       y       z     vdW  Elec       q    Type
REMARK                         _______ _______ _______ _____ _____    ______ ____
ROOT
ATOM      1  C   UNL     1      44.299   4.259  11.563  0.00  0.00    +0.000 C 
ATOM      2  C   UNL     1      44.918   3.200  12.462  0.00  0.00    +0.000 C 
ATOM      3  C   UNL     1      43.574   3.755  12.797  0.00  0.00    +0.000 C 
ENDROOT
BRANCH   1   4
ATOM      4  C   UNL     1      44.901   5.658  11.579  0.00  0.00    +0.000 A 
ATOM      5  C   UNL     1      44.112   6.796  11.393  0.00  0.00    +0.000 A 
ATOM      6  C   UNL     1      44.681   8.054  11.495  0.00  0.00    +0.000 A 
ATOM      7  N   UNL     1      45.989   8.264  11.764  0.00  0.00    +0.000 NA
ATOM      8  C   UNL     1      46.777   7.170  11.934  0.00  0.00    +0.000 A 
ATOM      9  C   UNL     1      46.264   5.877  11.843  0.00  0.00    +0.000 A 
BRANCH   8  10
ATOM     10  C   UNL     1      48.259   7.339  12.252  0.00  0.00    +0.000 C 
ATOM     11  F   UNL     1      48.527   8.220  13.252  0.00  0.00    +0.000 F 
ATOM     12  F   UNL     1      48.846   6.162  12.625  0.00  0.00    +0.000 F 
ATOM     13  F   UNL     1      48.973   7.772  11.172  0.00  0.00    +0.000 F 
ENDBRANCH   8  10
ENDBRANCH   1   4
BRANCH   1  14
ATOM     14  N   UNL     1      43.929   3.768  10.220  0.00  0.00    +0.000 N 
ATOM     15  H   UNL     1      43.134   3.135  10.192  0.00  0.00    +0.000 HD
BRANCH  14  19
ATOM     16  C   UNL     1      46.740   2.454   7.335  0.00  0.00    +0.000 A 
ATOM     17  C   UNL     1      46.445   3.819   7.446  0.00  0.00    +0.000 A 
ATOM     18  C   UNL     1      45.512   4.276   8.385  0.00  0.00    +0.000 A 
ATOM     19  C   UNL     1      44.861   3.385   9.237  0.00  0.00    +0.000 A 
ATOM     20  C   UNL     1      45.181   2.024   9.145  0.00  0.00    +0.000 A 
ATOM     21  C   UNL     1      46.092   1.561   8.196  0.00  0.00    +0.000 A 
BRANCH  16  22
ATOM     22  C   UNL     1      47.662   1.966   6.251  0.00  0.00    +0.000 C 
BRANCH  22  23
ATOM     23  O   UNL     1      48.922   2.620   6.317  0.00  0.00    +0.000 OA
ATOM     24  H   UNL     1      49.273   2.454   7.207  0.00  0.00    +0.000 HD
ENDBRANCH  22  23
ENDBRANCH  16  22
ENDBRANCH  14  19
ENDBRANCH   1  14
TORSDOF 6
ENDMDL
MODEL 4
REMARK VINA RESULT:    -7.073      2.071      2.772
REMARK INTER + INTRA:         -10.331
REMARK INTER:                 -10.033
REMARK INTRA:                  -0.298
REMARK UNBOUND:                -0.983
REMARK  Name = 
REMARK  6 active torsions:
REMARK  status: ('A' for Active; 'I' for Inactive)
REMARK    1  A    between atoms: O_1  and  C_2
REMARK    2  A    between atoms: C_2  and  C_3
REMARK    3  A    between atoms: C_6  and  N_7
REMARK    4  A    between atoms: N_7  and  C_8
REMARK    5  A    between atoms: C_8  and  C_9
REMARK    6  A    between atoms: C_13  and  C_14
REMARK                            x       y       z     vdW  Elec       q    Type
REMARK                         _______ _______ _______ _____ _____    ______ ____
ROOT
ATOM      1  C   UNL     1      43.973   4.898  11.403  0.00  0.00    +0.000 C 
ATOM      2  C   UNL     1      43.941   3.695  12.332  0.00  0.00    +0.000 C 
ATOM      3  C   UNL     1      42.833   4.693  12.384  0.00  0.00    +0.000 C 
ENDROOT
BRANCH   1   4
ATOM      4  C   UNL     1      44.996   5.993  11.679  0.00  0.00    +0.000 A 
ATOM      5  C   UNL     1      46.337   5.691  11.940  0.00  0.00    +0.000 A 
ATOM      6  C   UNL     1      47.253   6.715  12.106  0.00  0.00    +0.000 A 
ATOM      7  N   UNL     1      46.931   8.026  12.036  0.00  0.00    +0.000 NA
ATOM      8  C   UNL     1      45.631   8.341  11.797  0.00  0.00    +0.000 A 
ATOM      9  C   UNL     1      44.660   7.356  11.622  0.00  0.00    +0.000 A 
BRANCH   8  10
ATOM     10  C   UNL     1      45.206   9.801  11.694  0.00  0.00    +0.000 C 
ATOM     11  F   UNL     1      46.216  10.698  11.853  0.00  0.00    +0.000 F 
ATOM     12  F   UNL     1      44.637  10.091  10.485  0.00  0.00    +0.000 F 
ATOM     13  F   UNL     1      44.263  10.132  12.626  0.00  0.00    +0.000 F 
ENDBRANCH   8  10
ENDBRANCH   1   4
BRANCH   1  14
ATOM     14  N   UNL     1      43.807   4.563   9.975  0.00  0.00    +0.000 N 
ATOM     15  H   UNL     1      42.863   4.306   9.695  0.00  0.00    +0.000 HD
BRANCH  14  19
ATOM     16  C   UNL     1      46.628   2.435   7.639  0.00  0.00    +0.000 A 
ATOM     17  C   UNL     1      45.759   1.735   8.485  0.00  0.00    +0.000 A 
ATOM     18  C   UNL     1      44.825   2.417   9.275  0.00  0.00    +0.000 A 
ATOM     19  C   UNL     1      44.732   3.807   9.231  0.00  0.00    +0.000 A 
ATOM     20  C   UNL     1      45.582   4.502   8.360  0.00  0.00    +0.000 A 
ATOM     21  C   UNL     1      46.530   3.829   7.589  0.00  0.00    +0.000 A 
BRANCH  16  22
ATOM     22  C   UNL     1      47.699   1.698   6.879  0.00  0.00    +0.000 C 
BRANCH  22  23
ATOM     23  O   UNL     1      48.702   2.590   6.413  0.00  0.00    +0.000 OA
ATOM     24  H   UNL     1      48.579   2.666   5.452  0.00  0.00    +0.000 HD
ENDBRANCH  22  23
ENDBRANCH  16  22
ENDBRANCH  14  19
ENDBRANCH   1  14
TORSDOF 6
ENDMDL
MODEL 5
REMARK VINA RESULT:    -6.587      3.769      6.362
REMARK INTER + INTRA:          -9.688
REMARK INTER:                  -9.044
REMARK INTRA:                  -0.644
REMARK UNBOUND:                -0.983
REMARK  Name = 
REMARK  6 active torsions:
REMARK  status: ('A' for Active; 'I' for Inactive)
REMARK    1  A    between atoms: O_1  and  C_2
REMARK    2  A    between atoms: C_2  and  C_3
REMARK    3  A    between atoms: C_6  and  N_7
REMARK    4  A    between atoms: N_7  and  C_8
REMARK    5  A    between atoms: C_8  and  C_9
REMARK    6  A    between atoms: C_13  and  C_14
REMARK                            x       y       z     vdW  Elec       q    Type
REMARK                         _______ _______ _______ _____ _____    ______ ____
ROOT
ATOM      1  C   UNL     1      44.001   5.259  11.172  0.00  0.00    +0.000 C 
ATOM      2  C   UNL     1      42.509   5.451  11.395  0.00  0.00    +0.000 C 
ATOM      3  C   UNL     1      43.368   4.983  12.523  0.00  0.00    +0.000 C 
ENDROOT
BRANCH   1   4
ATOM      4  C   UNL     1      44.454   4.085  10.314  0.00  0.00    +0.000 A 
ATOM      5  C   UNL     1      43.935   2.800  10.499  0.00  0.00    +0.000 A 
ATOM      6  C   UNL     1      44.310   1.775   9.648  0.00  0.00    +0.000 A 
ATOM      7  N   UNL     1      45.176   1.934   8.622  0.00  0.00    +0.000 NA
ATOM      8  C   UNL     1      45.704   3.172   8.433  0.00  0.00    +0.000 A 
ATOM      9  C   UNL     1      45.367   4.245   9.257  0.00  0.00    +0.000 A 
BRANCH   8  10
ATOM     10  C   UNL     1      46.677   3.420   7.286  0.00  0.00    +0.000 C 
ATOM     11  F   UNL     1      46.126   3.332   6.046  0.00  0.00    +0.000 F 
ATOM     12  F   UNL     1      47.249   4.661   7.352  0.00  0.00    +0.000 F 
ATOM     13  F   UNL     1      47.721   2.540   7.295  0.00  0.00    +0.000 F 
ENDBRANCH   8  10
ENDBRANCH   1   4
BRANCH   1  14
ATOM     14  N   UNL     1      44.740   6.514  10.931  0.00  0.00    +0.000 N 
ATOM     15  H   UNL     1      45.093   6.637   9.984  0.00  0.00    +0.000 HD
BRANCH  14  19
ATOM     16  C   UNL     1      47.396   8.364  13.664  0.00  0.00    +0.000 A 
ATOM     17  C   UNL     1      47.732   7.127  13.099  0.00  0.00    +0.000 A 
ATOM     18  C   UNL     1      46.865   6.491  12.202  0.00  0.00    +0.000 A 
ATOM     19  C   UNL     1      45.653   7.078  11.842  0.00  0.00    +0.000 A 
ATOM     20  C   UNL     1      45.335   8.330  12.384  0.00  0.00    +0.000 A 
ATOM     21  C   UNL     1      46.183   8.957  13.296  0.00  0.00    +0.000 A 
BRANCH  16  22
ATOM     22  C   UNL     1      48.285   8.984  14.709  0.00  0.00    +0.000 C 
BRANCH  22  23
ATOM     23  O   UNL     1      47.557   9.275  15.894  0.00  0.00    +0.000 OA
ATOM     24  H   UNL     1      48.104   8.970  16.636  0.00  0.00    +0.000 HD
ENDBRANCH  22  23
ENDBRANCH  16  22
ENDBRANCH  14  19
ENDBRANCH   1  14
TORSDOF 6
ENDMDL
MODEL 6
REMARK VINA RESULT:    -6.538      3.771      6.637
REMARK INTER + INTRA:          -9.624
REMARK INTER:                  -8.839
REMARK INTRA:                  -0.785
REMARK UNBOUND:                -0.983
REMARK  Name = 
REMARK  6 active torsions:
REMARK  status: ('A' for Active; 'I' for Inactive)
REMARK    1  A    between atoms: O_1  and  C_2
REMARK    2  A    between atoms: C_2  and  C_3
REMARK    3  A    between atoms: C_6  and  N_7
REMARK    4  A    between atoms: N_7  and  C_8
REMARK    5  A    between atoms: C_8  and  C_9
REMARK    6  A    between atoms: C_13  and  C_14
REMARK                            x       y       z     vdW  Elec       q    Type
REMARK                         _______ _______ _______ _____ _____    ______ ____
ROOT
ATOM      1  C   UNL     1      46.299   7.271  12.286  0.00  0.00    +0.000 C 
ATOM      2  C   UNL     1      46.507   8.669  11.724  0.00  0.00    +0.000 C 
ATOM      3  C   UNL     1      45.736   8.492  12.990  0.00  0.00    +0.000 C 
ENDROOT
BRANCH   1   4
ATOM      4  C   UNL     1      45.347   6.335  11.552  0.00  0.00    +0.000 A 
ATOM      5  C   UNL     1      43.987   6.278  11.873  0.00  0.00    +0.000 A 
ATOM      6  C   UNL     1      43.137   5.476  11.130  0.00  0.00    +0.000 A 
ATOM      7  N   UNL     1      43.545   4.716  10.089  0.00  0.00    +0.000 NA
ATOM      8  C   UNL     1      44.866   4.747   9.770  0.00  0.00    +0.000 A 
ATOM      9  C   UNL     1      45.772   5.533  10.480  0.00  0.00    +0.000 A 
BRANCH   8  10
ATOM     10  C   UNL     1      45.388   3.922   8.598  0.00  0.00    +0.000 C 
ATOM     11  F   UNL     1      45.770   2.658   8.921  0.00  0.00    +0.000 F 
ATOM     12  F   UNL     1      44.458   3.788   7.605  0.00  0.00    +0.000 F 
ATOM     13  F   UNL     1      46.472   4.500   8.002  0.00  0.00    +0.000 F 
ENDBRANCH   8  10
ENDBRANCH   1   4
BRANCH   1  14
ATOM     14  N   UNL     1      47.535   6.627  12.772  0.00  0.00    +0.000 N 
ATOM     15  H   UNL     1      48.093   6.162  12.060  0.00  0.00    +0.000 HD
BRANCH  14  19
ATOM     16  C   UNL     1      47.680   4.344  16.338  0.00  0.00    +0.000 A 
ATOM     17  C   UNL     1      48.337   5.579  16.278  0.00  0.00    +0.000 A 
ATOM     18  C   UNL     1      48.313   6.347  15.107  0.00  0.00    +0.000 A 
ATOM     19  C   UNL     1      47.626   5.904  13.977  0.00  0.00    +0.000 A 
ATOM     20  C   UNL     1      46.943   4.683  14.051  0.00  0.00    +0.000 A 
ATOM     21  C   UNL     1      46.984   3.904  15.207  0.00  0.00    +0.000 A 
BRANCH  16  22
ATOM     22  C   UNL     1      47.805   3.480  17.565  0.00  0.00    +0.000 C 
BRANCH  22  23
ATOM     23  O   UNL     1      46.623   2.721  17.780  0.00  0.00    +0.000 OA
ATOM     24  H   UNL     1      45.929   3.131  17.237  0.00  0.00    +0.000 HD
ENDBRANCH  22  23
ENDBRANCH  16  22
ENDBRANCH  14  19
ENDBRANCH   1  14
TORSDOF 6
ENDMDL
MODEL 7
REMARK VINA RESULT:    -6.000      4.504      6.729
REMARK INTER + INTRA:          -8.912
REMARK INTER:                  -8.019
REMARK INTRA:                  -0.893
REMARK UNBOUND:                -0.983
REMARK  Name = 
REMARK  6 active torsions:
REMARK  status: ('A' for Active; 'I' for Inactive)
REMARK    1  A    between atoms: O_1  and  C_2
REMARK    2  A    between atoms: C_2  and  C_3
REMARK    3  A    between atoms: C_6  and  N_7
REMARK    4  A    between atoms: N_7  and  C_8
REMARK    5  A    between atoms: C_8  and  C_9
REMARK    6  A    between atoms: C_13  and  C_14
REMARK                            x       y       z     vdW  Elec       q    Type
REMARK                         _______ _______ _______ _____ _____    ______ ____
ROOT
ATOM      1  C   UNL     1      45.906   7.066  12.242  0.00  0.00    +0.000 C 
ATOM      2  C   UNL     1      46.967   6.671  13.257  0.00  0.00    +0.000 C 
ATOM      3  C   UNL     1      47.383   7.211  11.929  0.00  0.00    +0.000 C 
ENDROOT
BRANCH   1   4
ATOM      4  C   UNL     1      45.112   5.957  11.563  0.00  0.00    +0.000 A 
ATOM      5  C   UNL     1      43.841   5.585  12.014  0.00  0.00    +0.000 A 
ATOM      6  C   UNL     1      43.117   4.630  11.323  0.00  0.00    +0.000 A 
ATOM      7  N   UNL     1      43.569   4.007  10.212  0.00  0.00    +0.000 NA
ATOM      8  C   UNL     1      44.808   4.343   9.765  0.00  0.00    +0.000 A 
ATOM      9  C   UNL     1      45.587   5.297  10.417  0.00  0.00    +0.000 A 
BRANCH   8  10
ATOM     10  C   UNL     1      45.371   3.686   8.509  0.00  0.00    +0.000 C 
ATOM     11  F   UNL     1      46.401   4.359   7.931  0.00  0.00    +0.000 F 
ATOM     12  F   UNL     1      45.839   2.424   8.751  0.00  0.00    +0.000 F 
ATOM     13  F   UNL     1      44.426   3.540   7.534  0.00  0.00    +0.000 F 
ENDBRANCH   8  10
ENDBRANCH   1   4
BRANCH   1  14
ATOM     14  N   UNL     1      45.101   8.239  12.637  0.00  0.00    +0.000 N 
ATOM     15  H   UNL     1      44.263   8.032  13.174  0.00  0.00    +0.000 HD
BRANCH  14  19
ATOM     16  C   UNL     1      44.235  11.462  10.027  0.00  0.00    +0.000 A 
ATOM     17  C   UNL     1      45.357  11.528  10.864  0.00  0.00    +0.000 A 
ATOM     18  C   UNL     1      45.657  10.480  11.743  0.00  0.00    +0.000 A 
ATOM     19  C   UNL     1      44.853   9.343  11.799  0.00  0.00    +0.000 A 
ATOM     20  C   UNL     1      43.751   9.266  10.939  0.00  0.00    +0.000 A 
ATOM     21  C   UNL     1      43.433  10.317  10.078  0.00  0.00    +0.000 A 
BRANCH  16  22
ATOM     22  C   UNL     1      43.863  12.640   9.168  0.00  0.00    +0.000 C 
BRANCH  22  23
ATOM     23  O   UNL     1      42.998  12.249   8.110  0.00  0.00    +0.000 OA
ATOM     24  H   UNL     1      43.207  12.824   7.355  0.00  0.00    +0.000 HD
ENDBRANCH  22  23
ENDBRANCH  16  22
ENDBRANCH  14  19
ENDBRANCH   1  14
TORSDOF 6
ENDMDL
MODEL 8
REMARK VINA RESULT:    -5.643      3.943      5.714
REMARK INTER + INTRA:          -8.441
REMARK INTER:                  -7.948
REMARK INTRA:                  -0.493
REMARK UNBOUND:                -0.983
REMARK  Name = 
REMARK  6 active torsions:
REMARK  status: ('A' for Active; 'I' for Inactive)
REMARK    1  A    between atoms: O_1  and  C_2
REMARK    2  A    between atoms: C_2  and  C_3
REMARK    3  A    between atoms: C_6  and  N_7
REMARK    4  A    between atoms: N_7  and  C_8
REMARK    5  A    between atoms: C_8  and  C_9
REMARK    6  A    between atoms: C_13  and  C_14
REMARK                            x       y       z     vdW  Elec       q    Type
REMARK                         _______ _______ _______ _____ _____    ______ ____
ROOT
ATOM      1  C   UNL     1      48.146   7.059  14.012  0.00  0.00    +0.000 C 
ATOM      2  C   UNL     1      48.960   8.242  13.511  0.00  0.00    +0.000 C 
ATOM      3  C   UNL     1      49.190   6.889  12.924  0.00  0.00    +0.000 C 
ENDROOT
BRANCH   1   4
ATOM      4  C   UNL     1      48.440   6.524  15.407  0.00  0.00    +0.000 A 
ATOM      5  C   UNL     1      48.902   7.360  16.429  0.00  0.00    +0.000 A 
ATOM      6  C   UNL     1      49.080   6.854  17.705  0.00  0.00    +0.000 A 
ATOM      7  N   UNL     1      48.837   5.568  18.041  0.00  0.00    +0.000 NA
ATOM      8  C   UNL     1      48.400   4.735  17.060  0.00  0.00    +0.000 A 
ATOM      9  C   UNL     1      48.202   5.183  15.755  0.00  0.00    +0.000 A 
BRANCH   8  10
ATOM     10  C   UNL     1      48.095   3.275  17.377  0.00  0.00    +0.000 C 
ATOM     11  F   UNL     1      48.614   2.831  18.553  0.00  0.00    +0.000 F 
ATOM     12  F   UNL     1      46.752   3.030  17.447  0.00  0.00    +0.000 F 
ATOM     13  F   UNL     1      48.568   2.428  16.416  0.00  0.00    +0.000 F 
ENDBRANCH   8  10
ENDBRANCH   1   4
BRANCH   1  14
ATOM     14  N   UNL     1      46.711   7.127  13.672  0.00  0.00    +0.000 N 
ATOM     15  H   UNL     1      46.100   7.432  14.426  0.00  0.00    +0.000 HD
BRANCH  14  19
ATOM     16  C   UNL     1      44.704   4.129  11.453  0.00  0.00    +0.000 A 
ATOM     17  C   UNL     1      45.155   5.286  10.806  0.00  0.00    +0.000 A 
ATOM     18  C   UNL     1      45.812   6.296  11.520  0.00  0.00    +0.000 A 
ATOM     19  C   UNL     1      46.040   6.169  12.890  0.00  0.00    +0.000 A 
ATOM     20  C   UNL     1      45.615   4.997  13.528  0.00  0.00    +0.000 A 
ATOM     21  C   UNL     1      44.940   3.998  12.826  0.00  0.00    +0.000 A 
BRANCH  16  22
ATOM     22  C   UNL     1      43.905   3.102  10.696  0.00  0.00    +0.000 C 
BRANCH  22  23
ATOM     23  O   UNL     1      42.862   2.569  11.500  0.00  0.00    +0.000 OA
ATOM     24  H   UNL     1      42.123   3.199  11.448  0.00  0.00    +0.000 HD
ENDBRANCH  22  23
ENDBRANCH  16  22
ENDBRANCH  14  19
ENDBRANCH   1  14
TORSDOF 6
ENDMDL
MODEL 9
REMARK VINA RESULT:    -5.219      4.258      7.255
REMARK INTER + INTRA:          -7.880
REMARK INTER:                  -7.196
REMARK INTRA:                  -0.684
REMARK UNBOUND:                -0.983
REMARK  Name = 
REMARK  6 active torsions:
REMARK  status: ('A' for Active; 'I' for Inactive)
REMARK    1  A    between atoms: O_1  and  C_2
REMARK    2  A    between atoms: C_2  and  C_3
REMARK    3  A    between atoms: C_6  and  N_7
REMARK    4  A    between atoms: N_7  and  C_8
REMARK    5  A    between atoms: C_8  and  C_9
REMARK    6  A    between atoms: C_13  and  C_14
REMARK                            x       y       z     vdW  Elec       q    Type
REMARK                         _______ _______ _______ _____ _____    ______ ____
ROOT
ATOM      1  C   UNL     1      47.216   6.946  12.675  0.00  0.00    +0.000 C 
ATOM      2  C   UNL     1      48.037   7.903  11.826  0.00  0.00    +0.000 C 
ATOM      3  C   UNL     1      47.408   8.393  13.088  0.00  0.00    +0.000 C 
ENDROOT
BRANCH   1   4
ATOM      4  C   UNL     1      45.857   6.502  12.147  0.00  0.00    +0.000 A 
ATOM      5  C   UNL     1      44.796   7.402  12.012  0.00  0.00    +0.000 A 
ATOM      6  C   UNL     1      43.602   6.981  11.453  0.00  0.00    +0.000 A 
ATOM      7  N   UNL     1      43.382   5.719  11.023  0.00  0.00    +0.000 NA
ATOM      8  C   UNL     1      44.395   4.824  11.158  0.00  0.00    +0.000 A 
ATOM      9  C   UNL     1      45.622   5.186  11.714  0.00  0.00    +0.000 A 
BRANCH   8  10
ATOM     10  C   UNL     1      44.215   3.387  10.681  0.00  0.00    +0.000 C 
ATOM     11  F   UNL     1      43.958   3.260   9.351  0.00  0.00    +0.000 F 
ATOM     12  F   UNL     1      45.320   2.619  10.922  0.00  0.00    +0.000 F 
ATOM     13  F   UNL     1      43.188   2.754  11.322  0.00  0.00    +0.000 F 
ENDBRANCH   8  10
ENDBRANCH   1   4
BRANCH   1  14
ATOM     14  N   UNL     1      48.007   5.871  13.307  0.00  0.00    +0.000 N 
ATOM     15  H   UNL     1      47.993   4.977  12.823  0.00  0.00    +0.000 HD
BRANCH  14  19
ATOM     16  C   UNL     1      48.030   5.074  17.468  0.00  0.00    +0.000 A 
ATOM     17  C   UNL     1      48.758   6.160  16.965  0.00  0.00    +0.000 A 
ATOM     18  C   UNL     1      48.775   6.437  15.592  0.00  0.00    +0.000 A 
ATOM     19  C   UNL     1      48.059   5.645  14.696  0.00  0.00    +0.000 A 
ATOM     20  C   UNL     1      47.307   4.579  15.205  0.00  0.00    +0.000 A 
ATOM     21  C   UNL     1      47.306   4.284  16.569  0.00  0.00    +0.000 A 
BRANCH  16  22
ATOM     22  C   UNL     1      48.109   4.723  18.930  0.00  0.00    +0.000 C 
BRANCH  22  23
ATOM     23  O   UNL     1      48.422   3.349  19.110  0.00  0.00    +0.000 OA
ATOM     24  H   UNL     1      47.662   2.950  19.564  0.00  0.00    +0.000 HD
ENDBRANCH  22  23
ENDBRANCH  16  22
ENDBRANCH  14  19
ENDBRANCH   1  14
TORSDOF 6
ENDMDL
