MODEL 1
REMARK VINA RESULT:    -7.844      0.000      0.000
REMARK INTER + INTRA:         -11.006
REMARK INTER:                 -10.366
REMARK INTRA:                  -0.640
REMARK UNBOUND:                -0.640
REMARK  Name = 
REMARK  6 active torsions:
REMARK  status: ('A' for Active; 'I' for Inactive)
REMARK    1  A    between atoms: N_1  and  C_2
REMARK    2  A    between atoms: C_2  and  C_3
REMARK    3  A    between atoms: C_7  and  C_8
REMARK    4  A    between atoms: C_8  and  C_9
REMARK    5  A    between atoms: C_9  and  N_10
REMARK    6  A    between atoms: C_14  and  C_15
REMARK                            x       y       z     vdW  Elec       q    Type
REMARK                         _______ _______ _______ _____ _____    ______ ____
ROOT
ATOM      1  N   UNL     1      43.635   3.633  10.562  0.00  0.00    +0.000 N 
ATOM      2  C   UNL     1      44.578   3.324   9.560  0.00  0.00    +0.000 A 
ATOM      3  C   UNL     1      44.978   2.002   9.385  0.00  0.00    +0.000 A 
ATOM      4  C   UNL     1      45.906   1.689   8.384  0.00  0.00    +0.000 A 
ATOM      5  C   UNL     1      46.421   2.701   7.573  0.00  0.00    +0.000 A 
ATOM      6  C   UNL     1      45.985   3.987   7.831  0.00  0.00    +0.000 A 
ATOM      7  N   UNL     1      45.092   4.312   8.798  0.00  0.00    +0.000 NA
ATOM      8  H   UNL     1      42.810   3.062  10.406  0.00  0.00    +0.000 HD
ENDROOT
BRANCH   5   9
ATOM      9  C   UNL     1      47.382   2.365   6.496  0.00  0.00    +0.000 C 
ATOM     10  N   UNL     1      47.385   3.109   5.349  0.00  0.00    +0.000 N 
ATOM     11  O   UNL     1      48.164   1.427   6.618  0.00  0.00    +0.000 OA
ATOM     12  H   UNL     1      46.781   3.888   5.139  0.00  0.00    +0.000 HD
ATOM     13  H   UNL     1      48.049   2.835   4.635  0.00  0.00    +0.000 HD
ENDBRANCH   5   9
BRANCH   1  14
ATOM     14  C   UNL     1      43.317   5.068  10.616  0.00  0.00    +0.000 C 
BRANCH  14  15
ATOM     15  C   UNL     1      43.453   5.620  12.041  0.00  0.00    +0.000 C 
BRANCH  15  20
ATOM     16  C   UNL     1      46.766   5.197  13.910  0.00  0.00    +0.000 A 
ATOM     17  C   UNL     1      47.636   5.912  13.077  0.00  0.00    +0.000 A 
ATOM     18  C   UNL     1      47.153   6.568  11.945  0.00  0.00    +0.000 A 
ATOM     19  C   UNL     1      45.796   6.500  11.619  0.00  0.00    +0.000 A 
ATOM     20  C   UNL     1      44.907   5.781  12.429  0.00  0.00    +0.000 A 
ATOM     21  C   UNL     1      45.402   5.145  13.579  0.00  0.00    +0.000 A 
BRANCH  16  22
ATOM     22  C   UNL     1      47.294   4.448  15.107  0.00  0.00    +0.000 C 
BRANCH  22  23
ATOM     23  N   UNL     1      47.595   3.056  14.793  0.00  0.00    +0.000 NA
ATOM     24  H   UNL     1      47.301   2.470  15.571  0.00  0.00    +0.000 HD
ATOM     25  H   UNL     1      48.606   2.951  14.717  0.00  0.00    +0.000 HD
ENDBRANCH  22  23
ENDBRANCH  16  22
ENDBRANCH  15  20
ENDBRANCH  14  15
ENDBRANCH   1  14
TORSDOF 6
ENDMDL
MODEL 2
REMARK VINA RESULT:    -7.737      1.771      2.350
REMARK INTER + INTRA:         -10.865
REMARK INTER:                 -10.325
REMARK INTRA:                  -0.540
REMARK UNBOUND:                -0.640
REMARK  Name = 
REMARK  6 active torsions:
REMARK  status: ('A' for Active; 'I' for Inactive)
REMARK    1  A    between atoms: N_1  and  C_2
REMARK    2  A    between atoms: C_2  and  C_3
REMARK    3  A    between atoms: C_7  and  C_8
REMARK    4  A    between atoms: C_8  and  C_9
REMARK    5  A    between atoms: C_9  and  N_10
REMARK    6  A    between atoms: C_14  and  C_15
REMARK                            x       y       z     vdW  Elec       q    Type
REMARK                         _______ _______ _______ _____ _____    ______ ____
ROOT
ATOM      1  N   UNL     1      43.861   5.003  10.030  0.00  0.00    +0.000 N 
ATOM      2  C   UNL     1      44.660   4.075   9.330  0.00  0.00    +0.000 A 
ATOM      3  C   UNL     1      45.463   4.521   8.284  0.00  0.00    +0.000 A 
ATOM      4  C   UNL     1      46.266   3.606   7.593  0.00  0.00    +0.000 A 
ATOM      5  C   UNL     1      46.254   2.258   7.957  0.00  0.00    +0.000 A 
ATOM      6  C   UNL     1      45.410   1.901   8.992  0.00  0.00    +0.000 A 
ATOM      7  N   UNL     1      44.622   2.770   9.671  0.00  0.00    +0.000 NA
ATOM      8  H   UNL     1      44.465   5.743  10.377  0.00  0.00    +0.000 HD
ENDROOT
BRANCH   5   9
ATOM      9  C   UNL     1      47.125   1.294   7.243  0.00  0.00    +0.000 C 
ATOM     10  N   UNL     1      48.163   1.766   6.490  0.00  0.00    +0.000 N 
ATOM     11  O   UNL     1      46.920   0.086   7.314  0.00  0.00    +0.000 OA
ATOM     12  H   UNL     1      48.412   2.733   6.352  0.00  0.00    +0.000 HD
ATOM     13  H   UNL     1      48.724   1.072   6.008  0.00  0.00    +0.000 HD
ENDBRANCH   5   9
BRANCH   1  14
ATOM     14  C   UNL     1      43.075   4.376  11.104  0.00  0.00    +0.000 C 
BRANCH  14  15
ATOM     15  C   UNL     1      43.203   5.154  12.420  0.00  0.00    +0.000 C 
BRANCH  15  20
ATOM     16  C   UNL     1      46.442   7.050  13.171  0.00  0.00    +0.000 A 
ATOM     17  C   UNL     1      47.288   5.996  13.542  0.00  0.00    +0.000 A 
ATOM     18  C   UNL     1      46.835   4.678  13.505  0.00  0.00    +0.000 A 
ATOM     19  C   UNL     1      45.522   4.396  13.117  0.00  0.00    +0.000 A 
ATOM     20  C   UNL     1      44.653   5.433  12.754  0.00  0.00    +0.000 A 
ATOM     21  C   UNL     1      45.128   6.754  12.772  0.00  0.00    +0.000 A 
BRANCH  16  22
ATOM     22  C   UNL     1      46.915   8.478  13.257  0.00  0.00    +0.000 C 
BRANCH  22  23
ATOM     23  N   UNL     1      47.120   8.906  14.636  0.00  0.00    +0.000 NA
ATOM     24  H   UNL     1      47.521   8.134  15.165  0.00  0.00    +0.000 HD
ATOM     25  H   UNL     1      46.212   9.103  15.054  0.00  0.00    +0.000 HD
ENDBRANCH  22  23
ENDBRANCH  16  22
ENDBRANCH  15  20
ENDBRANCH  14  15
ENDBRANCH   1  14
TORSDOF 6
ENDMDL
MODEL 3
REMARK VINA RESULT:    -7.532      2.794      6.424
REMARK INTER + INTRA:         -10.594
REMARK INTER:                 -10.069
REMARK INTRA:                  -0.525
REMARK UNBOUND:                -0.640
REMARK  Name = 
REMARK  6 active torsions:
REMARK  status: ('A' for Active; 'I' for Inactive)
REMARK    1  A    between atoms: N_1  and  C_2
REMARK    2  A    between atoms: C_2  and  C_3
REMARK    3  A    between atoms: C_7  and  C_8
REMARK    4  A    between atoms: C_8  and  C_9
REMARK    5  A    between atoms: C_9  and  N_10
REMARK    6  A    between atoms: C_14  and  C_15
REMARK                            x       y       z     vdW  Elec       q    Type
REMARK                         _______ _______ _______ _____ _____    ______ ____
ROOT
ATOM      1  N   UNL     1      44.895   3.052  12.460  0.00  0.00    +0.000 N 
ATOM      2  C   UNL     1      45.530   4.282  12.728  0.00  0.00    +0.000 A 
ATOM      3  C   UNL     1      46.559   4.328  13.665  0.00  0.00    +0.000 A 
ATOM      4  C   UNL     1      47.200   5.544  13.928  0.00  0.00    +0.000 A 
ATOM      5  C   UNL     1      46.802   6.698  13.251  0.00  0.00    +0.000 A 
ATOM      6  C   UNL     1      45.758   6.566  12.355  0.00  0.00    +0.000 A 
ATOM      7  N   UNL     1      45.121   5.399  12.090  0.00  0.00    +0.000 NA
ATOM      8  H   UNL     1      45.608   2.380  12.191  0.00  0.00    +0.000 HD
ENDROOT
BRANCH   5   9
ATOM      9  C   UNL     1      47.500   7.981  13.509  0.00  0.00    +0.000 C 
ATOM     10  N   UNL     1      46.979   8.848  14.428  0.00  0.00    +0.000 N 
ATOM     11  O   UNL     1      48.527   8.273  12.905  0.00  0.00    +0.000 OA
ATOM     12  H   UNL     1      46.139   8.716  14.968  0.00  0.00    +0.000 HD
ATOM     13  H   UNL     1      47.481   9.719  14.562  0.00  0.00    +0.000 HD
ENDBRANCH   5   9
BRANCH   1  14
ATOM     14  C   UNL     1      43.834   3.172  11.448  0.00  0.00    +0.000 C 
BRANCH  14  15
ATOM     15  C   UNL     1      44.023   2.158  10.312  0.00  0.00    +0.000 C 
BRANCH  15  20
ATOM     16  C   UNL     1      46.648   2.214   7.527  0.00  0.00    +0.000 A 
ATOM     17  C   UNL     1      46.686   3.581   7.223  0.00  0.00    +0.000 A 
ATOM     18  C   UNL     1      45.907   4.488   7.942  0.00  0.00    +0.000 A 
ATOM     19  C   UNL     1      45.064   4.037   8.960  0.00  0.00    +0.000 A 
ATOM     20  C   UNL     1      44.999   2.674   9.276  0.00  0.00    +0.000 A 
ATOM     21  C   UNL     1      45.805   1.773   8.561  0.00  0.00    +0.000 A 
BRANCH  16  22
ATOM     22  C   UNL     1      47.451   1.226   6.719  0.00  0.00    +0.000 C 
BRANCH  22  23
ATOM     23  N   UNL     1      48.454   1.885   5.889  0.00  0.00    +0.000 NA
ATOM     24  H   UNL     1      48.078   2.771   5.558  0.00  0.00    +0.000 HD
ATOM     25  H   UNL     1      48.618   1.313   5.062  0.00  0.00    +0.000 HD
ENDBRANCH  22  23
ENDBRANCH  16  22
ENDBRANCH  15  20
ENDBRANCH  14  15
ENDBRANCH   1  14
TORSDOF 6
ENDMDL
MODEL 4
REMARK VINA RESULT:    -6.748      2.218      3.195
REMARK INTER + INTRA:          -9.558
REMARK INTER:                  -9.167
REMARK INTRA:                  -0.392
REMARK UNBOUND:                -0.640
REMARK  Name = 
REMARK  6 active torsions:
REMARK  status: ('A' for Active; 'I' for Inactive)
REMARK    1  A    between atoms: N_1  and  C_2
REMARK    2  A    between atoms: C_2  and  C_3
REMARK    3  A    between atoms: C_7  and  C_8
REMARK    4  A    between atoms: C_8  and  C_9
REMARK    5  A    between atoms: C_9  and  N_10
REMARK    6  A    between atoms: C_14  and  C_15
REMARK                            x       y       z     vdW  Elec       q    Type
REMARK                         _______ _______ _______ _____ _____    ______ ____
ROOT
ATOM      1  N   UNL     1      43.908   3.815  10.642  0.00  0.00    +0.000 N 
ATOM      2  C   UNL     1      44.786   3.475   9.593  0.00  0.00    +0.000 A 
ATOM      3  C   UNL     1      44.974   2.134   9.268  0.00  0.00    +0.000 A 
ATOM      4  C   UNL     1      45.836   1.792   8.220  0.00  0.00    +0.000 A 
ATOM      5  C   UNL     1      46.499   2.795   7.511  0.00  0.00    +0.000 A 
ATOM      6  C   UNL     1      46.271   4.097   7.915  0.00  0.00    +0.000 A 
ATOM      7  N   UNL     1      45.444   4.449   8.930  0.00  0.00    +0.000 NA
ATOM      8  H   UNL     1      43.002   3.399  10.445  0.00  0.00    +0.000 HD
ENDROOT
BRANCH   5   9
ATOM      9  C   UNL     1      47.391   2.434   6.384  0.00  0.00    +0.000 C 
ATOM     10  N   UNL     1      47.309   3.141   5.217  0.00  0.00    +0.000 N 
ATOM     11  O   UNL     1      48.191   1.508   6.483  0.00  0.00    +0.000 OA
ATOM     12  H   UNL     1      46.683   3.906   5.023  0.00  0.00    +0.000 HD
ATOM     13  H   UNL     1      47.928   2.850   4.468  0.00  0.00    +0.000 HD
ENDBRANCH   5   9
BRANCH   1  14
ATOM     14  C   UNL     1      43.819   5.268  10.857  0.00  0.00    +0.000 C 
BRANCH  14  15
ATOM     15  C   UNL     1      44.396   5.671  12.220  0.00  0.00    +0.000 C 
BRANCH  15  20
ATOM     16  C   UNL     1      45.241   9.376  11.768  0.00  0.00    +0.000 A 
ATOM     17  C   UNL     1      46.602   9.382  12.101  0.00  0.00    +0.000 A 
ATOM     18  C   UNL     1      47.257   8.194  12.424  0.00  0.00    +0.000 A 
ATOM     19  C   UNL     1      46.555   6.986  12.438  0.00  0.00    +0.000 A 
ATOM     20  C   UNL     1      45.191   6.955  12.120  0.00  0.00    +0.000 A 
ATOM     21  C   UNL     1      44.548   8.154  11.774  0.00  0.00    +0.000 A 
BRANCH  16  22
ATOM     22  C   UNL     1      44.520  10.665  11.466  0.00  0.00    +0.000 C 
BRANCH  22  23
ATOM     23  N   UNL     1      43.192  10.704  12.069  0.00  0.00    +0.000 NA
ATOM     24  H   UNL     1      42.737   9.805  11.925  0.00  0.00    +0.000 HD
ATOM     25  H   UNL     1      42.630  11.395  11.575  0.00  0.00    +0.000 HD
ENDBRANCH  22  23
ENDBRANCH  16  22
ENDBRANCH  15  20
ENDBRANCH  14  15
ENDBRANCH   1  14
TORSDOF 6
ENDMDL
MODEL 5
REMARK VINA RESULT:    -6.342      2.984      6.982
REMARK INTER + INTRA:          -9.021
REMARK INTER:                  -8.707
REMARK INTRA:                  -0.314
REMARK UNBOUND:                -0.640
REMARK  Name = 
REMARK  6 active torsions:
REMARK  status: ('A' for Active; 'I' for Inactive)
REMARK    1  A    between atoms: N_1  and  C_2
REMARK    2  A    between atoms: C_2  and  C_3
REMARK    3  A    between atoms: C_7  and  C_8
REMARK    4  A    between atoms: C_8  and  C_9
REMARK    5  A    between atoms: C_9  and  N_10
REMARK    6  A    between atoms: C_14  and  C_15
REMARK                            x       y       z     vdW  Elec       q    Type
REMARK                         _______ _______ _______ _____ _____    ______ ____
ROOT
ATOM      1  N   UNL     1      45.284   4.545  11.830  0.00  0.00    +0.000 N 
ATOM      2  C   UNL     1      46.175   5.090  12.776  0.00  0.00    +0.000 A 
ATOM      3  C   UNL     1      46.441   4.386  13.947  0.00  0.00    +0.000 A 
ATOM      4  C   UNL     1      47.333   4.918  14.885  0.00  0.00    +0.000 A 
ATOM      5  C   UNL     1      47.948   6.147  14.639  0.00  0.00    +0.000 A 
ATOM      6  C   UNL     1      47.610   6.787  13.462  0.00  0.00    +0.000 A 
ATOM      7  N   UNL     1      46.745   6.291  12.543  0.00  0.00    +0.000 NA
ATOM      8  H   UNL     1      45.614   3.616  11.582  0.00  0.00    +0.000 HD
ENDROOT
BRANCH   5   9
ATOM      9  C   UNL     1      48.914   6.697  15.620  0.00  0.00    +0.000 C 
ATOM     10  N   UNL     1      48.456   7.494  16.631  0.00  0.00    +0.000 N 
ATOM     11  O   UNL     1      50.113   6.452  15.530  0.00  0.00    +0.000 OA
ATOM     12  H   UNL     1      47.499   7.769  16.790  0.00  0.00    +0.000 HD
ATOM     13  H   UNL     1      49.153   7.859  17.270  0.00  0.00    +0.000 HD
ENDBRANCH   5   9
BRANCH   1  14
ATOM     14  C   UNL     1      45.114   5.408  10.650  0.00  0.00    +0.000 C 
BRANCH  14  15
ATOM     15  C   UNL     1      44.183   4.764   9.613  0.00  0.00    +0.000 C 
BRANCH  15  20
ATOM     16  C   UNL     1      46.498   2.747   7.328  0.00  0.00    +0.000 A 
ATOM     17  C   UNL     1      46.242   1.443   7.772  0.00  0.00    +0.000 A 
ATOM     18  C   UNL     1      45.296   1.208   8.769  0.00  0.00    +0.000 A 
ATOM     19  C   UNL     1      44.607   2.276   9.350  0.00  0.00    +0.000 A 
ATOM     20  C   UNL     1      44.853   3.590   8.931  0.00  0.00    +0.000 A 
ATOM     21  C   UNL     1      45.791   3.812   7.910  0.00  0.00    +0.000 A 
BRANCH  16  22
ATOM     22  C   UNL     1      47.555   3.008   6.286  0.00  0.00    +0.000 C 
BRANCH  22  23
ATOM     23  N   UNL     1      48.559   1.951   6.247  0.00  0.00    +0.000 NA
ATOM     24  H   UNL     1      48.761   1.651   7.199  0.00  0.00    +0.000 HD
ATOM     25  H   UNL     1      49.426   2.337   5.876  0.00  0.00    +0.000 HD
ENDBRANCH  22  23
ENDBRANCH  16  22
ENDBRANCH  15  20
ENDBRANCH  14  15
ENDBRANCH   1  14
TORSDOF 6
ENDMDL
MODEL 6
REMARK VINA RESULT:    -6.320      3.547      5.992
REMARK INTER + INTRA:          -8.992
REMARK INTER:                  -8.683
REMARK INTRA:                  -0.309
REMARK UNBOUND:                -0.640
REMARK  Name = 
REMARK  6 active torsions:
REMARK  status: ('A' for Active; 'I' for Inactive)
REMARK    1  A    between atoms: N_1  and  C_2
REMARK    2  A    between atoms: C_2  and  C_3
REMARK    3  A    between atoms: C_7  and  C_8
REMARK    4  A    between atoms: C_8  and  C_9
REMARK    5  A    between atoms: C_9  and  N_10
REMARK    6  A    between atoms: C_14  and  C_15
REMARK                            x       y       z     vdW  Elec       q    Type
REMARK                         _______ _______ _______ _____ _____    ______ ____
ROOT
ATOM      1  N   UNL     1      47.090   5.101  14.980  0.00  0.00    +0.000 N 
ATOM      2  C   UNL     1      46.405   4.776  13.791  0.00  0.00    +0.000 A 
ATOM      3  C   UNL     1      45.982   5.799  12.947  0.00  0.00    +0.000 A 
ATOM      4  C   UNL     1      45.310   5.481  11.760  0.00  0.00    +0.000 A 
ATOM      5  C   UNL     1      45.071   4.145  11.435  0.00  0.00    +0.000 A 
ATOM      6  C   UNL     1      45.507   3.196  12.341  0.00  0.00    +0.000 A 
ATOM      7  N   UNL     1      46.154   3.483  13.497  0.00  0.00    +0.000 NA
ATOM      8  H   UNL     1      47.893   5.674  14.735  0.00  0.00    +0.000 HD
ENDROOT
BRANCH   5   9
ATOM      9  C   UNL     1      44.385   3.807  10.165  0.00  0.00    +0.000 C 
ATOM     10  N   UNL     1      44.436   4.693   9.125  0.00  0.00    +0.000 N 
ATOM     11  O   UNL     1      43.769   2.753  10.041  0.00  0.00    +0.000 OA
ATOM     12  H   UNL     1      44.899   5.588   9.122  0.00  0.00    +0.000 HD
ATOM     13  H   UNL     1      43.940   4.427   8.281  0.00  0.00    +0.000 HD
ENDBRANCH   5   9
BRANCH   1  14
ATOM     14  C   UNL     1      47.471   3.912  15.757  0.00  0.00    +0.000 C 
BRANCH  14  15
ATOM     15  C   UNL     1      47.709   4.257  17.232  0.00  0.00    +0.000 C 
BRANCH  15  20
ATOM     16  C   UNL     1      51.156   2.636  17.600  0.00  0.00    +0.000 A 
ATOM     17  C   UNL     1      51.891   3.693  18.153  0.00  0.00    +0.000 A 
ATOM     18  C   UNL     1      51.271   4.906  18.451  0.00  0.00    +0.000 A 
ATOM     19  C   UNL     1      49.912   5.086  18.181  0.00  0.00    +0.000 A 
ATOM     20  C   UNL     1      49.158   4.049  17.617  0.00  0.00    +0.000 A 
ATOM     21  C   UNL     1      49.788   2.824  17.343  0.00  0.00    +0.000 A 
BRANCH  16  22
ATOM     22  C   UNL     1      51.835   1.341  17.232  0.00  0.00    +0.000 C 
BRANCH  22  23
ATOM     23  N   UNL     1      51.513   0.269  18.167  0.00  0.00    +0.000 NA
ATOM     24  H   UNL     1      50.658   0.509  18.664  0.00  0.00    +0.000 HD
ATOM     25  H   UNL     1      52.251   0.216  18.868  0.00  0.00    +0.000 HD
ENDBRANCH  22  23
ENDBRANCH  16  22
ENDBRANCH  15  20
ENDBRANCH  14  15
ENDBRANCH   1  14
TORSDOF 6
ENDMDL
MODEL 7
REMARK VINA RESULT:    -6.222      1.961      2.503
REMARK INTER + INTRA:          -8.862
REMARK INTER:                  -8.395
REMARK INTRA:                  -0.467
REMARK UNBOUND:                -0.640
REMARK  Name = 
REMARK  6 active torsions:
REMARK  status: ('A' for Active; 'I' for Inactive)
REMARK    1  A    between atoms: N_1  and  C_2
REMARK    2  A    between atoms: C_2  and  C_3
REMARK    3  A    between atoms: C_7  and  C_8
REMARK    4  A    between atoms: C_8  and  C_9
REMARK    5  A    between atoms: C_9  and  N_10
REMARK    6  A    between atoms: C_14  and  C_15
REMARK                            x       y       z     vdW  Elec       q    Type
REMARK                         _______ _______ _______ _____ _____    ______ ____
ROOT
ATOM      1  N   UNL     1      43.580   4.457  11.325  0.00  0.00    +0.000 N 
ATOM      2  C   UNL     1      44.352   3.973  10.249  0.00  0.00    +0.000 A 
ATOM      3  C   UNL     1      44.300   2.620   9.928  0.00  0.00    +0.000 A 
ATOM      4  C   UNL     1      45.057   2.136   8.854  0.00  0.00    +0.000 A 
ATOM      5  C   UNL     1      45.854   3.012   8.116  0.00  0.00    +0.000 A 
ATOM      6  C   UNL     1      45.862   4.334   8.518  0.00  0.00    +0.000 A 
ATOM      7  N   UNL     1      45.141   4.822   9.558  0.00  0.00    +0.000 NA
ATOM      8  H   UNL     1      42.611   4.200  11.161  0.00  0.00    +0.000 HD
ENDROOT
BRANCH   5   9
ATOM      9  C   UNL     1      46.634   2.504   6.962  0.00  0.00    +0.000 C 
ATOM     10  N   UNL     1      47.408   1.388   7.120  0.00  0.00    +0.000 N 
ATOM     11  O   UNL     1      46.598   3.074   5.876  0.00  0.00    +0.000 OA
ATOM     12  H   UNL     1      47.520   0.853   7.966  0.00  0.00    +0.000 HD
ATOM     13  H   UNL     1      47.934   1.085   6.308  0.00  0.00    +0.000 HD
ENDBRANCH   5   9
BRANCH   1  14
ATOM     14  C   UNL     1      43.743   5.905  11.532  0.00  0.00    +0.000 C 
BRANCH  14  15
ATOM     15  C   UNL     1      44.562   6.202  12.795  0.00  0.00    +0.000 C 
BRANCH  15  20
ATOM     16  C   UNL     1      47.787   8.156  12.138  0.00  0.00    +0.000 A 
ATOM     17  C   UNL     1      47.285   9.454  11.975  0.00  0.00    +0.000 A 
ATOM     18  C   UNL     1      45.921   9.709  12.122  0.00  0.00    +0.000 A 
ATOM     19  C   UNL     1      45.039   8.666  12.414  0.00  0.00    +0.000 A 
ATOM     20  C   UNL     1      45.514   7.357  12.570  0.00  0.00    +0.000 A 
ATOM     21  C   UNL     1      46.892   7.117  12.443  0.00  0.00    +0.000 A 
BRANCH  16  22
ATOM     22  C   UNL     1      49.252   7.870  11.931  0.00  0.00    +0.000 C 
BRANCH  22  23
ATOM     23  N   UNL     1      49.695   6.704  12.688  0.00  0.00    +0.000 NA
ATOM     24  H   UNL     1      50.698   6.586  12.558  0.00  0.00    +0.000 HD
ATOM     25  H   UNL     1      49.253   5.874  12.296  0.00  0.00    +0.000 HD
ENDBRANCH  22  23
ENDBRANCH  16  22
ENDBRANCH  15  20
ENDBRANCH  14  15
ENDBRANCH   1  14
TORSDOF 6
ENDMDL
MODEL 8
REMARK VINA RESULT:    -6.022      3.281      7.131
REMARK INTER + INTRA:          -8.599
REMARK INTER:                  -8.121
REMARK INTRA:                  -0.478
REMARK UNBOUND:                -0.640
REMARK  Name = 
REMARK  6 active torsions:
REMARK  status: ('A' for Active; 'I' for Inactive)
REMARK    1  A    between atoms: N_1  and  C_2
REMARK    2  A    between atoms: C_2  and  C_3
REMARK    3  A    between atoms: C_7  and  C_8
REMARK    4  A    between atoms: C_8  and  C_9
REMARK    5  A    between atoms: C_9  and  N_10
REMARK    6  A    between atoms: C_14  and  C_15
REMARK                            x       y       z     vdW  Elec       q    Type
REMARK                         _______ _______ _______ _____ _____    ______ ____
ROOT
ATOM      1  N   UNL     1      48.086   7.148  13.412  0.00  0.00    +0.000 N 
ATOM      2  C   UNL     1      47.997   6.154  14.408  0.00  0.00    +0.000 A 
ATOM      3  C   UNL     1      48.518   6.409  15.674  0.00  0.00    +0.000 A 
ATOM      4  C   UNL     1      48.424   5.430  16.669  0.00  0.00    +0.000 A 
ATOM      5  C   UNL     1      47.811   4.208  16.386  0.00  0.00    +0.000 A 
ATOM      6  C   UNL     1      47.342   4.032  15.098  0.00  0.00    +0.000 A 
ATOM      7  N   UNL     1      47.428   4.965  14.118  0.00  0.00    +0.000 NA
ATOM      8  H   UNL     1      47.659   7.996  13.773  0.00  0.00    +0.000 HD
ENDROOT
BRANCH   5   9
ATOM      9  C   UNL     1      47.687   3.182  17.448  0.00  0.00    +0.000 C 
ATOM     10  N   UNL     1      48.795   2.831  18.168  0.00  0.00    +0.000 N 
ATOM     11  O   UNL     1      46.610   2.642  17.681  0.00  0.00    +0.000 OA
ATOM     12  H   UNL     1      49.725   3.199  18.052  0.00  0.00    +0.000 HD
ATOM     13  H   UNL     1      48.666   2.116  18.875  0.00  0.00    +0.000 HD
ENDBRANCH   5   9
BRANCH   1  14
ATOM     14  C   UNL     1      47.489   6.724  12.136  0.00  0.00    +0.000 C 
BRANCH  14  15
ATOM     15  C   UNL     1      46.063   7.266  11.976  0.00  0.00    +0.000 C 
BRANCH  15  20
ATOM     16  C   UNL     1      44.285   4.246  10.438  0.00  0.00    +0.000 A 
ATOM     17  C   UNL     1      43.359   3.940  11.444  0.00  0.00    +0.000 A 
ATOM     18  C   UNL     1      43.274   4.729  12.591  0.00  0.00    +0.000 A 
ATOM     19  C   UNL     1      44.127   5.823  12.756  0.00  0.00    +0.000 A 
ATOM     20  C   UNL     1      45.069   6.142  11.771  0.00  0.00    +0.000 A 
ATOM     21  C   UNL     1      45.130   5.355  10.610  0.00  0.00    +0.000 A 
BRANCH  16  22
ATOM     22  C   UNL     1      44.412   3.366   9.220  0.00  0.00    +0.000 C 
BRANCH  22  23
ATOM     23  N   UNL     1      44.860   2.020   9.562  0.00  0.00    +0.000 NA
ATOM     24  H   UNL     1      44.410   1.731  10.427  0.00  0.00    +0.000 HD
ATOM     25  H   UNL     1      45.861   2.049   9.751  0.00  0.00    +0.000 HD
ENDBRANCH  22  23
ENDBRANCH  16  22
ENDBRANCH  15  20
ENDBRANCH  14  15
ENDBRANCH   1  14
TORSDOF 6
ENDMDL
MODEL 9
REMARK VINA RESULT:    -5.931      3.919      5.898
REMARK INTER + INTRA:          -8.478
REMARK INTER:                  -7.966
REMARK INTRA:                  -0.512
REMARK UNBOUND:                -0.640
REMARK  Name = 
REMARK  6 active torsions:
REMARK  status: ('A' for Active; 'I' for Inactive)
REMARK    1  A    between atoms: N_1  and  C_2
REMARK    2  A    between atoms: C_2  and  C_3
REMARK    3  A    between atoms: C_7  and  C_8
REMARK    4  A    between atoms: C_8  and  C_9
REMARK    5  A    between atoms: C_9  and  N_10
REMARK    6  A    between atoms: C_14  and  C_15
REMARK                            x       y       z     vdW  Elec       q    Type
REMARK                         _______ _______ _______ _____ _____    ______ ____
ROOT
ATOM      1  N   UNL     1      47.520   7.565  13.463  0.00  0.00    +0.000 N 
ATOM      2  C   UNL     1      46.572   6.580  13.119  0.00  0.00    +0.000 A 
ATOM      3  C   UNL     1      45.382   6.963  12.507  0.00  0.00    +0.000 A 
ATOM      4  C   UNL     1      44.442   5.988  12.154  0.00  0.00    +0.000 A 
ATOM      5  C   UNL     1      44.705   4.643  12.420  0.00  0.00    +0.000 A 
ATOM      6  C   UNL     1      45.900   4.355  13.050  0.00  0.00    +0.000 A 
ATOM      7  N   UNL     1      46.821   5.285  13.404  0.00  0.00    +0.000 NA
ATOM      8  H   UNL     1      47.743   8.096  12.625  0.00  0.00    +0.000 HD
ENDROOT
BRANCH   5   9
ATOM      9  C   UNL     1      43.720   3.608  12.021  0.00  0.00    +0.000 C 
ATOM     10  N   UNL     1      43.833   2.348  12.538  0.00  0.00    +0.000 N 
ATOM     11  O   UNL     1      42.818   3.867  11.232  0.00  0.00    +0.000 OA
ATOM     12  H   UNL     1      44.540   2.025  13.180  0.00  0.00    +0.000 HD
ATOM     13  H   UNL     1      43.147   1.669  12.227  0.00  0.00    +0.000 HD
ENDBRANCH   5   9
BRANCH   1  14
ATOM     14  C   UNL     1      48.720   6.999  14.098  0.00  0.00    +0.000 C 
BRANCH  14  15
ATOM     15  C   UNL     1      48.771   7.325  15.596  0.00  0.00    +0.000 C 
BRANCH  15  20
ATOM     16  C   UNL     1      48.936   3.960  17.410  0.00  0.00    +0.000 A 
ATOM     17  C   UNL     1      50.302   3.888  17.717  0.00  0.00    +0.000 A 
ATOM     18  C   UNL     1      51.158   4.938  17.384  0.00  0.00    +0.000 A 
ATOM     19  C   UNL     1      50.663   6.065  16.722  0.00  0.00    +0.000 A 
ATOM     20  C   UNL     1      49.305   6.155  16.394  0.00  0.00    +0.000 A 
ATOM     21  C   UNL     1      48.448   5.102  16.755  0.00  0.00    +0.000 A 
BRANCH  16  22
ATOM     22  C   UNL     1      48.019   2.806  17.725  0.00  0.00    +0.000 C 
BRANCH  22  23
ATOM     23  N   UNL     1      46.617   3.147  17.513  0.00  0.00    +0.000 NA
ATOM     24  H   UNL     1      46.500   3.490  16.562  0.00  0.00    +0.000 HD
ATOM     25  H   UNL     1      46.372   3.918  18.132  0.00  0.00    +0.000 HD
ENDBRANCH  22  23
ENDBRANCH  16  22
ENDBRANCH  15  20
ENDBRANCH  14  15
ENDBRANCH   1  14
TORSDOF 6
ENDMDL
