MODEL 1
REMARK VINA RESULT:    -8.158      0.000      0.000
REMARK INTER + INTRA:         -12.536
REMARK INTER:                 -11.496
REMARK INTRA:                  -1.040
REMARK UNBOUND:                -1.040
REMARK  Name = 
REMARK  8 active torsions:
REMARK  status: ('A' for Active; 'I' for Inactive)
REMARK    1  A    between atoms: C_1  and  C_2
REMARK    2  A    between atoms: C_2  and  C_3
REMARK    3  A    between atoms: C_2  and  N_19
REMARK    4  A    between atoms: C_3  and  C_4
REMARK    5  A    between atoms: C_7  and  C_8
REMARK    6  A    between atoms: C_8  and  N_9
REMARK    7  A    between atoms: N_9  and  C_10
REMARK    8  A    between atoms: C_10  and  C_11
REMARK                            x       y       z     vdW  Elec       q    Type
REMARK                         _______ _______ _______ _____ _____    ______ ____
ROOT
ATOM      1  C   UNL     1      46.395   6.285  12.926  0.00  0.00    +0.000 A 
ATOM      2  C   UNL     1      46.069   6.386  11.575  0.00  0.00    +0.000 A 
ATOM      3  C   UNL     1      45.198   5.481  10.981  0.00  0.00    +0.000 A 
ATOM      4  C   UNL     1      44.655   4.476  11.765  0.00  0.00    +0.000 A 
ATOM      5  N   UNL     1      44.942   4.338  13.084  0.00  0.00    +0.000 NA
ATOM      6  C   UNL     1      45.801   5.239  13.626  0.00  0.00    +0.000 A 
ENDROOT
BRANCH   1   7
ATOM      7  C   UNL     1      47.328   7.249  13.630  0.00  0.00    +0.000 C 
BRANCH   7   9
ATOM      8  C   UNL     1      49.870   7.393  13.867  0.00  0.00    +0.000 C 
ATOM      9  C   UNL     1      48.607   6.626  14.255  0.00  0.00    +0.000 C 
BRANCH   9  10
ATOM     10  N   UNL     1      48.559   6.418  15.706  0.00  0.00    +0.000 N 
ATOM     11  C   UNL     1      48.818   7.414  16.629  0.00  0.00    +0.000 A 
ATOM     12  C   UNL     1      48.870   6.838  17.880  0.00  0.00    +0.000 A 
ATOM     13  C   UNL     1      48.612   5.450  17.724  0.00  0.00    +0.000 A 
ATOM     14  C   UNL     1      48.531   4.318  18.522  0.00  0.00    +0.000 A 
ATOM     15 CL   UNL     1      48.789   4.469  20.193  0.00  0.00    +0.000 Cl
ATOM     16  N   UNL     1      48.263   3.102  18.026  0.00  0.00    +0.000 NA
ATOM     17  C   UNL     1      48.068   3.034  16.703  0.00  0.00    +0.000 A 
ATOM     18  N   UNL     1      48.098   4.038  15.811  0.00  0.00    +0.000 NA
ATOM     19  C   UNL     1      48.390   5.226  16.370  0.00  0.00    +0.000 A 
ENDBRANCH   9  10
ENDBRANCH   7   9
ENDBRANCH   1   7
BRANCH   4  20
ATOM     20  C   UNL     1      43.657   3.524  11.133  0.00  0.00    +0.000 C 
BRANCH  20  21
ATOM     21  N   UNL     1      43.884   3.271   9.706  0.00  0.00    +0.000 NA
ATOM     22  H   UNL     1      44.468   4.042   9.364  0.00  0.00    +0.000 HD
BRANCH  21  23
ATOM     23  C   UNL     1      44.648   2.031   9.480  0.00  0.00    +0.000 C 
BRANCH  23  24
ATOM     24  C   UNL     1      45.679   2.187   8.379  0.00  0.00    +0.000 A 
ATOM     25  C   UNL     1      45.807   3.394   7.693  0.00  0.00    +0.000 A 
ATOM     26  C   UNL     1      46.769   3.504   6.693  0.00  0.00    +0.000 A 
ATOM     27  C   UNL     1      47.576   2.411   6.405  0.00  0.00    +0.000 A 
ATOM     28  C   UNL     1      47.387   1.248   7.130  0.00  0.00    +0.000 A 
ATOM     29  N   UNL     1      46.460   1.110   8.103  0.00  0.00    +0.000 NA
ENDBRANCH  23  24
ENDBRANCH  21  23
ENDBRANCH  20  21
ENDBRANCH   4  20
TORSDOF 7
ENDMDL
MODEL 2
REMARK VINA RESULT:    -7.381      3.748      5.384
REMARK INTER + INTRA:         -11.442
REMARK INTER:                 -10.488
REMARK INTRA:                  -0.954
REMARK UNBOUND:                -1.040
REMARK  Name = 
REMARK  8 active torsions:
REMARK  status: ('A' for Active; 'I' for Inactive)
REMARK    1  A    between atoms: C_1  and  C_2
REMARK    2  A    between atoms: C_2  and  C_3
REMARK    3  A    between atoms: C_2  and  N_19
REMARK    4  A    between atoms: C_3  and  C_4
REMARK    5  A    between atoms: C_7  and  C_8
REMARK    6  A    between atoms: C_8  and  N_9
REMARK    7  A    between atoms: N_9  and  C_10
REMARK    8  A    between atoms: C_10  and  C_11
REMARK                            x       y       z     vdW  Elec       q    Type
REMARK                         _______ _______ _______ _____ _____    ______ ____
ROOT
ATOM      1  C   UNL     1      46.896   5.776  13.070  0.00  0.00    +0.000 A 
ATOM      2  C   UNL     1      46.531   4.481  13.433  0.00  0.00    +0.000 A 
ATOM      3  C   UNL     1      45.462   3.842  12.818  0.00  0.00    +0.000 A 
ATOM      4  C   UNL     1      44.769   4.520  11.827  0.00  0.00    +0.000 A 
ATOM      5  N   UNL     1      45.088   5.780  11.440  0.00  0.00    +0.000 NA
ATOM      6  C   UNL     1      46.135   6.373  12.069  0.00  0.00    +0.000 A 
ENDROOT
BRANCH   1   7
ATOM      7  C   UNL     1      48.058   6.518  13.697  0.00  0.00    +0.000 C 
BRANCH   7   9
ATOM      8  C   UNL     1      48.403   8.573  15.180  0.00  0.00    +0.000 C 
ATOM      9  C   UNL     1      47.889   8.057  13.836  0.00  0.00    +0.000 C 
BRANCH   9  10
ATOM     10  N   UNL     1      48.444   8.852  12.736  0.00  0.00    +0.000 N 
ATOM     11  C   UNL     1      49.774   8.817  12.364  0.00  0.00    +0.000 A 
ATOM     12  C   UNL     1      49.987   9.812  11.433  0.00  0.00    +0.000 A 
ATOM     13  C   UNL     1      48.744  10.461  11.209  0.00  0.00    +0.000 A 
ATOM     14  C   UNL     1      48.250  11.511  10.448  0.00  0.00    +0.000 A 
ATOM     15 CL   UNL     1      49.312  12.369   9.441  0.00  0.00    +0.000 Cl
ATOM     16  N   UNL     1      46.963  11.883  10.481  0.00  0.00    +0.000 NA
ATOM     17  C   UNL     1      46.164  11.177  11.291  0.00  0.00    +0.000 A 
ATOM     18  N   UNL     1      46.493  10.132  12.070  0.00  0.00    +0.000 NA
ATOM     19  C   UNL     1      47.800   9.822  12.004  0.00  0.00    +0.000 A 
ENDBRANCH   9  10
ENDBRANCH   7   9
ENDBRANCH   1   7
BRANCH   4  20
ATOM     20  C   UNL     1      43.640   3.801  11.112  0.00  0.00    +0.000 C 
BRANCH  20  21
ATOM     21  N   UNL     1      43.891   3.547   9.690  0.00  0.00    +0.000 NA
ATOM     22  H   UNL     1      44.602   4.226   9.395  0.00  0.00    +0.000 HD
BRANCH  21  23
ATOM     23  C   UNL     1      44.465   2.210   9.461  0.00  0.00    +0.000 C 
BRANCH  23  24
ATOM     24  C   UNL     1      45.551   2.226   8.402  0.00  0.00    +0.000 A 
ATOM     25  C   UNL     1      45.767   3.363   7.626  0.00  0.00    +0.000 A 
ATOM     26  C   UNL     1      46.777   3.346   6.668  0.00  0.00    +0.000 A 
ATOM     27  C   UNL     1      47.544   2.198   6.511  0.00  0.00    +0.000 A 
ATOM     28  C   UNL     1      47.267   1.111   7.320  0.00  0.00    +0.000 A 
ATOM     29  N   UNL     1      46.292   1.096   8.255  0.00  0.00    +0.000 NA
ENDBRANCH  23  24
ENDBRANCH  21  23
ENDBRANCH  20  21
ENDBRANCH   4  20
TORSDOF 7
ENDMDL
MODEL 3
REMARK VINA RESULT:    -7.266      1.363      1.793
REMARK INTER + INTRA:         -11.279
REMARK INTER:                 -10.231
REMARK INTRA:                  -1.048
REMARK UNBOUND:                -1.040
REMARK  Name = 
REMARK  8 active torsions:
REMARK  status: ('A' for Active; 'I' for Inactive)
REMARK    1  A    between atoms: C_1  and  C_2
REMARK    2  A    between atoms: C_2  and  C_3
REMARK    3  A    between atoms: C_2  and  N_19
REMARK    4  A    between atoms: C_3  and  C_4
REMARK    5  A    between atoms: C_7  and  C_8
REMARK    6  A    between atoms: C_8  and  N_9
REMARK    7  A    between atoms: N_9  and  C_10
REMARK    8  A    between atoms: C_10  and  C_11
REMARK                            x       y       z     vdW  Elec       q    Type
REMARK                         _______ _______ _______ _____ _____    ______ ____
ROOT
ATOM      1  C   UNL     1      47.379   7.433  13.142  0.00  0.00    +0.000 A 
ATOM      2  C   UNL     1      47.382   6.056  12.931  0.00  0.00    +0.000 A 
ATOM      3  C   UNL     1      46.254   5.406  12.444  0.00  0.00    +0.000 A 
ATOM      4  C   UNL     1      45.125   6.161  12.167  0.00  0.00    +0.000 A 
ATOM      5  N   UNL     1      45.077   7.504  12.355  0.00  0.00    +0.000 NA
ATOM      6  C   UNL     1      46.197   8.101  12.837  0.00  0.00    +0.000 A 
ENDROOT
BRANCH   1   7
ATOM      7  C   UNL     1      48.581   8.196  13.658  0.00  0.00    +0.000 C 
BRANCH   7   9
ATOM      8  C   UNL     1      50.942   7.979  14.619  0.00  0.00    +0.000 C 
ATOM      9  C   UNL     1      49.520   7.419  14.622  0.00  0.00    +0.000 C 
BRANCH   9  10
ATOM     10  N   UNL     1      49.029   7.276  15.997  0.00  0.00    +0.000 N 
ATOM     11  C   UNL     1      49.025   8.307  16.917  0.00  0.00    +0.000 A 
ATOM     12  C   UNL     1      48.679   7.785  18.146  0.00  0.00    +0.000 A 
ATOM     13  C   UNL     1      48.440   6.396  17.969  0.00  0.00    +0.000 A 
ATOM     14  C   UNL     1      48.087   5.302  18.746  0.00  0.00    +0.000 A 
ATOM     15 CL   UNL     1      47.831   5.521  20.409  0.00  0.00    +0.000 Cl
ATOM     16  N   UNL     1      47.946   4.070  18.237  0.00  0.00    +0.000 NA
ATOM     17  C   UNL     1      48.159   3.947  16.920  0.00  0.00    +0.000 A 
ATOM     18  N   UNL     1      48.488   4.910  16.044  0.00  0.00    +0.000 NA
ATOM     19  C   UNL     1      48.631   6.117  16.621  0.00  0.00    +0.000 A 
ENDBRANCH   9  10
ENDBRANCH   7   9
ENDBRANCH   1   7
BRANCH   4  20
ATOM     20  C   UNL     1      43.913   5.463  11.579  0.00  0.00    +0.000 C 
BRANCH  20  21
ATOM     21  N   UNL     1      44.025   5.162  10.147  0.00  0.00    +0.000 NA
ATOM     22  H   UNL     1      44.949   5.495   9.852  0.00  0.00    +0.000 HD
BRANCH  21  23
ATOM     23  C   UNL     1      43.995   3.713   9.884  0.00  0.00    +0.000 C 
BRANCH  23  24
ATOM     24  C   UNL     1      45.079   3.285   8.913  0.00  0.00    +0.000 A 
ATOM     25  C   UNL     1      45.466   1.949   8.827  0.00  0.00    +0.000 A 
ATOM     26  C   UNL     1      46.459   1.590   7.920  0.00  0.00    +0.000 A 
ATOM     27  C   UNL     1      47.037   2.570   7.124  0.00  0.00    +0.000 A 
ATOM     28  C   UNL     1      46.598   3.874   7.269  0.00  0.00    +0.000 A 
ATOM     29  N   UNL     1      45.640   4.254   8.143  0.00  0.00    +0.000 NA
ENDBRANCH  23  24
ENDBRANCH  21  23
ENDBRANCH  20  21
ENDBRANCH   4  20
TORSDOF 7
ENDMDL
MODEL 4
REMARK VINA RESULT:    -7.094      1.722      2.361
REMARK INTER + INTRA:         -11.036
REMARK INTER:                 -10.534
REMARK INTRA:                  -0.502
REMARK UNBOUND:                -1.040
REMARK  Name = 
REMARK  8 active torsions:
REMARK  status: ('A' for Active; 'I' for Inactive)
REMARK    1  A    between atoms: C_1  and  C_2
REMARK    2  A    between atoms: C_2  and  C_3
REMARK    3  A    between atoms: C_2  and  N_19
REMARK    4  A    between atoms: C_3  and  C_4
REMARK    5  A    between atoms: C_7  and  C_8
REMARK    6  A    between atoms: C_8  and  N_9
REMARK    7  A    between atoms: N_9  and  C_10
REMARK    8  A    between atoms: C_10  and  C_11
REMARK                            x       y       z     vdW  Elec       q    Type
REMARK                         _______ _______ _______ _____ _____    ______ ____
ROOT
ATOM      1  C   UNL     1      46.742   4.865  13.761  0.00  0.00    +0.000 A 
ATOM      2  C   UNL     1      45.860   5.810  13.242  0.00  0.00    +0.000 A 
ATOM      3  C   UNL     1      44.805   5.428  12.422  0.00  0.00    +0.000 A 
ATOM      4  C   UNL     1      44.646   4.082  12.135  0.00  0.00    +0.000 A 
ATOM      5  N   UNL     1      45.479   3.126  12.618  0.00  0.00    +0.000 NA
ATOM      6  C   UNL     1      46.500   3.539  13.412  0.00  0.00    +0.000 A 
ENDROOT
BRANCH   1   7
ATOM      7  C   UNL     1      47.900   5.220  14.670  0.00  0.00    +0.000 C 
BRANCH   7   9
ATOM      8  C   UNL     1      47.740   3.507  16.562  0.00  0.00    +0.000 C 
ATOM      9  C   UNL     1      47.671   4.987  16.190  0.00  0.00    +0.000 C 
BRANCH   9  10
ATOM     10  N   UNL     1      48.524   5.780  17.082  0.00  0.00    +0.000 N 
ATOM     11  C   UNL     1      49.777   6.242  16.728  0.00  0.00    +0.000 A 
ATOM     12  C   UNL     1      50.370   6.780  17.851  0.00  0.00    +0.000 A 
ATOM     13  C   UNL     1      49.442   6.666  18.921  0.00  0.00    +0.000 A 
ATOM     14  C   UNL     1      49.383   6.971  20.273  0.00  0.00    +0.000 A 
ATOM     15 CL   UNL     1      50.728   7.694  21.013  0.00  0.00    +0.000 Cl
ATOM     16  N   UNL     1      48.305   6.711  21.025  0.00  0.00    +0.000 NA
ATOM     17  C   UNL     1      47.270   6.140  20.397  0.00  0.00    +0.000 A 
ATOM     18  N   UNL     1      47.176   5.803  19.100  0.00  0.00    +0.000 NA
ATOM     19  C   UNL     1      48.296   6.074  18.406  0.00  0.00    +0.000 A 
ENDBRANCH   9  10
ENDBRANCH   7   9
ENDBRANCH   1   7
BRANCH   4  20
ATOM     20  C   UNL     1      43.461   3.656  11.289  0.00  0.00    +0.000 C 
BRANCH  20  21
ATOM     21  N   UNL     1      43.774   3.451   9.871  0.00  0.00    +0.000 NA
ATOM     22  H   UNL     1      44.450   4.178   9.615  0.00  0.00    +0.000 HD
BRANCH  21  23
ATOM     23  C   UNL     1      44.437   2.157   9.635  0.00  0.00    +0.000 C 
BRANCH  23  24
ATOM     24  C   UNL     1      45.473   2.238   8.530  0.00  0.00    +0.000 A 
ATOM     25  C   UNL     1      45.671   3.427   7.830  0.00  0.00    +0.000 A 
ATOM     26  C   UNL     1      46.636   3.468   6.827  0.00  0.00    +0.000 A 
ATOM     27  C   UNL     1      47.375   2.325   6.549  0.00  0.00    +0.000 A 
ATOM     28  C   UNL     1      47.118   1.184   7.288  0.00  0.00    +0.000 A 
ATOM     29  N   UNL     1      46.187   1.113   8.265  0.00  0.00    +0.000 NA
ENDBRANCH  23  24
ENDBRANCH  21  23
ENDBRANCH  20  21
ENDBRANCH   4  20
TORSDOF 7
ENDMDL
MODEL 5
REMARK VINA RESULT:    -7.082      1.596      2.341
REMARK INTER + INTRA:         -11.020
REMARK INTER:                 -10.453
REMARK INTRA:                  -0.567
REMARK UNBOUND:                -1.040
REMARK  Name = 
REMARK  8 active torsions:
REMARK  status: ('A' for Active; 'I' for Inactive)
REMARK    1  A    between atoms: C_1  and  C_2
REMARK    2  A    between atoms: C_2  and  C_3
REMARK    3  A    between atoms: C_2  and  N_19
REMARK    4  A    between atoms: C_3  and  C_4
REMARK    5  A    between atoms: C_7  and  C_8
REMARK    6  A    between atoms: C_8  and  N_9
REMARK    7  A    between atoms: N_9  and  C_10
REMARK    8  A    between atoms: C_10  and  C_11
REMARK                            x       y       z     vdW  Elec       q    Type
REMARK                         _______ _______ _______ _____ _____    ______ ____
ROOT
ATOM      1  C   UNL     1      47.344   6.302  13.818  0.00  0.00    +0.000 A 
ATOM      2  C   UNL     1      46.775   6.591  12.580  0.00  0.00    +0.000 A 
ATOM      3  C   UNL     1      45.884   5.709  11.982  0.00  0.00    +0.000 A 
ATOM      4  C   UNL     1      45.569   4.535  12.647  0.00  0.00    +0.000 A 
ATOM      5  N   UNL     1      46.098   4.212  13.854  0.00  0.00    +0.000 NA
ATOM      6  C   UNL     1      46.968   5.097  14.404  0.00  0.00    +0.000 A 
ENDROOT
BRANCH   1   7
ATOM      7  C   UNL     1      48.311   7.230  14.524  0.00  0.00    +0.000 C 
BRANCH   7   9
ATOM      8  C   UNL     1      50.760   7.315  15.257  0.00  0.00    +0.000 C 
ATOM      9  C   UNL     1      49.443   6.544  15.338  0.00  0.00    +0.000 C 
BRANCH   9  10
ATOM     10  N   UNL     1      49.115   6.238  16.735  0.00  0.00    +0.000 N 
ATOM     11  C   UNL     1      49.183   4.967  17.274  0.00  0.00    +0.000 A 
ATOM     12  C   UNL     1      48.633   5.006  18.537  0.00  0.00    +0.000 A 
ATOM     13  C   UNL     1      48.236   6.347  18.791  0.00  0.00    +0.000 A 
ATOM     14  C   UNL     1      47.628   7.069  19.807  0.00  0.00    +0.000 A 
ATOM     15 CL   UNL     1      47.161   6.262  21.225  0.00  0.00    +0.000 Cl
ATOM     16  N   UNL     1      47.384   8.383  19.713  0.00  0.00    +0.000 NA
ATOM     17  C   UNL     1      47.770   8.975  18.576  0.00  0.00    +0.000 A 
ATOM     18  N   UNL     1      48.381   8.414  17.518  0.00  0.00    +0.000 NA
ATOM     19  C   UNL     1      48.579   7.092  17.669  0.00  0.00    +0.000 A 
ENDBRANCH   9  10
ENDBRANCH   7   9
ENDBRANCH   1   7
BRANCH   4  20
ATOM     20  C   UNL     1      44.550   3.599  12.024  0.00  0.00    +0.000 C 
BRANCH  20  21
ATOM     21  N   UNL     1      45.092   2.731  10.972  0.00  0.00    +0.000 NA
ATOM     22  H   UNL     1      44.765   1.782  11.182  0.00  0.00    +0.000 HD
BRANCH  21  23
ATOM     23  C   UNL     1      44.558   3.077   9.643  0.00  0.00    +0.000 C 
BRANCH  23  24
ATOM     24  C   UNL     1      45.493   2.658   8.524  0.00  0.00    +0.000 A 
ATOM     25  C   UNL     1      45.836   3.556   7.515  0.00  0.00    +0.000 A 
ATOM     26  C   UNL     1      46.702   3.141   6.507  0.00  0.00    +0.000 A 
ATOM     27  C   UNL     1      47.203   1.846   6.533  0.00  0.00    +0.000 A 
ATOM     28  C   UNL     1      46.814   1.015   7.569  0.00  0.00    +0.000 A 
ATOM     29  N   UNL     1      45.972   1.388   8.559  0.00  0.00    +0.000 NA
ENDBRANCH  23  24
ENDBRANCH  21  23
ENDBRANCH  20  21
ENDBRANCH   4  20
TORSDOF 7
ENDMDL
MODEL 6
REMARK VINA RESULT:    -6.822      3.349      4.654
REMARK INTER + INTRA:         -10.654
REMARK INTER:                  -9.812
REMARK INTRA:                  -0.842
REMARK UNBOUND:                -1.040
REMARK  Name = 
REMARK  8 active torsions:
REMARK  status: ('A' for Active; 'I' for Inactive)
REMARK    1  A    between atoms: C_1  and  C_2
REMARK    2  A    between atoms: C_2  and  C_3
REMARK    3  A    between atoms: C_2  and  N_19
REMARK    4  A    between atoms: C_3  and  C_4
REMARK    5  A    between atoms: C_7  and  C_8
REMARK    6  A    between atoms: C_8  and  N_9
REMARK    7  A    between atoms: N_9  and  C_10
REMARK    8  A    between atoms: C_10  and  C_11
REMARK                            x       y       z     vdW  Elec       q    Type
REMARK                         _______ _______ _______ _____ _____    ______ ____
ROOT
ATOM      1  C   UNL     1      46.792   6.239  12.912  0.00  0.00    +0.000 A 
ATOM      2  C   UNL     1      45.806   5.437  13.483  0.00  0.00    +0.000 A 
ATOM      3  C   UNL     1      44.766   4.929  12.715  0.00  0.00    +0.000 A 
ATOM      4  C   UNL     1      44.734   5.233  11.364  0.00  0.00    +0.000 A 
ATOM      5  N   UNL     1      45.671   6.008  10.764  0.00  0.00    +0.000 NA
ATOM      6  C   UNL     1      46.669   6.490  11.549  0.00  0.00    +0.000 A 
ENDROOT
BRANCH   1   7
ATOM      7  C   UNL     1      47.956   6.810  13.696  0.00  0.00    +0.000 C 
BRANCH   7   9
ATOM      8  C   UNL     1      48.013   9.336  13.298  0.00  0.00    +0.000 C 
ATOM      9  C   UNL     1      48.705   8.000  13.034  0.00  0.00    +0.000 C 
BRANCH   9  10
ATOM     10  N   UNL     1      50.135   8.093  13.347  0.00  0.00    +0.000 N 
ATOM     11  C   UNL     1      50.664   7.811  14.592  0.00  0.00    +0.000 A 
ATOM     12  C   UNL     1      51.993   8.179  14.589  0.00  0.00    +0.000 A 
ATOM     13  C   UNL     1      52.295   8.680  13.294  0.00  0.00    +0.000 A 
ATOM     14  C   UNL     1      53.384   9.214  12.623  0.00  0.00    +0.000 A 
ATOM     15 CL   UNL     1      54.857   9.386  13.448  0.00  0.00    +0.000 Cl
ATOM     16  N   UNL     1      53.321   9.611  11.344  0.00  0.00    +0.000 NA
ATOM     17  C   UNL     1      52.138   9.456  10.735  0.00  0.00    +0.000 A 
ATOM     18  N   UNL     1      51.008   8.943  11.248  0.00  0.00    +0.000 NA
ATOM     19  C   UNL     1      51.134   8.582  12.538  0.00  0.00    +0.000 A 
ENDBRANCH   9  10
ENDBRANCH   7   9
ENDBRANCH   1   7
BRANCH   4  20
ATOM     20  C   UNL     1      43.632   4.630  10.512  0.00  0.00    +0.000 C 
BRANCH  20  21
ATOM     21  N   UNL     1      44.078   4.150   9.200  0.00  0.00    +0.000 NA
ATOM     22  H   UNL     1      44.883   4.729   8.936  0.00  0.00    +0.000 HD
BRANCH  21  23
ATOM     23  C   UNL     1      44.561   2.759   9.256  0.00  0.00    +0.000 C 
BRANCH  23  24
ATOM     24  C   UNL     1      45.634   2.482   8.221  0.00  0.00    +0.000 A 
ATOM     25  C   UNL     1      45.939   3.430   7.245  0.00  0.00    +0.000 A 
ATOM     26  C   UNL     1      46.934   3.146   6.314  0.00  0.00    +0.000 A 
ATOM     27  C   UNL     1      47.599   1.928   6.382  0.00  0.00    +0.000 A 
ATOM     28  C   UNL     1      47.238   1.040   7.380  0.00  0.00    +0.000 A 
ATOM     29  N   UNL     1      46.274   1.286   8.294  0.00  0.00    +0.000 NA
ENDBRANCH  23  24
ENDBRANCH  21  23
ENDBRANCH  20  21
ENDBRANCH   4  20
TORSDOF 7
ENDMDL
MODEL 7
REMARK VINA RESULT:    -6.673      1.976      3.213
REMARK INTER + INTRA:         -10.444
REMARK INTER:                  -9.800
REMARK INTRA:                  -0.643
REMARK UNBOUND:                -1.040
REMARK  Name = 
REMARK  8 active torsions:
REMARK  status: ('A' for Active; 'I' for Inactive)
REMARK    1  A    between atoms: C_1  and  C_2
REMARK    2  A    between atoms: C_2  and  C_3
REMARK    3  A    between atoms: C_2  and  N_19
REMARK    4  A    between atoms: C_3  and  C_4
REMARK    5  A    between atoms: C_7  and  C_8
REMARK    6  A    between atoms: C_8  and  N_9
REMARK    7  A    between atoms: N_9  and  C_10
REMARK    8  A    between atoms: C_10  and  C_11
REMARK                            x       y       z     vdW  Elec       q    Type
REMARK                         _______ _______ _______ _____ _____    ______ ____
ROOT
ATOM      1  C   UNL     1      46.607   4.154  13.858  0.00  0.00    +0.000 A 
ATOM      2  C   UNL     1      46.202   5.456  13.572  0.00  0.00    +0.000 A 
ATOM      3  C   UNL     1      45.324   5.716  12.527  0.00  0.00    +0.000 A 
ATOM      4  C   UNL     1      44.854   4.649  11.777  0.00  0.00    +0.000 A 
ATOM      5  N   UNL     1      45.220   3.365  12.020  0.00  0.00    +0.000 NA
ATOM      6  C   UNL     1      46.083   3.152  13.046  0.00  0.00    +0.000 A 
ENDROOT
BRANCH   1   7
ATOM      7  C   UNL     1      47.550   3.808  14.992  0.00  0.00    +0.000 C 
BRANCH   7   9
ATOM      8  C   UNL     1      46.994   4.222  17.454  0.00  0.00    +0.000 C 
ATOM      9  C   UNL     1      47.590   4.813  16.177  0.00  0.00    +0.000 C 
BRANCH   9  10
ATOM     10  N   UNL     1      48.902   5.408  16.451  0.00  0.00    +0.000 N 
ATOM     11  C   UNL     1      49.747   4.966  17.450  0.00  0.00    +0.000 A 
ATOM     12  C   UNL     1      50.795   5.855  17.553  0.00  0.00    +0.000 A 
ATOM     13  C   UNL     1      50.600   6.862  16.570  0.00  0.00    +0.000 A 
ATOM     14  C   UNL     1      51.228   8.022  16.141  0.00  0.00    +0.000 A 
ATOM     15 CL   UNL     1      52.656   8.519  16.912  0.00  0.00    +0.000 Cl
ATOM     16  N   UNL     1      50.749   8.777  15.143  0.00  0.00    +0.000 NA
ATOM     17  C   UNL     1      49.620   8.345  14.566  0.00  0.00    +0.000 A 
ATOM     18  N   UNL     1      48.913   7.241  14.860  0.00  0.00    +0.000 NA
ATOM     19  C   UNL     1      49.437   6.540  15.881  0.00  0.00    +0.000 A 
ENDBRANCH   9  10
ENDBRANCH   7   9
ENDBRANCH   1   7
BRANCH   4  20
ATOM     20  C   UNL     1      43.849   4.925  10.675  0.00  0.00    +0.000 C 
BRANCH  20  21
ATOM     21  N   UNL     1      44.344   4.644   9.323  0.00  0.00    +0.000 NA
ATOM     22  H   UNL     1      45.311   4.985   9.290  0.00  0.00    +0.000 HD
BRANCH  21  23
ATOM     23  C   UNL     1      44.398   3.198   9.045  0.00  0.00    +0.000 C 
BRANCH  23  24
ATOM     24  C   UNL     1      45.548   2.834   8.125  0.00  0.00    +0.000 A 
ATOM     25  C   UNL     1      46.133   1.571   8.187  0.00  0.00    +0.000 A 
ATOM     26  C   UNL     1      47.182   1.268   7.323  0.00  0.00    +0.000 A 
ATOM     27  C   UNL     1      47.618   2.231   6.422  0.00  0.00    +0.000 A 
ATOM     28  C   UNL     1      46.986   3.462   6.423  0.00  0.00    +0.000 A 
ATOM     29  N   UNL     1      45.969   3.786   7.251  0.00  0.00    +0.000 NA
ENDBRANCH  23  24
ENDBRANCH  21  23
ENDBRANCH  20  21
ENDBRANCH   4  20
TORSDOF 7
ENDMDL
MODEL 8
REMARK VINA RESULT:    -6.498      2.891      8.328
REMARK INTER + INTRA:         -10.197
REMARK INTER:                  -9.496
REMARK INTRA:                  -0.702
REMARK UNBOUND:                -1.040
REMARK  Name = 
REMARK  8 active torsions:
REMARK  status: ('A' for Active; 'I' for Inactive)
REMARK    1  A    between atoms: C_1  and  C_2
REMARK    2  A    between atoms: C_2  and  C_3
REMARK    3  A    between atoms: C_2  and  N_19
REMARK    4  A    between atoms: C_3  and  C_4
REMARK    5  A    between atoms: C_7  and  C_8
REMARK    6  A    between atoms: C_8  and  N_9
REMARK    7  A    between atoms: N_9  and  C_10
REMARK    8  A    between atoms: C_10  and  C_11
REMARK                            x       y       z     vdW  Elec       q    Type
REMARK                         _______ _______ _______ _____ _____    ______ ____
ROOT
ATOM      1  C   UNL     1      47.957   7.151  12.592  0.00  0.00    +0.000 A 
ATOM      2  C   UNL     1      48.874   8.195  12.699  0.00  0.00    +0.000 A 
ATOM      3  C   UNL     1      49.734   8.279  13.787  0.00  0.00    +0.000 A 
ATOM      4  C   UNL     1      49.664   7.297  14.763  0.00  0.00    +0.000 A 
ATOM      5  N   UNL     1      48.788   6.263  14.700  0.00  0.00    +0.000 NA
ATOM      6  C   UNL     1      47.961   6.218  13.624  0.00  0.00    +0.000 A 
ENDROOT
BRANCH   1   7
ATOM      7  C   UNL     1      47.005   7.000  11.424  0.00  0.00    +0.000 C 
BRANCH   7   9
ATOM      8  C   UNL     1      44.573   7.794  11.388  0.00  0.00    +0.000 C 
ATOM      9  C   UNL     1      45.529   6.671  11.785  0.00  0.00    +0.000 C 
BRANCH   9  10
ATOM     10  N   UNL     1      45.036   5.380  11.292  0.00  0.00    +0.000 N 
ATOM     11  C   UNL     1      44.328   4.485  12.071  0.00  0.00    +0.000 A 
ATOM     12  C   UNL     1      44.187   3.313  11.360  0.00  0.00    +0.000 A 
ATOM     13  C   UNL     1      44.807   3.502  10.095  0.00  0.00    +0.000 A 
ATOM     14  C   UNL     1      45.045   2.769   8.942  0.00  0.00    +0.000 A 
ATOM     15 CL   UNL     1      44.499   1.164   8.859  0.00  0.00    +0.000 Cl
ATOM     16  N   UNL     1      45.697   3.275   7.887  0.00  0.00    +0.000 NA
ATOM     17  C   UNL     1      46.108   4.545   7.999  0.00  0.00    +0.000 A 
ATOM     18  N   UNL     1      45.939   5.378   9.039  0.00  0.00    +0.000 NA
ATOM     19  C   UNL     1      45.294   4.803  10.071  0.00  0.00    +0.000 A 
ENDBRANCH   9  10
ENDBRANCH   7   9
ENDBRANCH   1   7
BRANCH   4  20
ATOM     20  C   UNL     1      50.643   7.354  15.921  0.00  0.00    +0.000 C 
BRANCH  20  21
ATOM     21  N   UNL     1      51.228   6.058  16.281  0.00  0.00    +0.000 NA
ATOM     22  H   UNL     1      52.242   6.203  16.337  0.00  0.00    +0.000 HD
BRANCH  21  23
ATOM     23  C   UNL     1      50.793   5.608  17.614  0.00  0.00    +0.000 C 
BRANCH  23  24
ATOM     24  C   UNL     1      49.557   4.730  17.547  0.00  0.00    +0.000 A 
ATOM     25  C   UNL     1      48.326   5.203  17.997  0.00  0.00    +0.000 A 
ATOM     26  C   UNL     1      47.211   4.373  17.913  0.00  0.00    +0.000 A 
ATOM     27  C   UNL     1      47.354   3.097  17.384  0.00  0.00    +0.000 A 
ATOM     28  C   UNL     1      48.610   2.701  16.960  0.00  0.00    +0.000 A 
ATOM     29  N   UNL     1      49.710   3.482  17.031  0.00  0.00    +0.000 NA
ENDBRANCH  23  24
ENDBRANCH  21  23
ENDBRANCH  20  21
ENDBRANCH   4  20
TORSDOF 7
ENDMDL
MODEL 9
REMARK VINA RESULT:    -6.241      3.166      8.090
REMARK INTER + INTRA:          -9.835
REMARK INTER:                  -8.674
REMARK INTRA:                  -1.161
REMARK UNBOUND:                -1.040
REMARK  Name = 
REMARK  8 active torsions:
REMARK  status: ('A' for Active; 'I' for Inactive)
REMARK    1  A    between atoms: C_1  and  C_2
REMARK    2  A    between atoms: C_2  and  C_3
REMARK    3  A    between atoms: C_2  and  N_19
REMARK    4  A    between atoms: C_3  and  C_4
REMARK    5  A    between atoms: C_7  and  C_8
REMARK    6  A    between atoms: C_8  and  N_9
REMARK    7  A    between atoms: N_9  and  C_10
REMARK    8  A    between atoms: C_10  and  C_11
REMARK                            x       y       z     vdW  Elec       q    Type
REMARK                         _______ _______ _______ _____ _____    ______ ____
ROOT
ATOM      1  C   UNL     1      47.715   7.940  13.038  0.00  0.00    +0.000 A 
ATOM      2  C   UNL     1      47.645   6.762  13.778  0.00  0.00    +0.000 A 
ATOM      3  C   UNL     1      48.498   6.543  14.853  0.00  0.00    +0.000 A 
ATOM      4  C   UNL     1      49.419   7.528  15.176  0.00  0.00    +0.000 A 
ATOM      5  N   UNL     1      49.522   8.690  14.486  0.00  0.00    +0.000 NA
ATOM      6  C   UNL     1      48.674   8.865  13.439  0.00  0.00    +0.000 A 
ENDROOT
BRANCH   1   7
ATOM      7  C   UNL     1      46.803   8.240  11.866  0.00  0.00    +0.000 C 
BRANCH   7   9
ATOM      8  C   UNL     1      44.291   8.366  11.402  0.00  0.00    +0.000 C 
ATOM      9  C   UNL     1      45.451   7.473  11.840  0.00  0.00    +0.000 C 
BRANCH   9  10
ATOM     10  N   UNL     1      45.453   6.223  11.074  0.00  0.00    +0.000 N 
ATOM     11  C   UNL     1      46.106   6.069   9.866  0.00  0.00    +0.000 A 
ATOM     12  C   UNL     1      45.750   4.847   9.336  0.00  0.00    +0.000 A 
ATOM     13  C   UNL     1      44.869   4.221  10.259  0.00  0.00    +0.000 A 
ATOM     14  C   UNL     1      44.147   3.041  10.359  0.00  0.00    +0.000 A 
ATOM     15 CL   UNL     1      44.233   1.913   9.095  0.00  0.00    +0.000 Cl
ATOM     16  N   UNL     1      43.372   2.756  11.415  0.00  0.00    +0.000 NA
ATOM     17  C   UNL     1      43.335   3.677  12.387  0.00  0.00    +0.000 A 
ATOM     18  N   UNL     1      43.988   4.850  12.437  0.00  0.00    +0.000 NA
ATOM     19  C   UNL     1      44.731   5.083  11.341  0.00  0.00    +0.000 A 
ENDBRANCH   9  10
ENDBRANCH   7   9
ENDBRANCH   1   7
BRANCH   4  20
ATOM     20  C   UNL     1      50.310   7.316  16.386  0.00  0.00    +0.000 C 
BRANCH  20  21
ATOM     21  N   UNL     1      51.156   6.121  16.311  0.00  0.00    +0.000 NA
ATOM     22  H   UNL     1      52.127   6.451  16.312  0.00  0.00    +0.000 HD
BRANCH  21  23
ATOM     23  C   UNL     1      51.002   5.262  17.498  0.00  0.00    +0.000 C 
BRANCH  23  24
ATOM     24  C   UNL     1      49.698   4.488  17.481  0.00  0.00    +0.000 A 
ATOM     25  C   UNL     1      48.570   4.986  18.131  0.00  0.00    +0.000 A 
ATOM     26  C   UNL     1      47.387   4.254  18.089  0.00  0.00    +0.000 A 
ATOM     27  C   UNL     1      47.360   3.048  17.400  0.00  0.00    +0.000 A 
ATOM     28  C   UNL     1      48.521   2.621  16.782  0.00  0.00    +0.000 A 
ATOM     29  N   UNL     1      49.685   3.308  16.808  0.00  0.00    +0.000 NA
ENDBRANCH  23  24
ENDBRANCH  21  23
ENDBRANCH  20  21
ENDBRANCH   4  20
TORSDOF 7
ENDMDL
