MODEL 1
REMARK VINA RESULT:    -6.865      0.000      0.000
REMARK INTER + INTRA:          -9.735
REMARK INTER:                  -8.872
REMARK INTRA:                  -0.863
REMARK UNBOUND:                -0.863
REMARK  Name = 
REMARK  6 active torsions:
REMARK  status: ('A' for Active; 'I' for Inactive)
REMARK    1  A    between atoms: C_1  and  C_2
REMARK    2  A    between atoms: C_10  and  C_11
REMARK    3  A    between atoms: N_13  and  C_14
REMARK    4  A    between atoms: C_14  and  C_15
REMARK    5  A    between atoms: C_18  and  C_19
REMARK    6  A    between atoms: C_20  and  C_21
REMARK                            x       y       z     vdW  Elec       q    Type
REMARK                         _______ _______ _______ _____ _____    ______ ____
ROOT
ATOM      1  C   UNL     1      44.465   5.624  11.065  0.00  0.00    +0.000 C 
ATOM      2  O   UNL     1      43.406   6.241  11.051  0.00  0.00    +0.000 OA
ATOM      3  N   UNL     1      45.604   6.144  11.647  0.00  0.00    +0.000 N 
ATOM      4  H   UNL     1      46.366   5.516  11.854  0.00  0.00    +0.000 HD
ENDROOT
BRANCH   1  14
ATOM      5  C   UNL     1      43.348   2.736  12.267  0.00  0.00    +0.000 C 
ATOM      6  C   UNL     1      44.105   3.068  11.031  0.00  0.00    +0.000 A 
ATOM      7  N   UNL     1      44.504   2.058  10.188  0.00  0.00    +0.000 N 
ATOM      8  C   UNL     1      45.237   2.548   9.140  0.00  0.00    +0.000 A 
ATOM      9  C   UNL     1      45.832   1.872   8.067  0.00  0.00    +0.000 A 
ATOM     10  C   UNL     1      46.532   2.633   7.127  0.00  0.00    +0.000 A 
ATOM     11  C   UNL     1      46.633   4.013   7.264  0.00  0.00    +0.000 A 
ATOM     12  C   UNL     1      46.037   4.671   8.347  0.00  0.00    +0.000 A 
ATOM     13  C   UNL     1      45.319   3.928   9.311  0.00  0.00    +0.000 A 
ATOM     14  C   UNL     1      44.594   4.270  10.511  0.00  0.00    +0.000 A 
ATOM     15  H   UNL     1      44.311   1.076  10.327  0.00  0.00    +0.000 HD
ENDBRANCH   1  14
BRANCH   3  16
ATOM     16  C   UNL     1      45.558   7.426  12.307  0.00  0.00    +0.000 C 
BRANCH  16  17
ATOM     17  C   UNL     1      46.812   8.232  12.086  0.00  0.00    +0.000 A 
ATOM     18  C   UNL     1      46.776   9.628  12.181  0.00  0.00    +0.000 A 
ATOM     19  C   UNL     1      47.939  10.387  12.008  0.00  0.00    +0.000 A 
ATOM     20  C   UNL     1      49.166   9.770  11.739  0.00  0.00    +0.000 A 
ATOM     21  C   UNL     1      49.194   8.375  11.613  0.00  0.00    +0.000 A 
ATOM     22  C   UNL     1      48.032   7.612  11.784  0.00  0.00    +0.000 A 
BRANCH  20  23
ATOM     23  C   UNL     1      50.394  10.536  11.480  0.00  0.00    +0.000 C 
ATOM     24  C   UNL     1      51.224  10.340  10.438  0.00  0.00    +0.000 C 
BRANCH  24  25
ATOM     25  C   UNL     1      52.496  11.058  10.243  0.00  0.00    +0.000 A 
ATOM     26  C   UNL     1      53.427  11.223  11.279  0.00  0.00    +0.000 A 
ATOM     27  C   UNL     1      54.662  11.830  11.043  0.00  0.00    +0.000 A 
ATOM     28  C   UNL     1      54.988  12.272   9.764  0.00  0.00    +0.000 A 
ATOM     29  C   UNL     1      54.075  12.114   8.723  0.00  0.00    +0.000 A 
ATOM     30  C   UNL     1      52.838  11.509   8.961  0.00  0.00    +0.000 A 
ENDBRANCH  24  25
ENDBRANCH  20  23
ENDBRANCH  16  17
ENDBRANCH   3  16
TORSDOF 5
ENDMDL
MODEL 2
REMARK VINA RESULT:    -6.719      4.824      6.382
REMARK INTER + INTRA:          -9.545
REMARK INTER:                  -8.711
REMARK INTRA:                  -0.834
REMARK UNBOUND:                -0.863
REMARK  Name = 
REMARK  6 active torsions:
REMARK  status: ('A' for Active; 'I' for Inactive)
REMARK    1  A    between atoms: C_1  and  C_2
REMARK    2  A    between atoms: C_10  and  C_11
REMARK    3  A    between atoms: N_13  and  C_14
REMARK    4  A    between atoms: C_14  and  C_15
REMARK    5  A    between atoms: C_18  and  C_19
REMARK    6  A    between atoms: C_20  and  C_21
REMARK                            x       y       z     vdW  Elec       q    Type
REMARK                         _______ _______ _______ _____ _____    ______ ____
ROOT
ATOM      1  C   UNL     1      45.052   5.944  11.167  0.00  0.00    +0.000 C 
ATOM      2  O   UNL     1      44.091   6.667  11.401  0.00  0.00    +0.000 OA
ATOM      3  N   UNL     1      46.347   6.346  11.425  0.00  0.00    +0.000 N 
ATOM      4  H   UNL     1      47.071   5.644  11.452  0.00  0.00    +0.000 HD
ENDROOT
BRANCH   1  14
ATOM      5  C   UNL     1      43.580   3.302  12.540  0.00  0.00    +0.000 C 
ATOM      6  C   UNL     1      44.267   3.486  11.233  0.00  0.00    +0.000 A 
ATOM      7  N   UNL     1      44.412   2.413  10.387  0.00  0.00    +0.000 N 
ATOM      8  C   UNL     1      45.118   2.759   9.265  0.00  0.00    +0.000 A 
ATOM      9  C   UNL     1      45.492   1.980   8.163  0.00  0.00    +0.000 A 
ATOM     10  C   UNL     1      46.221   2.600   7.145  0.00  0.00    +0.000 A 
ATOM     11  C   UNL     1      46.564   3.944   7.235  0.00  0.00    +0.000 A 
ATOM     12  C   UNL     1      46.187   4.707   8.348  0.00  0.00    +0.000 A 
ATOM     13  C   UNL     1      45.446   4.107   9.391  0.00  0.00    +0.000 A 
ATOM     14  C   UNL     1      44.901   4.581  10.641  0.00  0.00    +0.000 A 
ATOM     15  H   UNL     1      44.070   1.480  10.568  0.00  0.00    +0.000 HD
ENDBRANCH   1  14
BRANCH   3  16
ATOM     16  C   UNL     1      46.597   7.629  12.036  0.00  0.00    +0.000 C 
BRANCH  16  17
ATOM     17  C   UNL     1      47.322   7.508  13.351  0.00  0.00    +0.000 A 
ATOM     18  C   UNL     1      47.639   6.246  13.867  0.00  0.00    +0.000 A 
ATOM     19  C   UNL     1      48.338   6.119  15.073  0.00  0.00    +0.000 A 
ATOM     20  C   UNL     1      48.741   7.251  15.790  0.00  0.00    +0.000 A 
ATOM     21  C   UNL     1      48.397   8.513  15.290  0.00  0.00    +0.000 A 
ATOM     22  C   UNL     1      47.696   8.643  14.084  0.00  0.00    +0.000 A 
BRANCH  20  23
ATOM     23  C   UNL     1      49.414   7.158  17.095  0.00  0.00    +0.000 C 
ATOM     24  C   UNL     1      49.456   6.057  17.868  0.00  0.00    +0.000 C 
BRANCH  24  25
ATOM     25  C   UNL     1      50.060   6.008  19.212  0.00  0.00    +0.000 A 
ATOM     26  C   UNL     1      49.670   5.064  20.172  0.00  0.00    +0.000 A 
ATOM     27  C   UNL     1      50.321   4.985  21.404  0.00  0.00    +0.000 A 
ATOM     28  C   UNL     1      51.380   5.842  21.690  0.00  0.00    +0.000 A 
ATOM     29  C   UNL     1      51.781   6.785  20.746  0.00  0.00    +0.000 A 
ATOM     30  C   UNL     1      51.127   6.866  19.513  0.00  0.00    +0.000 A 
ENDBRANCH  24  25
ENDBRANCH  20  23
ENDBRANCH  16  17
ENDBRANCH   3  16
TORSDOF 5
ENDMDL
MODEL 3
REMARK VINA RESULT:    -6.616      5.769      8.824
REMARK INTER + INTRA:          -9.413
REMARK INTER:                  -8.506
REMARK INTRA:                  -0.906
REMARK UNBOUND:                -0.863
REMARK  Name = 
REMARK  6 active torsions:
REMARK  status: ('A' for Active; 'I' for Inactive)
REMARK    1  A    between atoms: C_1  and  C_2
REMARK    2  A    between atoms: C_10  and  C_11
REMARK    3  A    between atoms: N_13  and  C_14
REMARK    4  A    between atoms: C_14  and  C_15
REMARK    5  A    between atoms: C_18  and  C_19
REMARK    6  A    between atoms: C_20  and  C_21
REMARK                            x       y       z     vdW  Elec       q    Type
REMARK                         _______ _______ _______ _____ _____    ______ ____
ROOT
ATOM      1  C   UNL     1      47.603   3.875  16.448  0.00  0.00    +0.000 C 
ATOM      2  O   UNL     1      46.632   3.396  17.020  0.00  0.00    +0.000 OA
ATOM      3  N   UNL     1      47.598   4.131  15.091  0.00  0.00    +0.000 N 
ATOM      4  H   UNL     1      48.308   4.743  14.716  0.00  0.00    +0.000 HD
ENDROOT
BRANCH   1  14
ATOM      5  C   UNL     1      48.429   6.794  17.802  0.00  0.00    +0.000 C 
ATOM      6  C   UNL     1      49.148   5.493  17.736  0.00  0.00    +0.000 A 
ATOM      7  N   UNL     1      50.414   5.391  18.262  0.00  0.00    +0.000 N 
ATOM      8  C   UNL     1      50.937   4.142  18.056  0.00  0.00    +0.000 A 
ATOM      9  C   UNL     1      52.183   3.619  18.421  0.00  0.00    +0.000 A 
ATOM     10  C   UNL     1      52.457   2.293  18.078  0.00  0.00    +0.000 A 
ATOM     11  C   UNL     1      51.520   1.528  17.393  0.00  0.00    +0.000 A 
ATOM     12  C   UNL     1      50.281   2.070  17.029  0.00  0.00    +0.000 A 
ATOM     13  C   UNL     1      49.974   3.408  17.366  0.00  0.00    +0.000 A 
ATOM     14  C   UNL     1      48.827   4.260  17.164  0.00  0.00    +0.000 A 
ATOM     15  H   UNL     1      50.914   6.140  18.720  0.00  0.00    +0.000 HD
ENDBRANCH   1  14
BRANCH   3  16
ATOM     16  C   UNL     1      46.409   3.883  14.313  0.00  0.00    +0.000 C 
BRANCH  16  17
ATOM     17  C   UNL     1      45.948   5.105  13.561  0.00  0.00    +0.000 A 
ATOM     18  C   UNL     1      46.804   6.202  13.410  0.00  0.00    +0.000 A 
ATOM     19  C   UNL     1      46.401   7.332  12.689  0.00  0.00    +0.000 A 
ATOM     20  C   UNL     1      45.133   7.390  12.099  0.00  0.00    +0.000 A 
ATOM     21  C   UNL     1      44.265   6.305  12.276  0.00  0.00    +0.000 A 
ATOM     22  C   UNL     1      44.666   5.174  12.999  0.00  0.00    +0.000 A 
BRANCH  20  23
ATOM     23  C   UNL     1      44.646   8.586  11.394  0.00  0.00    +0.000 C 
ATOM     24  C   UNL     1      43.366   8.810  11.043  0.00  0.00    +0.000 C 
BRANCH  24  25
ATOM     25  C   UNL     1      42.911   9.973  10.260  0.00  0.00    +0.000 A 
ATOM     26  C   UNL     1      41.646  10.549  10.446  0.00  0.00    +0.000 A 
ATOM     27  C   UNL     1      41.276  11.704   9.753  0.00  0.00    +0.000 A 
ATOM     28  C   UNL     1      42.171  12.305   8.872  0.00  0.00    +0.000 A 
ATOM     29  C   UNL     1      43.432  11.746   8.678  0.00  0.00    +0.000 A 
ATOM     30  C   UNL     1      43.801  10.588   9.369  0.00  0.00    +0.000 A 
ENDBRANCH  24  25
ENDBRANCH  20  23
ENDBRANCH  16  17
ENDBRANCH   3  16
TORSDOF 5
ENDMDL
MODEL 4
REMARK VINA RESULT:    -6.513      5.697      9.189
REMARK INTER + INTRA:          -9.279
REMARK INTER:                  -8.399
REMARK INTRA:                  -0.880
REMARK UNBOUND:                -0.863
REMARK  Name = 
REMARK  6 active torsions:
REMARK  status: ('A' for Active; 'I' for Inactive)
REMARK    1  A    between atoms: C_1  and  C_2
REMARK    2  A    between atoms: C_10  and  C_11
REMARK    3  A    between atoms: N_13  and  C_14
REMARK    4  A    between atoms: C_14  and  C_15
REMARK    5  A    between atoms: C_18  and  C_19
REMARK    6  A    between atoms: C_20  and  C_21
REMARK                            x       y       z     vdW  Elec       q    Type
REMARK                         _______ _______ _______ _____ _____    ______ ____
ROOT
ATOM      1  C   UNL     1      48.383   5.748  15.856  0.00  0.00    +0.000 C 
ATOM      2  O   UNL     1      49.456   6.173  15.443  0.00  0.00    +0.000 OA
ATOM      3  N   UNL     1      47.353   5.411  15.001  0.00  0.00    +0.000 N 
ATOM      4  H   UNL     1      46.599   4.844  15.358  0.00  0.00    +0.000 HD
ENDROOT
BRANCH   1  14
ATOM      5  C   UNL     1      47.847   2.896  17.473  0.00  0.00    +0.000 C 
ATOM      6  C   UNL     1      47.914   4.305  17.944  0.00  0.00    +0.000 A 
ATOM      7  N   UNL     1      47.678   4.588  19.269  0.00  0.00    +0.000 N 
ATOM      8  C   UNL     1      47.724   5.937  19.503  0.00  0.00    +0.000 A 
ATOM      9  C   UNL     1      47.538   6.648  20.695  0.00  0.00    +0.000 A 
ATOM     10  C   UNL     1      47.643   8.040  20.644  0.00  0.00    +0.000 A 
ATOM     11  C   UNL     1      47.917   8.689  19.445  0.00  0.00    +0.000 A 
ATOM     12  C   UNL     1      48.093   7.961  18.261  0.00  0.00    +0.000 A 
ATOM     13  C   UNL     1      47.997   6.552  18.283  0.00  0.00    +0.000 A 
ATOM     14  C   UNL     1      48.127   5.518  17.284  0.00  0.00    +0.000 A 
ATOM     15  H   UNL     1      47.471   3.902  19.981  0.00  0.00    +0.000 HD
ENDBRANCH   1  14
BRANCH   3  16
ATOM     16  C   UNL     1      47.539   5.506  13.574  0.00  0.00    +0.000 C 
BRANCH  16  17
ATOM     17  C   UNL     1      46.694   6.589  12.954  0.00  0.00    +0.000 A 
ATOM     18  C   UNL     1      45.683   6.259  12.044  0.00  0.00    +0.000 A 
ATOM     19  C   UNL     1      44.870   7.252  11.485  0.00  0.00    +0.000 A 
ATOM     20  C   UNL     1      45.047   8.598  11.823  0.00  0.00    +0.000 A 
ATOM     21  C   UNL     1      46.079   8.931  12.710  0.00  0.00    +0.000 A 
ATOM     22  C   UNL     1      46.895   7.940  13.271  0.00  0.00    +0.000 A 
BRANCH  20  23
ATOM     23  C   UNL     1      44.262   9.677  11.203  0.00  0.00    +0.000 C 
ATOM     24  C   UNL     1      43.047   9.526  10.643  0.00  0.00    +0.000 C 
BRANCH  24  25
ATOM     25  C   UNL     1      42.314  10.599   9.949  0.00  0.00    +0.000 A 
ATOM     26  C   UNL     1      40.978  10.905  10.248  0.00  0.00    +0.000 A 
ATOM     27  C   UNL     1      40.337  11.985   9.637  0.00  0.00    +0.000 A 
ATOM     28  C   UNL     1      41.025  12.781   8.727  0.00  0.00    +0.000 A 
ATOM     29  C   UNL     1      42.354  12.492   8.421  0.00  0.00    +0.000 A 
ATOM     30  C   UNL     1      42.995  11.409   9.030  0.00  0.00    +0.000 A 
ENDBRANCH  24  25
ENDBRANCH  20  23
ENDBRANCH  16  17
ENDBRANCH   3  16
TORSDOF 5
ENDMDL
MODEL 5
REMARK VINA RESULT:    -6.511      5.844      8.943
REMARK INTER + INTRA:          -9.277
REMARK INTER:                  -8.379
REMARK INTRA:                  -0.898
REMARK UNBOUND:                -0.863
REMARK  Name = 
REMARK  6 active torsions:
REMARK  status: ('A' for Active; 'I' for Inactive)
REMARK    1  A    between atoms: C_1  and  C_2
REMARK    2  A    between atoms: C_10  and  C_11
REMARK    3  A    between atoms: N_13  and  C_14
REMARK    4  A    between atoms: C_14  and  C_15
REMARK    5  A    between atoms: C_18  and  C_19
REMARK    6  A    between atoms: C_20  and  C_21
REMARK                            x       y       z     vdW  Elec       q    Type
REMARK                         _______ _______ _______ _____ _____    ______ ____
ROOT
ATOM      1  C   UNL     1      47.490   3.742  16.776  0.00  0.00    +0.000 C 
ATOM      2  O   UNL     1      46.454   3.144  17.043  0.00  0.00    +0.000 OA
ATOM      3  N   UNL     1      47.783   4.157  15.492  0.00  0.00    +0.000 N 
ATOM      4  H   UNL     1      48.507   4.848  15.364  0.00  0.00    +0.000 HD
ENDROOT
BRANCH   1  14
ATOM      5  C   UNL     1      50.415   2.340  17.491  0.00  0.00    +0.000 C 
ATOM      6  C   UNL     1      49.706   3.509  18.078  0.00  0.00    +0.000 A 
ATOM      7  N   UNL     1      50.259   4.168  19.150  0.00  0.00    +0.000 N 
ATOM      8  C   UNL     1      49.439   5.173  19.590  0.00  0.00    +0.000 A 
ATOM      9  C   UNL     1      49.613   6.076  20.646  0.00  0.00    +0.000 A 
ATOM     10  C   UNL     1      48.600   7.011  20.875  0.00  0.00    +0.000 A 
ATOM     11  C   UNL     1      47.459   7.032  20.080  0.00  0.00    +0.000 A 
ATOM     12  C   UNL     1      47.300   6.116  19.033  0.00  0.00    +0.000 A 
ATOM     13  C   UNL     1      48.309   5.162  18.775  0.00  0.00    +0.000 A 
ATOM     14  C   UNL     1      48.474   4.108  17.803  0.00  0.00    +0.000 A 
ATOM     15  H   UNL     1      51.142   3.935  19.582  0.00  0.00    +0.000 HD
ENDBRANCH   1  14
BRANCH   3  16
ATOM     16  C   UNL     1      46.835   3.935  14.427  0.00  0.00    +0.000 C 
BRANCH  16  17
ATOM     17  C   UNL     1      46.422   5.216  13.749  0.00  0.00    +0.000 A 
ATOM     18  C   UNL     1      45.156   5.326  13.163  0.00  0.00    +0.000 A 
ATOM     19  C   UNL     1      44.748   6.519  12.556  0.00  0.00    +0.000 A 
ATOM     20  C   UNL     1      45.595   7.633  12.523  0.00  0.00    +0.000 A 
ATOM     21  C   UNL     1      46.874   7.513  13.083  0.00  0.00    +0.000 A 
ATOM     22  C   UNL     1      47.285   6.319  13.689  0.00  0.00    +0.000 A 
BRANCH  20  23
ATOM     23  C   UNL     1      45.231   8.880  11.834  0.00  0.00    +0.000 C 
ATOM     24  C   UNL     1      44.138   9.050  11.066  0.00  0.00    +0.000 C 
BRANCH  24  25
ATOM     25  C   UNL     1      43.836  10.279  10.312  0.00  0.00    +0.000 A 
ATOM     26  C   UNL     1      42.599  10.485   9.684  0.00  0.00    +0.000 A 
ATOM     27  C   UNL     1      42.309  11.696   9.052  0.00  0.00    +0.000 A 
ATOM     28  C   UNL     1      43.248  12.724   9.049  0.00  0.00    +0.000 A 
ATOM     29  C   UNL     1      44.482  12.536   9.671  0.00  0.00    +0.000 A 
ATOM     30  C   UNL     1      44.772  11.322  10.300  0.00  0.00    +0.000 A 
ENDBRANCH  24  25
ENDBRANCH  20  23
ENDBRANCH  16  17
ENDBRANCH   3  16
TORSDOF 5
ENDMDL
MODEL 6
REMARK VINA RESULT:    -6.348      4.481      5.345
REMARK INTER + INTRA:          -9.065
REMARK INTER:                  -8.250
REMARK INTRA:                  -0.815
REMARK UNBOUND:                -0.863
REMARK  Name = 
REMARK  6 active torsions:
REMARK  status: ('A' for Active; 'I' for Inactive)
REMARK    1  A    between atoms: C_1  and  C_2
REMARK    2  A    between atoms: C_10  and  C_11
REMARK    3  A    between atoms: N_13  and  C_14
REMARK    4  A    between atoms: C_14  and  C_15
REMARK    5  A    between atoms: C_18  and  C_19
REMARK    6  A    between atoms: C_20  and  C_21
REMARK                            x       y       z     vdW  Elec       q    Type
REMARK                         _______ _______ _______ _____ _____    ______ ____
ROOT
ATOM      1  C   UNL     1      45.134   6.502  11.362  0.00  0.00    +0.000 C 
ATOM      2  O   UNL     1      44.359   7.449  11.414  0.00  0.00    +0.000 OA
ATOM      3  N   UNL     1      46.475   6.639  11.662  0.00  0.00    +0.000 N 
ATOM      4  H   UNL     1      47.013   5.806  11.846  0.00  0.00    +0.000 HD
ENDROOT
BRANCH   1  14
ATOM      5  C   UNL     1      43.243   4.401  13.107  0.00  0.00    +0.000 C 
ATOM      6  C   UNL     1      43.887   4.280  11.772  0.00  0.00    +0.000 A 
ATOM      7  N   UNL     1      43.778   3.102  11.072  0.00  0.00    +0.000 N 
ATOM      8  C   UNL     1      44.481   3.156   9.898  0.00  0.00    +0.000 A 
ATOM      9  C   UNL     1      44.640   2.186   8.901  0.00  0.00    +0.000 A 
ATOM     10  C   UNL     1      45.425   2.514   7.793  0.00  0.00    +0.000 A 
ATOM     11  C   UNL     1      46.029   3.763   7.696  0.00  0.00    +0.000 A 
ATOM     12  C   UNL     1      45.865   4.719   8.706  0.00  0.00    +0.000 A 
ATOM     13  C   UNL     1      45.073   4.416   9.837  0.00  0.00    +0.000 A 
ATOM     14  C   UNL     1      44.693   5.142  11.025  0.00  0.00    +0.000 A 
ATOM     15  H   UNL     1      43.268   2.286  11.383  0.00  0.00    +0.000 HD
ENDBRANCH   1  14
BRANCH   3  16
ATOM     16  C   UNL     1      46.990   7.913  12.102  0.00  0.00    +0.000 C 
BRANCH  16  17
ATOM     17  C   UNL     1      48.144   7.767  13.060  0.00  0.00    +0.000 A 
ATOM     18  C   UNL     1      47.996   7.013  14.230  0.00  0.00    +0.000 A 
ATOM     19  C   UNL     1      49.068   6.844  15.114  0.00  0.00    +0.000 A 
ATOM     20  C   UNL     1      50.315   7.421  14.847  0.00  0.00    +0.000 A 
ATOM     21  C   UNL     1      50.454   8.201  13.692  0.00  0.00    +0.000 A 
ATOM     22  C   UNL     1      49.382   8.373  12.807  0.00  0.00    +0.000 A 
BRANCH  20  23
ATOM     23  C   UNL     1      51.444   7.325  15.785  0.00  0.00    +0.000 C 
ATOM     24  C   UNL     1      51.706   6.268  16.576  0.00  0.00    +0.000 C 
BRANCH  24  25
ATOM     25  C   UNL     1      52.791   6.225  17.572  0.00  0.00    +0.000 A 
ATOM     26  C   UNL     1      53.931   5.427  17.401  0.00  0.00    +0.000 A 
ATOM     27  C   UNL     1      54.983   5.474  18.318  0.00  0.00    +0.000 A 
ATOM     28  C   UNL     1      54.914   6.328  19.415  0.00  0.00    +0.000 A 
ATOM     29  C   UNL     1      53.789   7.130  19.599  0.00  0.00    +0.000 A 
ATOM     30  C   UNL     1      52.735   7.080  18.682  0.00  0.00    +0.000 A 
ENDBRANCH  24  25
ENDBRANCH  20  23
ENDBRANCH  16  17
ENDBRANCH   3  16
TORSDOF 5
ENDMDL
MODEL 7
REMARK VINA RESULT:    -6.037      4.035      4.548
REMARK INTER + INTRA:          -8.664
REMARK INTER:                  -8.391
REMARK INTRA:                  -0.273
REMARK UNBOUND:                -0.863
REMARK  Name = 
REMARK  6 active torsions:
REMARK  status: ('A' for Active; 'I' for Inactive)
REMARK    1  A    between atoms: C_1  and  C_2
REMARK    2  A    between atoms: C_10  and  C_11
REMARK    3  A    between atoms: N_13  and  C_14
REMARK    4  A    between atoms: C_14  and  C_15
REMARK    5  A    between atoms: C_18  and  C_19
REMARK    6  A    between atoms: C_20  and  C_21
REMARK                            x       y       z     vdW  Elec       q    Type
REMARK                         _______ _______ _______ _____ _____    ______ ____
ROOT
ATOM      1  C   UNL     1      45.363   5.111   9.846  0.00  0.00    +0.000 C 
ATOM      2  O   UNL     1      45.857   5.953   9.107  0.00  0.00    +0.000 OA
ATOM      3  N   UNL     1      44.807   5.445  11.065  0.00  0.00    +0.000 N 
ATOM      4  H   UNL     1      44.203   4.776  11.517  0.00  0.00    +0.000 HD
ENDROOT
BRANCH   1  14
ATOM      5  C   UNL     1      43.522   2.687  11.178  0.00  0.00    +0.000 C 
ATOM      6  C   UNL     1      44.485   2.691  10.045  0.00  0.00    +0.000 A 
ATOM      7  N   UNL     1      44.771   1.514   9.394  0.00  0.00    +0.000 N 
ATOM      8  C   UNL     1      45.719   1.702   8.424  0.00  0.00    +0.000 A 
ATOM      9  C   UNL     1      46.294   0.781   7.540  0.00  0.00    +0.000 A 
ATOM     10  C   UNL     1      47.253   1.254   6.640  0.00  0.00    +0.000 A 
ATOM     11  C   UNL     1      47.621   2.595   6.634  0.00  0.00    +0.000 A 
ATOM     12  C   UNL     1      47.040   3.501   7.531  0.00  0.00    +0.000 A 
ATOM     13  C   UNL     1      46.064   3.052   8.449  0.00  0.00    +0.000 A 
ATOM     14  C   UNL     1      45.277   3.692   9.476  0.00  0.00    +0.000 A 
ATOM     15  H   UNL     1      44.360   0.617   9.611  0.00  0.00    +0.000 HD
ENDBRANCH   1  14
BRANCH   3  16
ATOM     16  C   UNL     1      44.751   6.826  11.478  0.00  0.00    +0.000 C 
BRANCH  16  17
ATOM     17  C   UNL     1      45.867   7.190  12.423  0.00  0.00    +0.000 A 
ATOM     18  C   UNL     1      46.749   6.204  12.883  0.00  0.00    +0.000 A 
ATOM     19  C   UNL     1      47.808   6.532  13.736  0.00  0.00    +0.000 A 
ATOM     20  C   UNL     1      48.015   7.854  14.147  0.00  0.00    +0.000 A 
ATOM     21  C   UNL     1      47.115   8.835  13.711  0.00  0.00    +0.000 A 
ATOM     22  C   UNL     1      46.052   8.509  12.858  0.00  0.00    +0.000 A 
BRANCH  20  23
ATOM     23  C   UNL     1      49.073   8.228  15.098  0.00  0.00    +0.000 C 
ATOM     24  C   UNL     1      50.135   7.463  15.414  0.00  0.00    +0.000 C 
BRANCH  24  25
ATOM     25  C   UNL     1      51.138   7.816  16.434  0.00  0.00    +0.000 A 
ATOM     26  C   UNL     1      52.480   7.422  16.330  0.00  0.00    +0.000 A 
ATOM     27  C   UNL     1      53.426   7.846  17.266  0.00  0.00    +0.000 A 
ATOM     28  C   UNL     1      53.045   8.679  18.314  0.00  0.00    +0.000 A 
ATOM     29  C   UNL     1      51.716   9.081  18.431  0.00  0.00    +0.000 A 
ATOM     30  C   UNL     1      50.769   8.654  17.495  0.00  0.00    +0.000 A 
ENDBRANCH  24  25
ENDBRANCH  20  23
ENDBRANCH  16  17
ENDBRANCH   3  16
TORSDOF 5
ENDMDL
MODEL 8
REMARK VINA RESULT:    -5.939      5.309      9.919
REMARK INTER + INTRA:          -8.538
REMARK INTER:                  -7.529
REMARK INTRA:                  -1.009
REMARK UNBOUND:                -0.863
REMARK  Name = 
REMARK  6 active torsions:
REMARK  status: ('A' for Active; 'I' for Inactive)
REMARK    1  A    between atoms: C_1  and  C_2
REMARK    2  A    between atoms: C_10  and  C_11
REMARK    3  A    between atoms: N_13  and  C_14
REMARK    4  A    between atoms: C_14  and  C_15
REMARK    5  A    between atoms: C_18  and  C_19
REMARK    6  A    between atoms: C_20  and  C_21
REMARK                            x       y       z     vdW  Elec       q    Type
REMARK                         _______ _______ _______ _____ _____    ______ ____
ROOT
ATOM      1  C   UNL     1      49.412   9.770  16.875  0.00  0.00    +0.000 C 
ATOM      2  O   UNL     1      50.529   9.407  16.526  0.00  0.00    +0.000 OA
ATOM      3  N   UNL     1      48.542  10.395  16.002  0.00  0.00    +0.000 N 
ATOM      4  H   UNL     1      47.567  10.449  16.254  0.00  0.00    +0.000 HD
ENDROOT
BRANCH   1  14
ATOM      5  C   UNL     1      49.170  11.854  19.451  0.00  0.00    +0.000 C 
ATOM      6  C   UNL     1      48.789  10.424  19.293  0.00  0.00    +0.000 A 
ATOM      7  N   UNL     1      48.278   9.737  20.368  0.00  0.00    +0.000 N 
ATOM      8  C   UNL     1      48.044   8.425  20.051  0.00  0.00    +0.000 A 
ATOM      9  C   UNL     1      47.537   7.387  20.842  0.00  0.00    +0.000 A 
ATOM     10  C   UNL     1      47.400   6.127  20.252  0.00  0.00    +0.000 A 
ATOM     11  C   UNL     1      47.764   5.920  18.926  0.00  0.00    +0.000 A 
ATOM     12  C   UNL     1      48.276   6.970  18.152  0.00  0.00    +0.000 A 
ATOM     13  C   UNL     1      48.421   8.255  18.720  0.00  0.00    +0.000 A 
ATOM     14  C   UNL     1      48.891   9.527  18.227  0.00  0.00    +0.000 A 
ATOM     15  H   UNL     1      48.116  10.130  21.285  0.00  0.00    +0.000 HD
ENDBRANCH   1  14
BRANCH   3  16
ATOM     16  C   UNL     1      48.919  10.591  14.624  0.00  0.00    +0.000 C 
BRANCH  16  17
ATOM     17  C   UNL     1      48.400   9.499  13.725  0.00  0.00    +0.000 A 
ATOM     18  C   UNL     1      47.232   8.805  14.063  0.00  0.00    +0.000 A 
ATOM     19  C   UNL     1      46.722   7.809  13.222  0.00  0.00    +0.000 A 
ATOM     20  C   UNL     1      47.365   7.484  12.023  0.00  0.00    +0.000 A 
ATOM     21  C   UNL     1      48.550   8.157  11.700  0.00  0.00    +0.000 A 
ATOM     22  C   UNL     1      49.065   9.153  12.540  0.00  0.00    +0.000 A 
BRANCH  20  23
ATOM     23  C   UNL     1      46.900   6.396  11.149  0.00  0.00    +0.000 C 
ATOM     24  C   UNL     1      45.631   5.954  11.071  0.00  0.00    +0.000 C 
BRANCH  24  25
ATOM     25  C   UNL     1      45.200   4.805  10.255  0.00  0.00    +0.000 A 
ATOM     26  C   UNL     1      45.447   4.734   8.876  0.00  0.00    +0.000 A 
ATOM     27  C   UNL     1      45.107   3.594   8.146  0.00  0.00    +0.000 A 
ATOM     28  C   UNL     1      44.524   2.503   8.785  0.00  0.00    +0.000 A 
ATOM     29  C   UNL     1      44.274   2.557  10.155  0.00  0.00    +0.000 A 
ATOM     30  C   UNL     1      44.612   3.700  10.886  0.00  0.00    +0.000 A 
ENDBRANCH  24  25
ENDBRANCH  20  23
ENDBRANCH  16  17
ENDBRANCH   3  16
TORSDOF 5
ENDMDL
MODEL 9
REMARK VINA RESULT:    -5.844      5.884     10.525
REMARK INTER + INTRA:          -8.414
REMARK INTER:                  -7.596
REMARK INTRA:                  -0.818
REMARK UNBOUND:                -0.863
REMARK  Name = 
REMARK  6 active torsions:
REMARK  status: ('A' for Active; 'I' for Inactive)
REMARK    1  A    between atoms: C_1  and  C_2
REMARK    2  A    between atoms: C_10  and  C_11
REMARK    3  A    between atoms: N_13  and  C_14
REMARK    4  A    between atoms: C_14  and  C_15
REMARK    5  A    between atoms: C_18  and  C_19
REMARK    6  A    between atoms: C_20  and  C_21
REMARK                            x       y       z     vdW  Elec       q    Type
REMARK                         _______ _______ _______ _____ _____    ______ ____
ROOT
ATOM      1  C   UNL     1      48.904   9.925  17.981  0.00  0.00    +0.000 C 
ATOM      2  O   UNL     1      50.095  10.212  17.995  0.00  0.00    +0.000 OA
ATOM      3  N   UNL     1      48.190   9.832  16.803  0.00  0.00    +0.000 N 
ATOM      4  H   UNL     1      47.299   9.360  16.819  0.00  0.00    +0.000 HD
ENDROOT
BRANCH   1  14
ATOM      5  C   UNL     1      49.035   7.217  19.901  0.00  0.00    +0.000 C 
ATOM      6  C   UNL     1      48.236   8.468  20.004  0.00  0.00    +0.000 A 
ATOM      7  N   UNL     1      47.320   8.604  21.020  0.00  0.00    +0.000 N 
ATOM      8  C   UNL     1      46.641   9.789  20.918  0.00  0.00    +0.000 A 
ATOM      9  C   UNL     1      45.632  10.318  21.732  0.00  0.00    +0.000 A 
ATOM     10  C   UNL     1      45.108  11.567  21.390  0.00  0.00    +0.000 A 
ATOM     11  C   UNL     1      45.576  12.252  20.274  0.00  0.00    +0.000 A 
ATOM     12  C   UNL     1      46.582  11.704  19.467  0.00  0.00    +0.000 A 
ATOM     13  C   UNL     1      47.133  10.444  19.791  0.00  0.00    +0.000 A 
ATOM     14  C   UNL     1      48.156   9.611  19.206  0.00  0.00    +0.000 A 
ATOM     15  H   UNL     1      47.144   7.916  21.739  0.00  0.00    +0.000 HD
ENDBRANCH   1  14
BRANCH   3  16
ATOM     16  C   UNL     1      48.856  10.023  15.538  0.00  0.00    +0.000 C 
BRANCH  16  17
ATOM     17  C   UNL     1      48.325   9.109  14.464  0.00  0.00    +0.000 A 
ATOM     18  C   UNL     1      47.719   9.643  13.321  0.00  0.00    +0.000 A 
ATOM     19  C   UNL     1      47.248   8.807  12.302  0.00  0.00    +0.000 A 
ATOM     20  C   UNL     1      47.374   7.416  12.401  0.00  0.00    +0.000 A 
ATOM     21  C   UNL     1      47.952   6.881  13.559  0.00  0.00    +0.000 A 
ATOM     22  C   UNL     1      48.423   7.715  14.581  0.00  0.00    +0.000 A 
BRANCH  20  23
ATOM     23  C   UNL     1      46.829   6.502  11.386  0.00  0.00    +0.000 C 
ATOM     24  C   UNL     1      45.756   5.707  11.557  0.00  0.00    +0.000 C 
BRANCH  24  25
ATOM     25  C   UNL     1      45.277   4.733  10.559  0.00  0.00    +0.000 A 
ATOM     26  C   UNL     1      45.498   4.902   9.185  0.00  0.00    +0.000 A 
ATOM     27  C   UNL     1      45.110   3.919   8.271  0.00  0.00    +0.000 A 
ATOM     28  C   UNL     1      44.506   2.749   8.720  0.00  0.00    +0.000 A 
ATOM     29  C   UNL     1      44.282   2.564  10.084  0.00  0.00    +0.000 A 
ATOM     30  C   UNL     1      44.667   3.549  10.997  0.00  0.00    +0.000 A 
ENDBRANCH  24  25
ENDBRANCH  20  23
ENDBRANCH  16  17
ENDBRANCH   3  16
TORSDOF 5
ENDMDL
