MODEL 1
REMARK VINA RESULT:    -7.983      0.000      0.000
REMARK INTER + INTRA:         -12.597
REMARK INTER:                 -11.716
REMARK INTRA:                  -0.881
REMARK UNBOUND:                -0.881
REMARK  Name = 
REMARK  8 active torsions:
REMARK  status: ('A' for Active; 'I' for Inactive)
REMARK    1  A    between atoms: C_2  and  O_3
REMARK    2  A    between atoms: C_2  and  C_20
REMARK    3  A    between atoms: O_3  and  C_4
REMARK    4  A    between atoms: C_4  and  C_5
REMARK    5  A    between atoms: C_8  and  C_9
REMARK    6  A    between atoms: C_9  and  C_10
REMARK    7  A    between atoms: C_10  and  O_11
REMARK    8  A    between atoms: O_11  and  C_12
REMARK                            x       y       z     vdW  Elec       q    Type
REMARK                         _______ _______ _______ _____ _____    ______ ____
ROOT
ATOM      1  C   UNL     1      46.630   6.676  12.022  0.00  0.00    +0.000 A 
ATOM      2  C   UNL     1      46.695   5.899  13.178  0.00  0.00    +0.000 A 
ATOM      3  C   UNL     1      47.738   6.077  14.085  0.00  0.00    +0.000 A 
ATOM      4  C   UNL     1      48.745   7.031  13.856  0.00  0.00    +0.000 A 
ATOM      5  C   UNL     1      48.670   7.809  12.695  0.00  0.00    +0.000 A 
ATOM      6  C   UNL     1      47.629   7.630  11.786  0.00  0.00    +0.000 A 
ENDROOT
BRANCH   1   7
ATOM      7  C   UNL     1      45.510   6.472  11.045  0.00  0.00    +0.000 C 
BRANCH   7   8
ATOM      8  O   UNL     1      45.492   5.102  10.656  0.00  0.00    +0.000 OA
BRANCH   8  10
ATOM      9  O   UNL     1      43.235   5.218  10.276  0.00  0.00    +0.000 OA
ATOM     10  C   UNL     1      44.300   4.613  10.215  0.00  0.00    +0.000 C 
BRANCH  10  11
ATOM     11  C   UNL     1      44.475   3.350   9.491  0.00  0.00    +0.000 A 
ATOM     12  N   UNL     1      43.962   2.178   9.920  0.00  0.00    +0.000 NA
ATOM     13  N   UNL     1      44.649   1.258   9.227  0.00  0.00    +0.000 N 
ATOM     14  C   UNL     1      45.625   1.786   8.428  0.00  0.00    +0.000 A 
ATOM     15  C   UNL     1      46.712   1.206   7.771  0.00  0.00    +0.000 A 
ATOM     16  C   UNL     1      47.506   2.057   6.995  0.00  0.00    +0.000 A 
ATOM     17  C   UNL     1      47.180   3.405   6.831  0.00  0.00    +0.000 A 
ATOM     18  C   UNL     1      46.116   3.972   7.538  0.00  0.00    +0.000 A 
ATOM     19  C   UNL     1      45.372   3.150   8.404  0.00  0.00    +0.000 A 
ATOM     20  H   UNL     1      44.441   0.279   9.392  0.00  0.00    +0.000 HD
ENDBRANCH  10  11
ENDBRANCH   8  10
ENDBRANCH   7   8
ENDBRANCH   1   7
BRANCH   4  21
ATOM     21  C   UNL     1      49.903   7.245  14.810  0.00  0.00    +0.000 C 
BRANCH  21  22
ATOM     22  C   UNL     1      49.521   7.092  16.281  0.00  0.00    +0.000 C 
BRANCH  22  23
ATOM     23  O   UNL     1      50.203   6.000  16.894  0.00  0.00    +0.000 OA
BRANCH  23  24
ATOM     24  C   UNL     1      49.305   4.978  17.128  0.00  0.00    +0.000 A 
ATOM     25  N   UNL     1      49.785   3.740  16.977  0.00  0.00    +0.000 NA
ATOM     26  C   UNL     1      48.895   2.743  17.167  0.00  0.00    +0.000 A 
ATOM     27  C   UNL     1      47.578   2.953  17.508  0.00  0.00    +0.000 A 
ATOM     28  C   UNL     1      47.200   4.256  17.656  0.00  0.00    +0.000 A 
ATOM     29  N   UNL     1      48.034   5.288  17.473  0.00  0.00    +0.000 NA
ENDBRANCH  23  24
ENDBRANCH  22  23
ENDBRANCH  21  22
ENDBRANCH   4  21
TORSDOF 8
ENDMDL
MODEL 2
REMARK VINA RESULT:    -7.972      2.312      9.481
REMARK INTER + INTRA:         -12.581
REMARK INTER:                 -11.754
REMARK INTRA:                  -0.827
REMARK UNBOUND:                -0.881
REMARK  Name = 
REMARK  8 active torsions:
REMARK  status: ('A' for Active; 'I' for Inactive)
REMARK    1  A    between atoms: C_2  and  O_3
REMARK    2  A    between atoms: C_2  and  C_20
REMARK    3  A    between atoms: O_3  and  C_4
REMARK    4  A    between atoms: C_4  and  C_5
REMARK    5  A    between atoms: C_8  and  C_9
REMARK    6  A    between atoms: C_9  and  C_10
REMARK    7  A    between atoms: C_10  and  O_11
REMARK    8  A    between atoms: O_11  and  C_12
REMARK                            x       y       z     vdW  Elec       q    Type
REMARK                         _______ _______ _______ _____ _____    ______ ____
ROOT
ATOM      1  C   UNL     1      46.617   4.976  13.831  0.00  0.00    +0.000 A 
ATOM      2  C   UNL     1      46.306   3.687  13.402  0.00  0.00    +0.000 A 
ATOM      3  C   UNL     1      45.396   3.493  12.365  0.00  0.00    +0.000 A 
ATOM      4  C   UNL     1      44.771   4.583  11.735  0.00  0.00    +0.000 A 
ATOM      5  C   UNL     1      45.091   5.874  12.169  0.00  0.00    +0.000 A 
ATOM      6  C   UNL     1      45.998   6.069  13.208  0.00  0.00    +0.000 A 
ENDROOT
BRANCH   1   7
ATOM      7  C   UNL     1      47.589   5.177  14.956  0.00  0.00    +0.000 C 
BRANCH   7   8
ATOM      8  O   UNL     1      47.855   3.913  15.556  0.00  0.00    +0.000 OA
BRANCH   8  10
ATOM      9  O   UNL     1      46.411   3.205  17.188  0.00  0.00    +0.000 OA
ATOM     10  C   UNL     1      47.452   3.758  16.848  0.00  0.00    +0.000 C 
BRANCH  10  11
ATOM     11  C   UNL     1      48.499   4.167  17.788  0.00  0.00    +0.000 A 
ATOM     12  N   UNL     1      49.713   3.580  17.837  0.00  0.00    +0.000 NA
ATOM     13  N   UNL     1      50.200   3.956  19.030  0.00  0.00    +0.000 N 
ATOM     14  C   UNL     1      49.323   4.698  19.773  0.00  0.00    +0.000 A 
ATOM     15  C   UNL     1      49.307   5.052  21.123  0.00  0.00    +0.000 A 
ATOM     16  C   UNL     1      48.252   5.866  21.548  0.00  0.00    +0.000 A 
ATOM     17  C   UNL     1      47.304   6.355  20.647  0.00  0.00    +0.000 A 
ATOM     18  C   UNL     1      47.313   5.946  19.311  0.00  0.00    +0.000 A 
ATOM     19  C   UNL     1      48.309   5.045  18.892  0.00  0.00    +0.000 A 
ATOM     20  H   UNL     1      51.118   3.621  19.301  0.00  0.00    +0.000 HD
ENDBRANCH  10  11
ENDBRANCH   8  10
ENDBRANCH   7   8
ENDBRANCH   1   7
BRANCH   4  21
ATOM     21  C   UNL     1      43.765   4.414  10.613  0.00  0.00    +0.000 C 
BRANCH  21  22
ATOM     22  C   UNL     1      44.404   4.132   9.255  0.00  0.00    +0.000 C 
BRANCH  22  23
ATOM     23  O   UNL     1      44.375   2.743   8.935  0.00  0.00    +0.000 OA
BRANCH  23  24
ATOM     24  C   UNL     1      45.503   2.421   8.207  0.00  0.00    +0.000 A 
ATOM     25  N   UNL     1      46.014   3.407   7.464  0.00  0.00    +0.000 NA
ATOM     26  C   UNL     1      47.093   3.079   6.722  0.00  0.00    +0.000 A 
ATOM     27  C   UNL     1      47.661   1.825   6.718  0.00  0.00    +0.000 A 
ATOM     28  C   UNL     1      47.070   0.899   7.529  0.00  0.00    +0.000 A 
ATOM     29  N   UNL     1      45.994   1.162   8.281  0.00  0.00    +0.000 NA
ENDBRANCH  23  24
ENDBRANCH  22  23
ENDBRANCH  21  22
ENDBRANCH   4  21
TORSDOF 8
ENDMDL
MODEL 3
REMARK VINA RESULT:    -7.945      2.109      9.036
REMARK INTER + INTRA:         -12.542
REMARK INTER:                 -11.757
REMARK INTRA:                  -0.785
REMARK UNBOUND:                -0.881
REMARK  Name = 
REMARK  8 active torsions:
REMARK  status: ('A' for Active; 'I' for Inactive)
REMARK    1  A    between atoms: C_2  and  O_3
REMARK    2  A    between atoms: C_2  and  C_20
REMARK    3  A    between atoms: O_3  and  C_4
REMARK    4  A    between atoms: C_4  and  C_5
REMARK    5  A    between atoms: C_8  and  C_9
REMARK    6  A    between atoms: C_9  and  C_10
REMARK    7  A    between atoms: C_10  and  O_11
REMARK    8  A    between atoms: O_11  and  C_12
REMARK                            x       y       z     vdW  Elec       q    Type
REMARK                         _______ _______ _______ _____ _____    ______ ____
ROOT
ATOM      1  C   UNL     1      46.609   5.151  13.689  0.00  0.00    +0.000 A 
ATOM      2  C   UNL     1      46.037   6.219  13.001  0.00  0.00    +0.000 A 
ATOM      3  C   UNL     1      45.104   5.987  11.993  0.00  0.00    +0.000 A 
ATOM      4  C   UNL     1      44.723   4.679  11.644  0.00  0.00    +0.000 A 
ATOM      5  C   UNL     1      45.299   3.612  12.342  0.00  0.00    +0.000 A 
ATOM      6  C   UNL     1      46.235   3.843  13.348  0.00  0.00    +0.000 A 
ENDROOT
BRANCH   1   7
ATOM      7  C   UNL     1      47.621   5.409  14.766  0.00  0.00    +0.000 C 
BRANCH   7   8
ATOM      8  O   UNL     1      48.008   4.161  15.333  0.00  0.00    +0.000 OA
BRANCH   8  10
ATOM      9  O   UNL     1      46.522   3.460  16.931  0.00  0.00    +0.000 OA
ATOM     10  C   UNL     1      47.611   3.928  16.615  0.00  0.00    +0.000 C 
BRANCH  10  11
ATOM     11  C   UNL     1      48.712   4.130  17.561  0.00  0.00    +0.000 A 
ATOM     12  N   UNL     1      48.902   5.285  18.233  0.00  0.00    +0.000 NA
ATOM     13  N   UNL     1      50.171   5.199  18.662  0.00  0.00    +0.000 N 
ATOM     14  C   UNL     1      50.821   4.074  18.233  0.00  0.00    +0.000 A 
ATOM     15  C   UNL     1      52.173   3.726  18.212  0.00  0.00    +0.000 A 
ATOM     16  C   UNL     1      52.486   2.453  17.723  0.00  0.00    +0.000 A 
ATOM     17  C   UNL     1      51.488   1.554  17.345  0.00  0.00    +0.000 A 
ATOM     18  C   UNL     1      50.147   1.944  17.329  0.00  0.00    +0.000 A 
ATOM     19  C   UNL     1      49.825   3.257  17.719  0.00  0.00    +0.000 A 
ATOM     20  H   UNL     1      50.551   5.973  19.194  0.00  0.00    +0.000 HD
ENDBRANCH  10  11
ENDBRANCH   8  10
ENDBRANCH   7   8
ENDBRANCH   1   7
BRANCH   4  21
ATOM     21  C   UNL     1      43.723   4.383  10.544  0.00  0.00    +0.000 C 
BRANCH  21  22
ATOM     22  C   UNL     1      44.365   4.157   9.177  0.00  0.00    +0.000 C 
BRANCH  22  23
ATOM     23  O   UNL     1      44.469   2.770   8.864  0.00  0.00    +0.000 OA
BRANCH  23  24
ATOM     24  C   UNL     1      45.544   2.573   8.022  0.00  0.00    +0.000 A 
ATOM     25  N   UNL     1      45.742   3.523   7.103  0.00  0.00    +0.000 NA
ATOM     26  C   UNL     1      46.770   3.309   6.255  0.00  0.00    +0.000 A 
ATOM     27  C   UNL     1      47.587   2.203   6.314  0.00  0.00    +0.000 A 
ATOM     28  C   UNL     1      47.308   1.305   7.304  0.00  0.00    +0.000 A 
ATOM     29  N   UNL     1      46.298   1.459   8.170  0.00  0.00    +0.000 NA
ENDBRANCH  23  24
ENDBRANCH  22  23
ENDBRANCH  21  22
ENDBRANCH   4  21
TORSDOF 8
ENDMDL
MODEL 4
REMARK VINA RESULT:    -7.796      1.673      8.582
REMARK INTER + INTRA:         -12.323
REMARK INTER:                 -11.139
REMARK INTRA:                  -1.184
REMARK UNBOUND:                -0.881
REMARK  Name = 
REMARK  8 active torsions:
REMARK  status: ('A' for Active; 'I' for Inactive)
REMARK    1  A    between atoms: C_2  and  O_3
REMARK    2  A    between atoms: C_2  and  C_20
REMARK    3  A    between atoms: O_3  and  C_4
REMARK    4  A    between atoms: C_4  and  C_5
REMARK    5  A    between atoms: C_8  and  C_9
REMARK    6  A    between atoms: C_9  and  C_10
REMARK    7  A    between atoms: C_10  and  O_11
REMARK    8  A    between atoms: O_11  and  C_12
REMARK                            x       y       z     vdW  Elec       q    Type
REMARK                         _______ _______ _______ _____ _____    ______ ____
ROOT
ATOM      1  C   UNL     1      47.143   6.263  12.545  0.00  0.00    +0.000 A 
ATOM      2  C   UNL     1      46.512   6.520  11.328  0.00  0.00    +0.000 A 
ATOM      3  C   UNL     1      45.493   5.685  10.875  0.00  0.00    +0.000 A 
ATOM      4  C   UNL     1      45.084   4.567  11.624  0.00  0.00    +0.000 A 
ATOM      5  C   UNL     1      45.720   4.318  12.845  0.00  0.00    +0.000 A 
ATOM      6  C   UNL     1      46.741   5.151  13.298  0.00  0.00    +0.000 A 
ENDROOT
BRANCH   1   7
ATOM      7  C   UNL     1      48.246   7.161  13.021  0.00  0.00    +0.000 C 
BRANCH   7   8
ATOM      8  O   UNL     1      48.947   6.501  14.071  0.00  0.00    +0.000 OA
BRANCH   8  10
ATOM      9  O   UNL     1      48.746   8.363  15.391  0.00  0.00    +0.000 OA
ATOM     10  C   UNL     1      49.119   7.207  15.223  0.00  0.00    +0.000 C 
BRANCH  10  11
ATOM     11  C   UNL     1      49.637   6.357  16.298  0.00  0.00    +0.000 A 
ATOM     12  N   UNL     1      50.906   6.433  16.750  0.00  0.00    +0.000 NA
ATOM     13  N   UNL     1      51.076   5.281  17.417  0.00  0.00    +0.000 N 
ATOM     14  C   UNL     1      49.997   4.443  17.351  0.00  0.00    +0.000 A 
ATOM     15  C   UNL     1      49.845   3.089  17.654  0.00  0.00    +0.000 A 
ATOM     16  C   UNL     1      48.563   2.550  17.497  0.00  0.00    +0.000 A 
ATOM     17  C   UNL     1      47.480   3.348  17.126  0.00  0.00    +0.000 A 
ATOM     18  C   UNL     1      47.668   4.688  16.781  0.00  0.00    +0.000 A 
ATOM     19  C   UNL     1      48.970   5.219  16.834  0.00  0.00    +0.000 A 
ATOM     20  H   UNL     1      51.978   5.104  17.845  0.00  0.00    +0.000 HD
ENDBRANCH  10  11
ENDBRANCH   8  10
ENDBRANCH   7   8
ENDBRANCH   1   7
BRANCH   4  21
ATOM     21  C   UNL     1      43.991   3.626  11.160  0.00  0.00    +0.000 C 
BRANCH  21  22
ATOM     22  C   UNL     1      44.109   3.228   9.690  0.00  0.00    +0.000 C 
BRANCH  22  23
ATOM     23  O   UNL     1      44.815   2.000   9.529  0.00  0.00    +0.000 OA
BRANCH  23  24
ATOM     24  C   UNL     1      45.742   2.138   8.516  0.00  0.00    +0.000 A 
ATOM     25  N   UNL     1      45.896   3.376   8.037  0.00  0.00    +0.000 NA
ATOM     26  C   UNL     1      46.774   3.502   7.019  0.00  0.00    +0.000 A 
ATOM     27  C   UNL     1      47.488   2.448   6.495  0.00  0.00    +0.000 A 
ATOM     28  C   UNL     1      47.268   1.231   7.073  0.00  0.00    +0.000 A 
ATOM     29  N   UNL     1      46.404   1.042   8.080  0.00  0.00    +0.000 NA
ENDBRANCH  23  24
ENDBRANCH  22  23
ENDBRANCH  21  22
ENDBRANCH   4  21
TORSDOF 8
ENDMDL
MODEL 5
REMARK VINA RESULT:    -7.475      4.458      6.751
REMARK INTER + INTRA:         -11.852
REMARK INTER:                 -10.645
REMARK INTRA:                  -1.207
REMARK UNBOUND:                -0.881
REMARK  Name = 
REMARK  8 active torsions:
REMARK  status: ('A' for Active; 'I' for Inactive)
REMARK    1  A    between atoms: C_2  and  O_3
REMARK    2  A    between atoms: C_2  and  C_20
REMARK    3  A    between atoms: O_3  and  C_4
REMARK    4  A    between atoms: C_4  and  C_5
REMARK    5  A    between atoms: C_8  and  C_9
REMARK    6  A    between atoms: C_9  and  C_10
REMARK    7  A    between atoms: C_10  and  O_11
REMARK    8  A    between atoms: O_11  and  C_12
REMARK                            x       y       z     vdW  Elec       q    Type
REMARK                         _______ _______ _______ _____ _____    ______ ____
ROOT
ATOM      1  C   UNL     1      46.873   7.602  12.742  0.00  0.00    +0.000 A 
ATOM      2  C   UNL     1      45.530   7.955  12.624  0.00  0.00    +0.000 A 
ATOM      3  C   UNL     1      45.174   9.240  12.222  0.00  0.00    +0.000 A 
ATOM      4  C   UNL     1      46.154  10.207  11.933  0.00  0.00    +0.000 A 
ATOM      5  C   UNL     1      47.500   9.845  12.051  0.00  0.00    +0.000 A 
ATOM      6  C   UNL     1      47.856   8.560  12.456  0.00  0.00    +0.000 A 
ENDROOT
BRANCH   1   7
ATOM      7  C   UNL     1      47.248   6.219  13.186  0.00  0.00    +0.000 C 
BRANCH   7   8
ATOM      8  O   UNL     1      46.057   5.507  13.506  0.00  0.00    +0.000 OA
BRANCH   8  10
ATOM      9  O   UNL     1      46.779   3.384  13.975  0.00  0.00    +0.000 OA
ATOM     10  C   UNL     1      46.088   4.158  13.321  0.00  0.00    +0.000 C 
BRANCH  10  11
ATOM     11  C   UNL     1      45.060   3.724  12.371  0.00  0.00    +0.000 A 
ATOM     12  N   UNL     1      44.151   2.768  12.657  0.00  0.00    +0.000 NA
ATOM     13  N   UNL     1      43.678   2.409  11.453  0.00  0.00    +0.000 N 
ATOM     14  C   UNL     1      44.295   3.042  10.409  0.00  0.00    +0.000 A 
ATOM     15  C   UNL     1      44.312   2.783   9.037  0.00  0.00    +0.000 A 
ATOM     16  C   UNL     1      45.037   3.674   8.238  0.00  0.00    +0.000 A 
ATOM     17  C   UNL     1      45.652   4.803   8.783  0.00  0.00    +0.000 A 
ATOM     18  C   UNL     1      45.662   5.012  10.164  0.00  0.00    +0.000 A 
ATOM     19  C   UNL     1      45.025   4.068  10.991  0.00  0.00    +0.000 A 
ATOM     20  H   UNL     1      42.975   1.680  11.413  0.00  0.00    +0.000 HD
ENDBRANCH  10  11
ENDBRANCH   8  10
ENDBRANCH   7   8
ENDBRANCH   1   7
BRANCH   4  21
ATOM     21  C   UNL     1      45.809  11.621  11.507  0.00  0.00    +0.000 C 
BRANCH  21  22
ATOM     22  C   UNL     1      44.418  11.752  10.890  0.00  0.00    +0.000 C 
BRANCH  22  23
ATOM     23  O   UNL     1      43.496  12.364  11.789  0.00  0.00    +0.000 OA
BRANCH  23  24
ATOM     24  C   UNL     1      42.258  11.772  11.644  0.00  0.00    +0.000 A 
ATOM     25  N   UNL     1      42.062  11.111  10.499  0.00  0.00    +0.000 NA
ATOM     26  C   UNL     1      40.837  10.567  10.343  0.00  0.00    +0.000 A 
ATOM     27  C   UNL     1      39.838  10.657  11.286  0.00  0.00    +0.000 A 
ATOM     28  C   UNL     1      40.153  11.337  12.427  0.00  0.00    +0.000 A 
ATOM     29  N   UNL     1      41.347  11.906  12.636  0.00  0.00    +0.000 NA
ENDBRANCH  23  24
ENDBRANCH  22  23
ENDBRANCH  21  22
ENDBRANCH   4  21
TORSDOF 8
ENDMDL
MODEL 6
REMARK VINA RESULT:    -7.390      1.996      9.040
REMARK INTER + INTRA:         -11.727
REMARK INTER:                 -10.747
REMARK INTRA:                  -0.980
REMARK UNBOUND:                -0.881
REMARK  Name = 
REMARK  8 active torsions:
REMARK  status: ('A' for Active; 'I' for Inactive)
REMARK    1  A    between atoms: C_2  and  O_3
REMARK    2  A    between atoms: C_2  and  C_20
REMARK    3  A    between atoms: O_3  and  C_4
REMARK    4  A    between atoms: C_4  and  C_5
REMARK    5  A    between atoms: C_8  and  C_9
REMARK    6  A    between atoms: C_9  and  C_10
REMARK    7  A    between atoms: C_10  and  O_11
REMARK    8  A    between atoms: O_11  and  C_12
REMARK                            x       y       z     vdW  Elec       q    Type
REMARK                         _______ _______ _______ _____ _____    ______ ____
ROOT
ATOM      1  C   UNL     1      47.059   6.182  13.170  0.00  0.00    +0.000 A 
ATOM      2  C   UNL     1      46.995   4.924  13.768  0.00  0.00    +0.000 A 
ATOM      3  C   UNL     1      46.142   3.948  13.259  0.00  0.00    +0.000 A 
ATOM      4  C   UNL     1      45.328   4.206  12.142  0.00  0.00    +0.000 A 
ATOM      5  C   UNL     1      45.400   5.469  11.545  0.00  0.00    +0.000 A 
ATOM      6  C   UNL     1      46.251   6.448  12.056  0.00  0.00    +0.000 A 
ENDROOT
BRANCH   1   7
ATOM      7  C   UNL     1      47.973   7.232  13.730  0.00  0.00    +0.000 C 
BRANCH   7   8
ATOM      8  O   UNL     1      49.261   6.656  13.923  0.00  0.00    +0.000 OA
BRANCH   8  10
ATOM      9  O   UNL     1      50.805   8.221  14.569  0.00  0.00    +0.000 OA
ATOM     10  C   UNL     1      50.072   7.272  14.827  0.00  0.00    +0.000 C 
BRANCH  10  11
ATOM     11  C   UNL     1      49.825   6.784  16.186  0.00  0.00    +0.000 A 
ATOM     12  N   UNL     1      49.980   5.492  16.544  0.00  0.00    +0.000 NA
ATOM     13  N   UNL     1      49.307   5.399  17.701  0.00  0.00    +0.000 N 
ATOM     14  C   UNL     1      48.670   6.555  18.061  0.00  0.00    +0.000 A 
ATOM     15  C   UNL     1      47.675   6.820  19.004  0.00  0.00    +0.000 A 
ATOM     16  C   UNL     1      47.271   8.153  19.134  0.00  0.00    +0.000 A 
ATOM     17  C   UNL     1      47.887   9.173  18.407  0.00  0.00    +0.000 A 
ATOM     18  C   UNL     1      48.846   8.876  17.435  0.00  0.00    +0.000 A 
ATOM     19  C   UNL     1      49.187   7.528  17.219  0.00  0.00    +0.000 A 
ATOM     20  H   UNL     1      49.272   4.498  18.164  0.00  0.00    +0.000 HD
ENDBRANCH  10  11
ENDBRANCH   8  10
ENDBRANCH   7   8
ENDBRANCH   1   7
BRANCH   4  21
ATOM     21  C   UNL     1      44.376   3.176  11.567  0.00  0.00    +0.000 C 
BRANCH  21  22
ATOM     22  C   UNL     1      44.213   3.271  10.052  0.00  0.00    +0.000 C 
BRANCH  22  23
ATOM     23  O   UNL     1      44.465   2.022   9.413  0.00  0.00    +0.000 OA
BRANCH  23  24
ATOM     24  C   UNL     1      45.508   2.168   8.521  0.00  0.00    +0.000 A 
ATOM     25  N   UNL     1      45.681   3.399   8.030  0.00  0.00    +0.000 NA
ATOM     26  C   UNL     1      46.676   3.532   7.127  0.00  0.00    +0.000 A 
ATOM     27  C   UNL     1      47.485   2.492   6.728  0.00  0.00    +0.000 A 
ATOM     28  C   UNL     1      47.233   1.282   7.309  0.00  0.00    +0.000 A 
ATOM     29  N   UNL     1      46.256   1.087   8.203  0.00  0.00    +0.000 NA
ENDBRANCH  23  24
ENDBRANCH  22  23
ENDBRANCH  21  22
ENDBRANCH   4  21
TORSDOF 8
ENDMDL
MODEL 7
REMARK VINA RESULT:    -7.317      1.679      8.481
REMARK INTER + INTRA:         -11.620
REMARK INTER:                 -10.512
REMARK INTRA:                  -1.108
REMARK UNBOUND:                -0.881
REMARK  Name = 
REMARK  8 active torsions:
REMARK  status: ('A' for Active; 'I' for Inactive)
REMARK    1  A    between atoms: C_2  and  O_3
REMARK    2  A    between atoms: C_2  and  C_20
REMARK    3  A    between atoms: O_3  and  C_4
REMARK    4  A    between atoms: C_4  and  C_5
REMARK    5  A    between atoms: C_8  and  C_9
REMARK    6  A    between atoms: C_9  and  C_10
REMARK    7  A    between atoms: C_10  and  O_11
REMARK    8  A    between atoms: O_11  and  C_12
REMARK                            x       y       z     vdW  Elec       q    Type
REMARK                         _______ _______ _______ _____ _____    ______ ____
ROOT
ATOM      1  C   UNL     1      46.686   6.967  12.913  0.00  0.00    +0.000 A 
ATOM      2  C   UNL     1      46.984   5.605  12.922  0.00  0.00    +0.000 A 
ATOM      3  C   UNL     1      45.998   4.668  12.624  0.00  0.00    +0.000 A 
ATOM      4  C   UNL     1      44.686   5.069  12.314  0.00  0.00    +0.000 A 
ATOM      5  C   UNL     1      44.395   6.437  12.303  0.00  0.00    +0.000 A 
ATOM      6  C   UNL     1      45.381   7.375  12.604  0.00  0.00    +0.000 A 
ENDROOT
BRANCH   1   7
ATOM      7  C   UNL     1      47.751   7.969  13.245  0.00  0.00    +0.000 C 
BRANCH   7   8
ATOM      8  O   UNL     1      47.975   7.943  14.652  0.00  0.00    +0.000 OA
BRANCH   8  10
ATOM      9  O   UNL     1      50.051   6.993  14.457  0.00  0.00    +0.000 OA
ATOM     10  C   UNL     1      49.015   7.179  15.087  0.00  0.00    +0.000 C 
BRANCH  10  11
ATOM     11  C   UNL     1      48.822   6.755  16.476  0.00  0.00    +0.000 A 
ATOM     12  N   UNL     1      49.319   7.438  17.529  0.00  0.00    +0.000 NA
ATOM     13  N   UNL     1      49.265   6.553  18.536  0.00  0.00    +0.000 N 
ATOM     14  C   UNL     1      48.823   5.315  18.158  0.00  0.00    +0.000 A 
ATOM     15  C   UNL     1      48.868   4.071  18.791  0.00  0.00    +0.000 A 
ATOM     16  C   UNL     1      48.278   2.999  18.113  0.00  0.00    +0.000 A 
ATOM     17  C   UNL     1      47.616   3.183  16.899  0.00  0.00    +0.000 A 
ATOM     18  C   UNL     1      47.628   4.427  16.262  0.00  0.00    +0.000 A 
ATOM     19  C   UNL     1      48.307   5.492  16.882  0.00  0.00    +0.000 A 
ATOM     20  H   UNL     1      49.603   6.842  19.447  0.00  0.00    +0.000 HD
ENDBRANCH  10  11
ENDBRANCH   8  10
ENDBRANCH   7   8
ENDBRANCH   1   7
BRANCH   4  21
ATOM     21  C   UNL     1      43.581   4.080  11.998  0.00  0.00    +0.000 C 
BRANCH  21  22
ATOM     22  C   UNL     1      43.905   3.152  10.830  0.00  0.00    +0.000 C 
BRANCH  22  23
ATOM     23  O   UNL     1      43.959   3.857   9.592  0.00  0.00    +0.000 OA
BRANCH  23  24
ATOM     24  C   UNL     1      44.977   3.339   8.817  0.00  0.00    +0.000 A 
ATOM     25  N   UNL     1      45.585   4.206   8.003  0.00  0.00    +0.000 NA
ATOM     26  C   UNL     1      46.552   3.689   7.217  0.00  0.00    +0.000 A 
ATOM     27  C   UNL     1      46.921   2.362   7.237  0.00  0.00    +0.000 A 
ATOM     28  C   UNL     1      46.248   1.569   8.121  0.00  0.00    +0.000 A 
ATOM     29  N   UNL     1      45.274   2.023   8.921  0.00  0.00    +0.000 NA
ENDBRANCH  23  24
ENDBRANCH  22  23
ENDBRANCH  21  22
ENDBRANCH   4  21
TORSDOF 8
ENDMDL
MODEL 8
REMARK VINA RESULT:    -7.270      2.151      9.467
REMARK INTER + INTRA:         -11.550
REMARK INTER:                 -10.977
REMARK INTRA:                  -0.573
REMARK UNBOUND:                -0.881
REMARK  Name = 
REMARK  8 active torsions:
REMARK  status: ('A' for Active; 'I' for Inactive)
REMARK    1  A    between atoms: C_2  and  O_3
REMARK    2  A    between atoms: C_2  and  C_20
REMARK    3  A    between atoms: O_3  and  C_4
REMARK    4  A    between atoms: C_4  and  C_5
REMARK    5  A    between atoms: C_8  and  C_9
REMARK    6  A    between atoms: C_9  and  C_10
REMARK    7  A    between atoms: C_10  and  O_11
REMARK    8  A    between atoms: O_11  and  C_12
REMARK                            x       y       z     vdW  Elec       q    Type
REMARK                         _______ _______ _______ _____ _____    ______ ____
ROOT
ATOM      1  C   UNL     1      47.011   5.833  13.305  0.00  0.00    +0.000 A 
ATOM      2  C   UNL     1      46.282   4.674  13.569  0.00  0.00    +0.000 A 
ATOM      3  C   UNL     1      45.281   4.260  12.694  0.00  0.00    +0.000 A 
ATOM      4  C   UNL     1      44.978   4.998  11.536  0.00  0.00    +0.000 A 
ATOM      5  C   UNL     1      45.716   6.158  11.276  0.00  0.00    +0.000 A 
ATOM      6  C   UNL     1      46.717   6.574  12.152  0.00  0.00    +0.000 A 
ENDROOT
BRANCH   1   7
ATOM      7  C   UNL     1      48.082   6.278  14.257  0.00  0.00    +0.000 C 
BRANCH   7   8
ATOM      8  O   UNL     1      48.141   5.352  15.338  0.00  0.00    +0.000 OA
BRANCH   8  10
ATOM      9  O   UNL     1      50.112   6.120  16.218  0.00  0.00    +0.000 OA
ATOM     10  C   UNL     1      48.981   5.667  16.362  0.00  0.00    +0.000 C 
BRANCH  10  11
ATOM     11  C   UNL     1      48.302   5.575  17.658  0.00  0.00    +0.000 A 
ATOM     12  N   UNL     1      47.074   5.037  17.808  0.00  0.00    +0.000 NA
ATOM     13  N   UNL     1      46.676   5.484  19.009  0.00  0.00    +0.000 N 
ATOM     14  C   UNL     1      47.565   6.339  19.600  0.00  0.00    +0.000 A 
ATOM     15  C   UNL     1      47.442   7.218  20.678  0.00  0.00    +0.000 A 
ATOM     16  C   UNL     1      48.590   7.932  21.041  0.00  0.00    +0.000 A 
ATOM     17  C   UNL     1      49.811   7.718  20.400  0.00  0.00    +0.000 A 
ATOM     18  C   UNL     1      49.896   6.870  19.293  0.00  0.00    +0.000 A 
ATOM     19  C   UNL     1      48.727   6.224  18.851  0.00  0.00    +0.000 A 
ATOM     20  H   UNL     1      45.757   5.213  19.341  0.00  0.00    +0.000 HD
ENDBRANCH  10  11
ENDBRANCH   8  10
ENDBRANCH   7   8
ENDBRANCH   1   7
BRANCH   4  21
ATOM     21  C   UNL     1      43.886   4.590  10.567  0.00  0.00    +0.000 C 
BRANCH  21  22
ATOM     22  C   UNL     1      44.405   4.232   9.176  0.00  0.00    +0.000 C 
BRANCH  22  23
ATOM     23  O   UNL     1      44.365   2.827   8.941  0.00  0.00    +0.000 OA
BRANCH  23  24
ATOM     24  C   UNL     1      45.508   2.445   8.269  0.00  0.00    +0.000 A 
ATOM     25  N   UNL     1      46.121   3.409   7.575  0.00  0.00    +0.000 NA
ATOM     26  C   UNL     1      47.217   3.024   6.886  0.00  0.00    +0.000 A 
ATOM     27  C   UNL     1      47.704   1.737   6.888  0.00  0.00    +0.000 A 
ATOM     28  C   UNL     1      47.012   0.837   7.647  0.00  0.00    +0.000 A 
ATOM     29  N   UNL     1      45.914   1.156   8.345  0.00  0.00    +0.000 NA
ENDBRANCH  23  24
ENDBRANCH  22  23
ENDBRANCH  21  22
ENDBRANCH   4  21
TORSDOF 8
ENDMDL
MODEL 9
REMARK VINA RESULT:    -7.094      2.044      8.261
REMARK INTER + INTRA:         -11.293
REMARK INTER:                  -9.832
REMARK INTRA:                  -1.461
REMARK UNBOUND:                -0.881
REMARK  Name = 
REMARK  8 active torsions:
REMARK  status: ('A' for Active; 'I' for Inactive)
REMARK    1  A    between atoms: C_2  and  O_3
REMARK    2  A    between atoms: C_2  and  C_20
REMARK    3  A    between atoms: O_3  and  C_4
REMARK    4  A    between atoms: C_4  and  C_5
REMARK    5  A    between atoms: C_8  and  C_9
REMARK    6  A    between atoms: C_9  and  C_10
REMARK    7  A    between atoms: C_10  and  O_11
REMARK    8  A    between atoms: O_11  and  C_12
REMARK                            x       y       z     vdW  Elec       q    Type
REMARK                         _______ _______ _______ _____ _____    ______ ____
ROOT
ATOM      1  C   UNL     1      46.519   4.668  14.212  0.00  0.00    +0.000 A 
ATOM      2  C   UNL     1      46.376   3.506  13.455  0.00  0.00    +0.000 A 
ATOM      3  C   UNL     1      45.647   3.527  12.268  0.00  0.00    +0.000 A 
ATOM      4  C   UNL     1      45.037   4.708  11.812  0.00  0.00    +0.000 A 
ATOM      5  C   UNL     1      45.187   5.871  12.575  0.00  0.00    +0.000 A 
ATOM      6  C   UNL     1      45.914   5.851  13.764  0.00  0.00    +0.000 A 
ENDROOT
BRANCH   1   7
ATOM      7  C   UNL     1      47.297   4.636  15.495  0.00  0.00    +0.000 C 
BRANCH   7   8
ATOM      8  O   UNL     1      48.559   5.258  15.275  0.00  0.00    +0.000 OA
BRANCH   8  10
ATOM      9  O   UNL     1      49.455   6.011  17.245  0.00  0.00    +0.000 OA
ATOM     10  C   UNL     1      48.921   6.226  16.162  0.00  0.00    +0.000 C 
BRANCH  10  11
ATOM     11  C   UNL     1      48.763   7.564  15.586  0.00  0.00    +0.000 A 
ATOM     12  N   UNL     1      48.327   8.625  16.298  0.00  0.00    +0.000 NA
ATOM     13  N   UNL     1      47.964   9.511  15.358  0.00  0.00    +0.000 N 
ATOM     14  C   UNL     1      48.083   9.038  14.081  0.00  0.00    +0.000 A 
ATOM     15  C   UNL     1      47.582   9.499  12.861  0.00  0.00    +0.000 A 
ATOM     16  C   UNL     1      47.935   8.771  11.721  0.00  0.00    +0.000 A 
ATOM     17  C   UNL     1      48.804   7.681  11.795  0.00  0.00    +0.000 A 
ATOM     18  C   UNL     1      49.251   7.209  13.031  0.00  0.00    +0.000 A 
ATOM     19  C   UNL     1      48.821   7.869  14.197  0.00  0.00    +0.000 A 
ATOM     20  H   UNL     1      47.586  10.402  15.660  0.00  0.00    +0.000 HD
ENDBRANCH  10  11
ENDBRANCH   8  10
ENDBRANCH   7   8
ENDBRANCH   1   7
BRANCH   4  21
ATOM     21  C   UNL     1      44.224   4.769  10.534  0.00  0.00    +0.000 C 
BRANCH  21  22
ATOM     22  C   UNL     1      45.024   4.419   9.281  0.00  0.00    +0.000 C 
BRANCH  22  23
ATOM     23  O   UNL     1      44.805   3.070   8.874  0.00  0.00    +0.000 OA
BRANCH  23  24
ATOM     24  C   UNL     1      45.753   2.720   7.934  0.00  0.00    +0.000 A 
ATOM     25  N   UNL     1      46.345   1.536   8.122  0.00  0.00    +0.000 NA
ATOM     26  C   UNL     1      47.300   1.213   7.225  0.00  0.00    +0.000 A 
ATOM     27  C   UNL     1      47.655   2.020   6.167  0.00  0.00    +0.000 A 
ATOM     28  C   UNL     1      46.973   3.198   6.059  0.00  0.00    +0.000 A 
ATOM     29  N   UNL     1      46.021   3.577   6.922  0.00  0.00    +0.000 NA
ENDBRANCH  23  24
ENDBRANCH  22  23
ENDBRANCH  21  22
ENDBRANCH   4  21
TORSDOF 8
ENDMDL
