MODEL 1
REMARK VINA RESULT:    -7.373      0.000      0.000
REMARK INTER + INTRA:         -10.765
REMARK INTER:                 -10.174
REMARK INTRA:                  -0.590
REMARK UNBOUND:                -0.590
REMARK  Name = 
REMARK  8 active torsions:
REMARK  status: ('A' for Active; 'I' for Inactive)
REMARK    1  A    between atoms: C_1  and  C_2
REMARK    2  A    between atoms: C_2  and  N_3
REMARK    3  A    between atoms: N_3  and  C_4
REMARK    4  A    between atoms: C_4  and  C_5
REMARK    5  A    between atoms: C_5  and  C_6
REMARK    6  A    between atoms: C_10  and  C_11
REMARK    7  A    between atoms: C_11  and  N_12
REMARK    8  A    between atoms: C_17  and  C_18
REMARK                            x       y       z     vdW  Elec       q    Type
REMARK                         _______ _______ _______ _____ _____    ______ ____
ROOT
ATOM      1  N   UNL     1      45.105   4.446  11.587  0.00  0.00    +0.000 N 
ATOM      2  C   UNL     1      46.002   5.027  12.519  0.00  0.00    +0.000 A 
ATOM      3  C   UNL     1      46.197   4.459  13.782  0.00  0.00    +0.000 A 
ATOM      4  C   UNL     1      47.120   5.004  14.677  0.00  0.00    +0.000 A 
ATOM      5  C   UNL     1      47.876   6.106  14.302  0.00  0.00    +0.000 A 
ATOM      6  C   UNL     1      47.637   6.621  13.042  0.00  0.00    +0.000 A 
ATOM      7  N   UNL     1      46.722   6.118  12.170  0.00  0.00    +0.000 NA
ENDROOT
BRANCH   5   8
ATOM      8  C   UNL     1      48.879   6.643  15.250  0.00  0.00    +0.000 C 
ATOM      9  N   UNL     1      48.507   6.901  16.539  0.00  0.00    +0.000 N 
ATOM     10  O   UNL     1      50.031   6.866  14.892  0.00  0.00    +0.000 OA
ATOM     11  H   UNL     1      47.577   6.815  16.919  0.00  0.00    +0.000 HD
ATOM     12  H   UNL     1      49.220   7.298  17.137  0.00  0.00    +0.000 HD
ENDBRANCH   5   8
BRANCH   1  14
ATOM     13  C   UNL     1      42.873   5.023  12.666  0.00  0.00    +0.000 C 
ATOM     14  C   UNL     1      43.857   3.960  12.212  0.00  0.00    +0.000 C 
ENDBRANCH   1  14
BRANCH   1  15
ATOM     15  C   UNL     1      45.052   5.152  10.281  0.00  0.00    +0.000 C 
BRANCH  15  16
ATOM     16  C   UNL     1      44.266   4.340   9.225  0.00  0.00    +0.000 C 
BRANCH  16  17
ATOM     17  C   UNL     1      45.080   3.264   8.537  0.00  0.00    +0.000 A 
ATOM     18  C   UNL     1      45.141   1.971   9.070  0.00  0.00    +0.000 A 
ATOM     19  C   UNL     1      45.913   0.989   8.450  0.00  0.00    +0.000 A 
ATOM     20  C   UNL     1      46.625   1.283   7.286  0.00  0.00    +0.000 A 
ATOM     21  C   UNL     1      46.593   2.570   6.732  0.00  0.00    +0.000 A 
ATOM     22  C   UNL     1      45.807   3.551   7.367  0.00  0.00    +0.000 A 
BRANCH  21  23
ATOM     23  C   UNL     1      47.290   2.900   5.433  0.00  0.00    +0.000 C 
BRANCH  23  24
ATOM     24  N   UNL     1      48.404   2.010   5.112  0.00  0.00    +0.000 NA
ATOM     25  H   UNL     1      48.930   2.412   4.337  0.00  0.00    +0.000 HD
ATOM     26  H   UNL     1      48.033   1.123   4.776  0.00  0.00    +0.000 HD
ENDBRANCH  23  24
ENDBRANCH  21  23
ENDBRANCH  16  17
ENDBRANCH  15  16
ENDBRANCH   1  15
TORSDOF 7
ENDMDL
MODEL 2
REMARK VINA RESULT:    -7.213      3.188      7.098
REMARK INTER + INTRA:         -10.544
REMARK INTER:                 -10.214
REMARK INTRA:                  -0.330
REMARK UNBOUND:                -0.590
REMARK  Name = 
REMARK  8 active torsions:
REMARK  status: ('A' for Active; 'I' for Inactive)
REMARK    1  A    between atoms: C_1  and  C_2
REMARK    2  A    between atoms: C_2  and  N_3
REMARK    3  A    between atoms: N_3  and  C_4
REMARK    4  A    between atoms: C_4  and  C_5
REMARK    5  A    between atoms: C_5  and  C_6
REMARK    6  A    between atoms: C_10  and  C_11
REMARK    7  A    between atoms: C_11  and  N_12
REMARK    8  A    between atoms: C_17  and  C_18
REMARK                            x       y       z     vdW  Elec       q    Type
REMARK                         _______ _______ _______ _____ _____    ______ ____
ROOT
ATOM      1  N   UNL     1      43.730   4.079  10.527  0.00  0.00    +0.000 N 
ATOM      2  C   UNL     1      44.679   3.658   9.562  0.00  0.00    +0.000 A 
ATOM      3  C   UNL     1      44.921   2.300   9.334  0.00  0.00    +0.000 A 
ATOM      4  C   UNL     1      45.818   1.889   8.346  0.00  0.00    +0.000 A 
ATOM      5  C   UNL     1      46.458   2.837   7.558  0.00  0.00    +0.000 A 
ATOM      6  C   UNL     1      46.177   4.161   7.832  0.00  0.00    +0.000 A 
ATOM      7  N   UNL     1      45.326   4.577   8.809  0.00  0.00    +0.000 NA
ENDROOT
BRANCH   5   8
ATOM      8  C   UNL     1      47.374   2.378   6.487  0.00  0.00    +0.000 C 
ATOM      9  N   UNL     1      47.406   3.056   5.302  0.00  0.00    +0.000 N 
ATOM     10  O   UNL     1      48.091   1.396   6.647  0.00  0.00    +0.000 OA
ATOM     11  H   UNL     1      46.816   3.833   5.044  0.00  0.00    +0.000 HD
ATOM     12  H   UNL     1      48.023   2.684   4.592  0.00  0.00    +0.000 HD
ENDBRANCH   5   8
BRANCH   1  14
ATOM     13  C   UNL     1      45.128   3.114  12.422  0.00  0.00    +0.000 C 
ATOM     14  C   UNL     1      43.769   3.273  11.765  0.00  0.00    +0.000 C 
ENDBRANCH   1  14
BRANCH   1  15
ATOM     15  C   UNL     1      43.566   5.553  10.609  0.00  0.00    +0.000 C 
BRANCH  15  16
ATOM     16  C   UNL     1      43.993   6.099  11.991  0.00  0.00    +0.000 C 
BRANCH  16  17
ATOM     17  C   UNL     1      45.267   6.919  11.969  0.00  0.00    +0.000 A 
ATOM     18  C   UNL     1      46.516   6.289  11.948  0.00  0.00    +0.000 A 
ATOM     19  C   UNL     1      47.687   7.045  11.955  0.00  0.00    +0.000 A 
ATOM     20  C   UNL     1      47.626   8.440  11.974  0.00  0.00    +0.000 A 
ATOM     21  C   UNL     1      46.390   9.101  12.005  0.00  0.00    +0.000 A 
ATOM     22  C   UNL     1      45.215   8.325  11.995  0.00  0.00    +0.000 A 
BRANCH  21  23
ATOM     23  C   UNL     1      46.288  10.609  11.949  0.00  0.00    +0.000 C 
BRANCH  23  24
ATOM     24  N   UNL     1      44.928  11.120  12.112  0.00  0.00    +0.000 NA
ATOM     25  H   UNL     1      44.739  11.787  11.366  0.00  0.00    +0.000 HD
ATOM     26  H   UNL     1      44.873  11.641  12.985  0.00  0.00    +0.000 HD
ENDBRANCH  23  24
ENDBRANCH  21  23
ENDBRANCH  16  17
ENDBRANCH  15  16
ENDBRANCH   1  15
TORSDOF 7
ENDMDL
MODEL 3
REMARK VINA RESULT:    -7.169      2.831      6.970
REMARK INTER + INTRA:         -10.484
REMARK INTER:                 -10.149
REMARK INTRA:                  -0.335
REMARK UNBOUND:                -0.590
REMARK  Name = 
REMARK  8 active torsions:
REMARK  status: ('A' for Active; 'I' for Inactive)
REMARK    1  A    between atoms: C_1  and  C_2
REMARK    2  A    between atoms: C_2  and  N_3
REMARK    3  A    between atoms: N_3  and  C_4
REMARK    4  A    between atoms: C_4  and  C_5
REMARK    5  A    between atoms: C_5  and  C_6
REMARK    6  A    between atoms: C_10  and  C_11
REMARK    7  A    between atoms: C_11  and  N_12
REMARK    8  A    between atoms: C_17  and  C_18
REMARK                            x       y       z     vdW  Elec       q    Type
REMARK                         _______ _______ _______ _____ _____    ______ ____
ROOT
ATOM      1  N   UNL     1      43.876   4.098  10.486  0.00  0.00    +0.000 N 
ATOM      2  C   UNL     1      44.807   3.665   9.509  0.00  0.00    +0.000 A 
ATOM      3  C   UNL     1      45.039   2.304   9.288  0.00  0.00    +0.000 A 
ATOM      4  C   UNL     1      45.918   1.880   8.289  0.00  0.00    +0.000 A 
ATOM      5  C   UNL     1      46.551   2.819   7.485  0.00  0.00    +0.000 A 
ATOM      6  C   UNL     1      46.282   4.147   7.753  0.00  0.00    +0.000 A 
ATOM      7  N   UNL     1      45.448   4.575   8.740  0.00  0.00    +0.000 NA
ENDROOT
BRANCH   5   8
ATOM      8  C   UNL     1      47.448   2.347   6.403  0.00  0.00    +0.000 C 
ATOM      9  N   UNL     1      47.428   2.984   5.195  0.00  0.00    +0.000 N 
ATOM     10  O   UNL     1      48.196   1.390   6.575  0.00  0.00    +0.000 OA
ATOM     11  H   UNL     1      46.809   3.735   4.929  0.00  0.00    +0.000 HD
ATOM     12  H   UNL     1      48.034   2.603   4.481  0.00  0.00    +0.000 HD
ENDBRANCH   5   8
BRANCH   1  14
ATOM     13  C   UNL     1      45.283   3.208  12.411  0.00  0.00    +0.000 C 
ATOM     14  C   UNL     1      43.930   3.301  11.729  0.00  0.00    +0.000 C 
ENDBRANCH   1  14
BRANCH   1  15
ATOM     15  C   UNL     1      43.722   5.573  10.559  0.00  0.00    +0.000 C 
BRANCH  15  16
ATOM     16  C   UNL     1      44.019   6.109  11.979  0.00  0.00    +0.000 C 
BRANCH  16  17
ATOM     17  C   UNL     1      45.175   7.085  12.046  0.00  0.00    +0.000 A 
ATOM     18  C   UNL     1      44.945   8.463  11.972  0.00  0.00    +0.000 A 
ATOM     19  C   UNL     1      46.013   9.359  12.007  0.00  0.00    +0.000 A 
ATOM     20  C   UNL     1      47.323   8.890  12.124  0.00  0.00    +0.000 A 
ATOM     21  C   UNL     1      47.587   7.515  12.190  0.00  0.00    +0.000 A 
ATOM     22  C   UNL     1      46.499   6.622  12.157  0.00  0.00    +0.000 A 
BRANCH  21  23
ATOM     23  C   UNL     1      48.986   6.978  12.394  0.00  0.00    +0.000 C 
BRANCH  23  24
ATOM     24  N   UNL     1      49.302   6.653  13.783  0.00  0.00    +0.000 NA
ATOM     25  H   UNL     1      48.498   6.189  14.201  0.00  0.00    +0.000 HD
ATOM     26  H   UNL     1      49.437   7.519  14.303  0.00  0.00    +0.000 HD
ENDBRANCH  23  24
ENDBRANCH  21  23
ENDBRANCH  16  17
ENDBRANCH  15  16
ENDBRANCH   1  15
TORSDOF 7
ENDMDL
MODEL 4
REMARK VINA RESULT:    -6.753      2.850      3.386
REMARK INTER + INTRA:          -9.909
REMARK INTER:                  -9.347
REMARK INTRA:                  -0.562
REMARK UNBOUND:                -0.590
REMARK  Name = 
REMARK  8 active torsions:
REMARK  status: ('A' for Active; 'I' for Inactive)
REMARK    1  A    between atoms: C_1  and  C_2
REMARK    2  A    between atoms: C_2  and  N_3
REMARK    3  A    between atoms: N_3  and  C_4
REMARK    4  A    between atoms: C_4  and  C_5
REMARK    5  A    between atoms: C_5  and  C_6
REMARK    6  A    between atoms: C_10  and  C_11
REMARK    7  A    between atoms: C_11  and  N_12
REMARK    8  A    between atoms: C_17  and  C_18
REMARK                            x       y       z     vdW  Elec       q    Type
REMARK                         _______ _______ _______ _____ _____    ______ ____
ROOT
ATOM      1  N   UNL     1      44.917   5.191  11.597  0.00  0.00    +0.000 N 
ATOM      2  C   UNL     1      44.986   6.600  11.742  0.00  0.00    +0.000 A 
ATOM      3  C   UNL     1      45.989   7.196  12.513  0.00  0.00    +0.000 A 
ATOM      4  C   UNL     1      46.085   8.586  12.611  0.00  0.00    +0.000 A 
ATOM      5  C   UNL     1      45.193   9.390  11.914  0.00  0.00    +0.000 A 
ATOM      6  C   UNL     1      44.226   8.742  11.170  0.00  0.00    +0.000 A 
ATOM      7  N   UNL     1      44.103   7.388  11.087  0.00  0.00    +0.000 NA
ENDROOT
BRANCH   5   8
ATOM      8  C   UNL     1      45.338  10.862  11.998  0.00  0.00    +0.000 C 
ATOM      9  N   UNL     1      46.564  11.396  12.278  0.00  0.00    +0.000 N 
ATOM     10  O   UNL     1      44.375  11.603  11.830  0.00  0.00    +0.000 OA
ATOM     11  H   UNL     1      47.403  10.879  12.495  0.00  0.00    +0.000 HD
ATOM     12  H   UNL     1      46.604  12.403  12.358  0.00  0.00    +0.000 HD
ENDBRANCH   5   8
BRANCH   1  14
ATOM     13  C   UNL     1      45.898   3.125  12.712  0.00  0.00    +0.000 C 
ATOM     14  C   UNL     1      45.203   4.467  12.852  0.00  0.00    +0.000 C 
ENDBRANCH   1  14
BRANCH   1  15
ATOM     15  C   UNL     1      43.818   4.731  10.710  0.00  0.00    +0.000 C 
BRANCH  15  16
ATOM     16  C   UNL     1      44.210   4.830   9.217  0.00  0.00    +0.000 C 
BRANCH  16  17
ATOM     17  C   UNL     1      44.986   3.637   8.697  0.00  0.00    +0.000 A 
ATOM     18  C   UNL     1      44.720   2.352   9.182  0.00  0.00    +0.000 A 
ATOM     19  C   UNL     1      45.454   1.260   8.723  0.00  0.00    +0.000 A 
ATOM     20  C   UNL     1      46.456   1.435   7.766  0.00  0.00    +0.000 A 
ATOM     21  C   UNL     1      46.753   2.711   7.268  0.00  0.00    +0.000 A 
ATOM     22  C   UNL     1      46.002   3.805   7.739  0.00  0.00    +0.000 A 
BRANCH  21  23
ATOM     23  C   UNL     1      47.778   2.925   6.178  0.00  0.00    +0.000 C 
BRANCH  23  24
ATOM     24  N   UNL     1      48.506   1.715   5.798  0.00  0.00    +0.000 NA
ATOM     25  H   UNL     1      49.437   1.752   6.210  0.00  0.00    +0.000 HD
ATOM     26  H   UNL     1      48.639   1.713   4.788  0.00  0.00    +0.000 HD
ENDBRANCH  23  24
ENDBRANCH  21  23
ENDBRANCH  16  17
ENDBRANCH  15  16
ENDBRANCH   1  15
TORSDOF 7
ENDMDL
MODEL 5
REMARK VINA RESULT:    -6.339      2.794      4.867
REMARK INTER + INTRA:          -9.338
REMARK INTER:                  -8.719
REMARK INTRA:                  -0.619
REMARK UNBOUND:                -0.590
REMARK  Name = 
REMARK  8 active torsions:
REMARK  status: ('A' for Active; 'I' for Inactive)
REMARK    1  A    between atoms: C_1  and  C_2
REMARK    2  A    between atoms: C_2  and  N_3
REMARK    3  A    between atoms: N_3  and  C_4
REMARK    4  A    between atoms: C_4  and  C_5
REMARK    5  A    between atoms: C_5  and  C_6
REMARK    6  A    between atoms: C_10  and  C_11
REMARK    7  A    between atoms: C_11  and  N_12
REMARK    8  A    between atoms: C_17  and  C_18
REMARK                            x       y       z     vdW  Elec       q    Type
REMARK                         _______ _______ _______ _____ _____    ______ ____
ROOT
ATOM      1  N   UNL     1      48.339   7.122  13.754  0.00  0.00    +0.000 N 
ATOM      2  C   UNL     1      48.186   6.123  14.749  0.00  0.00    +0.000 A 
ATOM      3  C   UNL     1      48.674   6.316  16.045  0.00  0.00    +0.000 A 
ATOM      4  C   UNL     1      48.476   5.352  17.036  0.00  0.00    +0.000 A 
ATOM      5  C   UNL     1      47.762   4.198  16.742  0.00  0.00    +0.000 A 
ATOM      6  C   UNL     1      47.307   4.065  15.444  0.00  0.00    +0.000 A 
ATOM      7  N   UNL     1      47.515   4.984  14.462  0.00  0.00    +0.000 NA
ENDROOT
BRANCH   5   8
ATOM      8  C   UNL     1      47.527   3.208  17.818  0.00  0.00    +0.000 C 
ATOM      9  N   UNL     1      48.393   3.151  18.873  0.00  0.00    +0.000 N 
ATOM     10  O   UNL     1      46.576   2.435  17.769  0.00  0.00    +0.000 OA
ATOM     11  H   UNL     1      49.238   3.693  18.980  0.00  0.00    +0.000 HD
ATOM     12  H   UNL     1      48.208   2.436  19.564  0.00  0.00    +0.000 HD
ENDBRANCH   5   8
BRANCH   1  14
ATOM     13  C   UNL     1      50.047   8.589  12.569  0.00  0.00    +0.000 C 
ATOM     14  C   UNL     1      49.662   7.778  13.793  0.00  0.00    +0.000 C 
ENDBRANCH   1  14
BRANCH   1  15
ATOM     15  C   UNL     1      47.725   6.770  12.449  0.00  0.00    +0.000 C 
BRANCH  15  16
ATOM     16  C   UNL     1      46.271   7.289  12.343  0.00  0.00    +0.000 C 
BRANCH  16  17
ATOM     17  C   UNL     1      45.261   6.233  11.945  0.00  0.00    +0.000 A 
ATOM     18  C   UNL     1      44.268   5.827  12.843  0.00  0.00    +0.000 A 
ATOM     19  C   UNL     1      43.357   4.835  12.485  0.00  0.00    +0.000 A 
ATOM     20  C   UNL     1      43.420   4.242  11.222  0.00  0.00    +0.000 A 
ATOM     21  C   UNL     1      44.409   4.619  10.304  0.00  0.00    +0.000 A 
ATOM     22  C   UNL     1      45.321   5.624  10.678  0.00  0.00    +0.000 A 
BRANCH  21  23
ATOM     23  C   UNL     1      44.458   4.052   8.903  0.00  0.00    +0.000 C 
BRANCH  23  24
ATOM     24  N   UNL     1      45.513   4.621   8.067  0.00  0.00    +0.000 NA
ATOM     25  H   UNL     1      46.416   4.349   8.451  0.00  0.00    +0.000 HD
ATOM     26  H   UNL     1      45.470   5.637   8.127  0.00  0.00    +0.000 HD
ENDBRANCH  23  24
ENDBRANCH  21  23
ENDBRANCH  16  17
ENDBRANCH  15  16
ENDBRANCH   1  15
TORSDOF 7
ENDMDL
MODEL 6
REMARK VINA RESULT:    -5.973      2.919      4.315
REMARK INTER + INTRA:          -8.833
REMARK INTER:                  -8.156
REMARK INTRA:                  -0.676
REMARK UNBOUND:                -0.590
REMARK  Name = 
REMARK  8 active torsions:
REMARK  status: ('A' for Active; 'I' for Inactive)
REMARK    1  A    between atoms: C_1  and  C_2
REMARK    2  A    between atoms: C_2  and  N_3
REMARK    3  A    between atoms: N_3  and  C_4
REMARK    4  A    between atoms: C_4  and  C_5
REMARK    5  A    between atoms: C_5  and  C_6
REMARK    6  A    between atoms: C_10  and  C_11
REMARK    7  A    between atoms: C_11  and  N_12
REMARK    8  A    between atoms: C_17  and  C_18
REMARK                            x       y       z     vdW  Elec       q    Type
REMARK                         _______ _______ _______ _____ _____    ______ ____
ROOT
ATOM      1  N   UNL     1      46.895   7.353  13.037  0.00  0.00    +0.000 N 
ATOM      2  C   UNL     1      47.207   6.291  13.923  0.00  0.00    +0.000 A 
ATOM      3  C   UNL     1      48.178   6.444  14.917  0.00  0.00    +0.000 A 
ATOM      4  C   UNL     1      48.446   5.414  15.821  0.00  0.00    +0.000 A 
ATOM      5  C   UNL     1      47.721   4.232  15.753  0.00  0.00    +0.000 A 
ATOM      6  C   UNL     1      46.775   4.142  14.750  0.00  0.00    +0.000 A 
ATOM      7  N   UNL     1      46.523   5.127  13.845  0.00  0.00    +0.000 NA
ENDROOT
BRANCH   5   8
ATOM      8  C   UNL     1      47.991   3.168  16.748  0.00  0.00    +0.000 C 
ATOM      9  N   UNL     1      47.209   3.085  17.865  0.00  0.00    +0.000 N 
ATOM     10  O   UNL     1      48.909   2.370  16.587  0.00  0.00    +0.000 OA
ATOM     11  H   UNL     1      46.473   3.724  18.125  0.00  0.00    +0.000 HD
ATOM     12  H   UNL     1      47.455   2.363  18.529  0.00  0.00    +0.000 HD
ENDBRANCH   5   8
BRANCH   1  14
ATOM     13  C   UNL     1      47.867   9.540  12.170  0.00  0.00    +0.000 C 
ATOM     14  C   UNL     1      48.088   8.096  12.583  0.00  0.00    +0.000 C 
ENDBRANCH   1  14
BRANCH   1  15
ATOM     15  C   UNL     1      45.811   7.035  12.074  0.00  0.00    +0.000 C 
BRANCH  15  16
ATOM     16  C   UNL     1      46.376   6.579  10.708  0.00  0.00    +0.000 C 
BRANCH  16  17
ATOM     17  C   UNL     1      45.704   5.348  10.136  0.00  0.00    +0.000 A 
ATOM     18  C   UNL     1      45.888   4.998   8.794  0.00  0.00    +0.000 A 
ATOM     19  C   UNL     1      45.246   3.880   8.263  0.00  0.00    +0.000 A 
ATOM     20  C   UNL     1      44.420   3.092   9.067  0.00  0.00    +0.000 A 
ATOM     21  C   UNL     1      44.208   3.422  10.413  0.00  0.00    +0.000 A 
ATOM     22  C   UNL     1      44.864   4.552  10.937  0.00  0.00    +0.000 A 
BRANCH  21  23
ATOM     23  C   UNL     1      43.382   2.548  11.330  0.00  0.00    +0.000 C 
BRANCH  23  24
ATOM     24  N   UNL     1      43.768   2.630  12.737  0.00  0.00    +0.000 NA
ATOM     25  H   UNL     1      43.668   1.707  13.157  0.00  0.00    +0.000 HD
ATOM     26  H   UNL     1      43.113   3.239  13.225  0.00  0.00    +0.000 HD
ENDBRANCH  23  24
ENDBRANCH  21  23
ENDBRANCH  16  17
ENDBRANCH  15  16
ENDBRANCH   1  15
TORSDOF 7
ENDMDL
MODEL 7
REMARK VINA RESULT:    -5.898      4.215      8.073
REMARK INTER + INTRA:          -8.730
REMARK INTER:                  -7.991
REMARK INTRA:                  -0.739
REMARK UNBOUND:                -0.590
REMARK  Name = 
REMARK  8 active torsions:
REMARK  status: ('A' for Active; 'I' for Inactive)
REMARK    1  A    between atoms: C_1  and  C_2
REMARK    2  A    between atoms: C_2  and  N_3
REMARK    3  A    between atoms: N_3  and  C_4
REMARK    4  A    between atoms: C_4  and  C_5
REMARK    5  A    between atoms: C_5  and  C_6
REMARK    6  A    between atoms: C_10  and  C_11
REMARK    7  A    between atoms: C_11  and  N_12
REMARK    8  A    between atoms: C_17  and  C_18
REMARK                            x       y       z     vdW  Elec       q    Type
REMARK                         _______ _______ _______ _____ _____    ______ ____
ROOT
ATOM      1  N   UNL     1      47.721   7.491  12.969  0.00  0.00    +0.000 N 
ATOM      2  C   UNL     1      46.720   6.514  12.739  0.00  0.00    +0.000 A 
ATOM      3  C   UNL     1      45.597   6.802  11.959  0.00  0.00    +0.000 A 
ATOM      4  C   UNL     1      44.640   5.821  11.692  0.00  0.00    +0.000 A 
ATOM      5  C   UNL     1      44.816   4.534  12.182  0.00  0.00    +0.000 A 
ATOM      6  C   UNL     1      45.946   4.312  12.946  0.00  0.00    +0.000 A 
ATOM      7  N   UNL     1      46.873   5.265  13.237  0.00  0.00    +0.000 NA
ENDROOT
BRANCH   5   8
ATOM      8  C   UNL     1      43.811   3.497  11.852  0.00  0.00    +0.000 C 
ATOM      9  N   UNL     1      43.838   2.305  12.520  0.00  0.00    +0.000 N 
ATOM     10  O   UNL     1      42.965   3.691  10.985  0.00  0.00    +0.000 OA
ATOM     11  H   UNL     1      44.524   2.020  13.201  0.00  0.00    +0.000 HD
ATOM     12  H   UNL     1      43.151   1.619  12.234  0.00  0.00    +0.000 HD
ENDBRANCH   5   8
BRANCH   1  14
ATOM     13  C   UNL     1      47.607   9.931  12.255  0.00  0.00    +0.000 C 
ATOM     14  C   UNL     1      47.167   8.839  13.212  0.00  0.00    +0.000 C 
ENDBRANCH   1  14
BRANCH   1  15
ATOM     15  C   UNL     1      48.864   7.004  13.782  0.00  0.00    +0.000 C 
BRANCH  15  16
ATOM     16  C   UNL     1      48.952   7.736  15.142  0.00  0.00    +0.000 C 
BRANCH  16  17
ATOM     17  C   UNL     1      48.723   6.843  16.344  0.00  0.00    +0.000 A 
ATOM     18  C   UNL     1      48.844   7.355  17.641  0.00  0.00    +0.000 A 
ATOM     19  C   UNL     1      48.660   6.525  18.745  0.00  0.00    +0.000 A 
ATOM     20  C   UNL     1      48.345   5.176  18.570  0.00  0.00    +0.000 A 
ATOM     21  C   UNL     1      48.228   4.631  17.284  0.00  0.00    +0.000 A 
ATOM     22  C   UNL     1      48.413   5.481  16.177  0.00  0.00    +0.000 A 
BRANCH  21  23
ATOM     23  C   UNL     1      47.814   3.194  17.059  0.00  0.00    +0.000 C 
BRANCH  23  24
ATOM     24  N   UNL     1      46.605   2.802  17.780  0.00  0.00    +0.000 NA
ATOM     25  H   UNL     1      46.789   2.859  18.781  0.00  0.00    +0.000 HD
ATOM     26  H   UNL     1      46.403   1.824  17.580  0.00  0.00    +0.000 HD
ENDBRANCH  23  24
ENDBRANCH  21  23
ENDBRANCH  16  17
ENDBRANCH  15  16
ENDBRANCH   1  15
TORSDOF 7
ENDMDL
MODEL 8
REMARK VINA RESULT:    -5.624      3.908      8.569
REMARK INTER + INTRA:          -8.351
REMARK INTER:                  -7.660
REMARK INTRA:                  -0.691
REMARK UNBOUND:                -0.590
REMARK  Name = 
REMARK  8 active torsions:
REMARK  status: ('A' for Active; 'I' for Inactive)
REMARK    1  A    between atoms: C_1  and  C_2
REMARK    2  A    between atoms: C_2  and  N_3
REMARK    3  A    between atoms: N_3  and  C_4
REMARK    4  A    between atoms: C_4  and  C_5
REMARK    5  A    between atoms: C_5  and  C_6
REMARK    6  A    between atoms: C_10  and  C_11
REMARK    7  A    between atoms: C_11  and  N_12
REMARK    8  A    between atoms: C_17  and  C_18
REMARK                            x       y       z     vdW  Elec       q    Type
REMARK                         _______ _______ _______ _____ _____    ______ ____
ROOT
ATOM      1  N   UNL     1      48.044   5.311  15.514  0.00  0.00    +0.000 N 
ATOM      2  C   UNL     1      47.261   5.383  14.334  0.00  0.00    +0.000 A 
ATOM      3  C   UNL     1      47.672   6.156  13.243  0.00  0.00    +0.000 A 
ATOM      4  C   UNL     1      46.924   6.183  12.064  0.00  0.00    +0.000 A 
ATOM      5  C   UNL     1      45.774   5.412  11.959  0.00  0.00    +0.000 A 
ATOM      6  C   UNL     1      45.421   4.672  13.071  0.00  0.00    +0.000 A 
ATOM      7  N   UNL     1      46.125   4.656  14.236  0.00  0.00    +0.000 NA
ENDROOT
BRANCH   5   8
ATOM      8  C   UNL     1      45.019   5.423  10.684  0.00  0.00    +0.000 C 
ATOM      9  N   UNL     1      43.654   5.477  10.718  0.00  0.00    +0.000 N 
ATOM     10  O   UNL     1      45.600   5.373   9.605  0.00  0.00    +0.000 OA
ATOM     11  H   UNL     1      43.078   5.457  11.546  0.00  0.00    +0.000 HD
ATOM     12  H   UNL     1      43.185   5.448   9.822  0.00  0.00    +0.000 HD
ENDBRANCH   5   8
BRANCH   1  14
ATOM     13  C   UNL     1      50.136   6.732  15.800  0.00  0.00    +0.000 C 
ATOM     14  C   UNL     1      48.627   6.613  15.901  0.00  0.00    +0.000 C 
ENDBRANCH   1  14
BRANCH   1  15
ATOM     15  C   UNL     1      47.483   4.413  16.555  0.00  0.00    +0.000 C 
BRANCH  15  16
ATOM     16  C   UNL     1      48.336   3.133  16.724  0.00  0.00    +0.000 C 
BRANCH  16  17
ATOM     17  C   UNL     1      49.621   3.340  17.498  0.00  0.00    +0.000 A 
ATOM     18  C   UNL     1      49.743   4.401  18.401  0.00  0.00    +0.000 A 
ATOM     19  C   UNL     1      50.936   4.606  19.091  0.00  0.00    +0.000 A 
ATOM     20  C   UNL     1      52.021   3.749  18.895  0.00  0.00    +0.000 A 
ATOM     21  C   UNL     1      51.935   2.683  17.990  0.00  0.00    +0.000 A 
ATOM     22  C   UNL     1      50.722   2.486  17.302  0.00  0.00    +0.000 A 
BRANCH  21  23
ATOM     23  C   UNL     1      53.062   1.692  17.811  0.00  0.00    +0.000 C 
BRANCH  23  24
ATOM     24  N   UNL     1      52.654   0.429  17.200  0.00  0.00    +0.000 NA
ATOM     25  H   UNL     1      51.636   0.388  17.184  0.00  0.00    +0.000 HD
ATOM     26  H   UNL     1      52.963  -0.340  17.793  0.00  0.00    +0.000 HD
ENDBRANCH  23  24
ENDBRANCH  21  23
ENDBRANCH  16  17
ENDBRANCH  15  16
ENDBRANCH   1  15
TORSDOF 7
ENDMDL
MODEL 9
REMARK VINA RESULT:    -5.618      2.178      3.229
REMARK INTER + INTRA:          -8.343
REMARK INTER:                  -7.649
REMARK INTRA:                  -0.694
REMARK UNBOUND:                -0.590
REMARK  Name = 
REMARK  8 active torsions:
REMARK  status: ('A' for Active; 'I' for Inactive)
REMARK    1  A    between atoms: C_1  and  C_2
REMARK    2  A    between atoms: C_2  and  N_3
REMARK    3  A    between atoms: N_3  and  C_4
REMARK    4  A    between atoms: C_4  and  C_5
REMARK    5  A    between atoms: C_5  and  C_6
REMARK    6  A    between atoms: C_10  and  C_11
REMARK    7  A    between atoms: C_11  and  N_12
REMARK    8  A    between atoms: C_17  and  C_18
REMARK                            x       y       z     vdW  Elec       q    Type
REMARK                         _______ _______ _______ _____ _____    ______ ____
ROOT
ATOM      1  N   UNL     1      47.201   6.099  12.828  0.00  0.00    +0.000 N 
ATOM      2  C   UNL     1      47.810   7.155  13.552  0.00  0.00    +0.000 A 
ATOM      3  C   UNL     1      48.442   6.918  14.777  0.00  0.00    +0.000 A 
ATOM      4  C   UNL     1      49.086   7.951  15.461  0.00  0.00    +0.000 A 
ATOM      5  C   UNL     1      49.126   9.224  14.909  0.00  0.00    +0.000 A 
ATOM      6  C   UNL     1      48.484   9.395  13.698  0.00  0.00    +0.000 A 
ATOM      7  N   UNL     1      47.829   8.404  13.032  0.00  0.00    +0.000 NA
ENDROOT
BRANCH   5   8
ATOM      8  C   UNL     1      49.851  10.296  15.631  0.00  0.00    +0.000 C 
ATOM      9  N   UNL     1      49.760  11.583  15.181  0.00  0.00    +0.000 N 
ATOM     10  O   UNL     1      50.535  10.042  16.617  0.00  0.00    +0.000 OA
ATOM     11  H   UNL     1      49.279  11.890  14.349  0.00  0.00    +0.000 HD
ATOM     12  H   UNL     1      50.300  12.271  15.689  0.00  0.00    +0.000 HD
ENDBRANCH   5   8
BRANCH   1  14
ATOM     13  C   UNL     1      46.947   3.712  13.673  0.00  0.00    +0.000 C 
ATOM     14  C   UNL     1      46.468   5.152  13.694  0.00  0.00    +0.000 C 
ENDBRANCH   1  14
BRANCH   1  15
ATOM     15  C   UNL     1      46.615   6.519  11.529  0.00  0.00    +0.000 C 
BRANCH  15  16
ATOM     16  C   UNL     1      45.133   6.093  11.406  0.00  0.00    +0.000 C 
BRANCH  16  17
ATOM     17  C   UNL     1      44.916   4.821  10.613  0.00  0.00    +0.000 A 
ATOM     18  C   UNL     1      44.175   3.765  11.154  0.00  0.00    +0.000 A 
ATOM     19  C   UNL     1      43.999   2.585  10.433  0.00  0.00    +0.000 A 
ATOM     20  C   UNL     1      44.553   2.448   9.158  0.00  0.00    +0.000 A 
ATOM     21  C   UNL     1      45.308   3.484   8.592  0.00  0.00    +0.000 A 
ATOM     22  C   UNL     1      45.475   4.671   9.331  0.00  0.00    +0.000 A 
BRANCH  21  23
ATOM     23  C   UNL     1      45.856   3.398   7.185  0.00  0.00    +0.000 C 
BRANCH  23  24
ATOM     24  N   UNL     1      46.978   4.298   6.928  0.00  0.00    +0.000 NA
ATOM     25  H   UNL     1      47.708   4.115   7.615  0.00  0.00    +0.000 HD
ATOM     26  H   UNL     1      46.674   5.258   7.080  0.00  0.00    +0.000 HD
ENDBRANCH  23  24
ENDBRANCH  21  23
ENDBRANCH  16  17
ENDBRANCH  15  16
ENDBRANCH   1  15
TORSDOF 7
ENDMDL
