MODEL 1
REMARK VINA RESULT:    -8.841      0.000      0.000
REMARK INTER + INTRA:         -13.593
REMARK INTER:                 -12.718
REMARK INTRA:                  -0.876
REMARK UNBOUND:                -0.876
REMARK  Name = 
REMARK  9 active torsions:
REMARK  status: ('A' for Active; 'I' for Inactive)
REMARK    1  A    between atoms: C_1  and  O_2
REMARK    2  A    between atoms: O_2  and  C_3
REMARK    3  A    between atoms: C_5  and  C_6
REMARK    4  A    between atoms: C_6  and  C_7
REMARK    5  A    between atoms: C_7  and  N_8
REMARK    6  A    between atoms: C_12  and  C_13
REMARK    7  A    between atoms: C_19  and  C_20
REMARK    8  A    between atoms: C_24  and  C_25
REMARK    9  A    between atoms: C_25  and  O_26
REMARK                            x       y       z     vdW  Elec       q    Type
REMARK                         _______ _______ _______ _____ _____    ______ ____
ROOT
ATOM      1  C   UNL     1      46.897   4.549  14.018  0.00  0.00    +0.000 A 
ATOM      2  C   UNL     1      45.588   4.247  13.625  0.00  0.00    +0.000 A 
ATOM      3  C   UNL     1      44.884   5.114  12.779  0.00  0.00    +0.000 A 
ATOM      4  C   UNL     1      45.542   6.264  12.318  0.00  0.00    +0.000 A 
ATOM      5  C   UNL     1      46.834   6.619  12.726  0.00  0.00    +0.000 A 
ATOM      6  C   UNL     1      47.507   5.722  13.563  0.00  0.00    +0.000 A 
ENDROOT
BRANCH   5   7
ATOM      7  C   UNL     1      47.419   7.909  12.301  0.00  0.00    +0.000 A 
ATOM      8  C   UNL     1      48.750   8.007  11.875  0.00  0.00    +0.000 A 
ATOM      9  C   UNL     1      49.284   9.230  11.464  0.00  0.00    +0.000 A 
ATOM     10  C   UNL     1      48.487  10.374  11.438  0.00  0.00    +0.000 A 
ATOM     11  C   UNL     1      47.152  10.313  11.842  0.00  0.00    +0.000 A 
ATOM     12  C   UNL     1      46.647   9.091  12.302  0.00  0.00    +0.000 A 
BRANCH  11  13
ATOM     13  C   UNL     1      46.258  11.524  11.796  0.00  0.00    +0.000 C 
BRANCH  13  14
ATOM     14  O   UNL     1      44.927  11.177  12.165  0.00  0.00    +0.000 OA
ATOM     15  H   UNL     1      44.616  11.879  12.764  0.00  0.00    +0.000 HD
ENDBRANCH  13  14
ENDBRANCH  11  13
ENDBRANCH   5   7
BRANCH   1  17
ATOM     16  C   UNL     1      47.580   4.099  16.248  0.00  0.00    +0.000 C 
ATOM     17  O   UNL     1      47.680   3.810  14.862  0.00  0.00    +0.000 OA
ENDBRANCH   1  17
BRANCH   3  18
ATOM     18  C   UNL     1      43.429   4.832  12.433  0.00  0.00    +0.000 C 
BRANCH  18  19
ATOM     19  C   UNL     1      43.227   4.263  11.023  0.00  0.00    +0.000 C 
BRANCH  19  20
ATOM     20  N   UNL     1      43.970   4.989   9.988  0.00  0.00    +0.000 N 
ATOM     21  C   UNL     1      44.794   4.099   9.258  0.00  0.00    +0.000 A 
ATOM     22  C   UNL     1      45.586   4.601   8.232  0.00  0.00    +0.000 A 
ATOM     23  C   UNL     1      46.404   3.726   7.512  0.00  0.00    +0.000 A 
ATOM     24  C   UNL     1      46.427   2.364   7.831  0.00  0.00    +0.000 A 
ATOM     25  C   UNL     1      45.597   1.951   8.857  0.00  0.00    +0.000 A 
ATOM     26  N   UNL     1      44.791   2.783   9.558  0.00  0.00    +0.000 NA
ATOM     27  H   UNL     1      44.568   5.708  10.387  0.00  0.00    +0.000 HD
BRANCH  24  28
ATOM     28  C   UNL     1      47.302   1.446   7.074  0.00  0.00    +0.000 C 
ATOM     29  N   UNL     1      48.461   1.931   6.531  0.00  0.00    +0.000 N 
ATOM     30  O   UNL     1      47.002   0.264   6.922  0.00  0.00    +0.000 OA
ATOM     31  H   UNL     1      48.776   2.887   6.553  0.00  0.00    +0.000 HD
ATOM     32  H   UNL     1      49.020   1.273   5.999  0.00  0.00    +0.000 HD
ENDBRANCH  24  28
ENDBRANCH  19  20
ENDBRANCH  18  19
ENDBRANCH   3  18
TORSDOF 8
ENDMDL
MODEL 2
REMARK VINA RESULT:    -8.775      1.592      2.102
REMARK INTER + INTRA:         -13.498
REMARK INTER:                 -12.493
REMARK INTRA:                  -1.005
REMARK UNBOUND:                -0.876
REMARK  Name = 
REMARK  9 active torsions:
REMARK  status: ('A' for Active; 'I' for Inactive)
REMARK    1  A    between atoms: C_1  and  O_2
REMARK    2  A    between atoms: O_2  and  C_3
REMARK    3  A    between atoms: C_5  and  C_6
REMARK    4  A    between atoms: C_6  and  C_7
REMARK    5  A    between atoms: C_7  and  N_8
REMARK    6  A    between atoms: C_12  and  C_13
REMARK    7  A    between atoms: C_19  and  C_20
REMARK    8  A    between atoms: C_24  and  C_25
REMARK    9  A    between atoms: C_25  and  O_26
REMARK                            x       y       z     vdW  Elec       q    Type
REMARK                         _______ _______ _______ _____ _____    ______ ____
ROOT
ATOM      1  C   UNL     1      46.746   4.475  14.036  0.00  0.00    +0.000 A 
ATOM      2  C   UNL     1      45.411   4.342  13.637  0.00  0.00    +0.000 A 
ATOM      3  C   UNL     1      44.832   5.281  12.773  0.00  0.00    +0.000 A 
ATOM      4  C   UNL     1      45.638   6.329  12.302  0.00  0.00    +0.000 A 
ATOM      5  C   UNL     1      46.963   6.516  12.716  0.00  0.00    +0.000 A 
ATOM      6  C   UNL     1      47.507   5.552  13.571  0.00  0.00    +0.000 A 
ENDROOT
BRANCH   5   7
ATOM      7  C   UNL     1      47.715   7.713  12.279  0.00  0.00    +0.000 A 
ATOM      8  C   UNL     1      47.132   8.987  12.279  0.00  0.00    +0.000 A 
ATOM      9  C   UNL     1      47.859  10.109  11.877  0.00  0.00    +0.000 A 
ATOM     10  C   UNL     1      49.194   9.985  11.498  0.00  0.00    +0.000 A 
ATOM     11  C   UNL     1      49.814   8.734  11.499  0.00  0.00    +0.000 A 
ATOM     12  C   UNL     1      49.057   7.611  11.854  0.00  0.00    +0.000 A 
BRANCH  11  13
ATOM     13  C   UNL     1      51.265   8.572  11.125  0.00  0.00    +0.000 C 
BRANCH  13  14
ATOM     14  O   UNL     1      51.608   7.193  11.041  0.00  0.00    +0.000 OA
ATOM     15  H   UNL     1      52.190   7.101  10.265  0.00  0.00    +0.000 HD
ENDBRANCH  13  14
ENDBRANCH  11  13
ENDBRANCH   5   7
BRANCH   1  17
ATOM     16  C   UNL     1      47.357   3.977  16.277  0.00  0.00    +0.000 C 
ATOM     17  O   UNL     1      47.419   3.652  14.897  0.00  0.00    +0.000 OA
ENDBRANCH   1  17
BRANCH   3  18
ATOM     18  C   UNL     1      43.354   5.188  12.419  0.00  0.00    +0.000 C 
BRANCH  18  19
ATOM     19  C   UNL     1      43.082   4.491  11.081  0.00  0.00    +0.000 C 
BRANCH  19  20
ATOM     20  N   UNL     1      43.814   5.080   9.955  0.00  0.00    +0.000 N 
ATOM     21  C   UNL     1      44.612   4.098   9.319  0.00  0.00    +0.000 A 
ATOM     22  C   UNL     1      45.390   4.465   8.227  0.00  0.00    +0.000 A 
ATOM     23  C   UNL     1      46.182   3.500   7.600  0.00  0.00    +0.000 A 
ATOM     24  C   UNL     1      46.195   2.185   8.075  0.00  0.00    +0.000 A 
ATOM     25  C   UNL     1      45.380   1.907   9.157  0.00  0.00    +0.000 A 
ATOM     26  N   UNL     1      44.598   2.826   9.771  0.00  0.00    +0.000 NA
ATOM     27  H   UNL     1      44.429   5.831  10.256  0.00  0.00    +0.000 HD
BRANCH  24  28
ATOM     28  C   UNL     1      47.042   1.172   7.416  0.00  0.00    +0.000 C 
ATOM     29  N   UNL     1      48.038   1.587   6.573  0.00  0.00    +0.000 N 
ATOM     30  O   UNL     1      46.863  -0.029   7.607  0.00  0.00    +0.000 OA
ATOM     31  H   UNL     1      48.239   2.538   6.309  0.00  0.00    +0.000 HD
ATOM     32  H   UNL     1      48.581   0.859   6.122  0.00  0.00    +0.000 HD
ENDBRANCH  24  28
ENDBRANCH  19  20
ENDBRANCH  18  19
ENDBRANCH   3  18
TORSDOF 8
ENDMDL
MODEL 3
REMARK VINA RESULT:    -8.280      1.297      1.820
REMARK INTER + INTRA:         -12.786
REMARK INTER:                 -12.130
REMARK INTRA:                  -0.656
REMARK UNBOUND:                -0.876
REMARK  Name = 
REMARK  9 active torsions:
REMARK  status: ('A' for Active; 'I' for Inactive)
REMARK    1  A    between atoms: C_1  and  O_2
REMARK    2  A    between atoms: O_2  and  C_3
REMARK    3  A    between atoms: C_5  and  C_6
REMARK    4  A    between atoms: C_6  and  C_7
REMARK    5  A    between atoms: C_7  and  N_8
REMARK    6  A    between atoms: C_12  and  C_13
REMARK    7  A    between atoms: C_19  and  C_20
REMARK    8  A    between atoms: C_24  and  C_25
REMARK    9  A    between atoms: C_25  and  O_26
REMARK                            x       y       z     vdW  Elec       q    Type
REMARK                         _______ _______ _______ _____ _____    ______ ____
ROOT
ATOM      1  C   UNL     1      46.971   5.824  13.651  0.00  0.00    +0.000 A 
ATOM      2  C   UNL     1      45.896   4.960  13.413  0.00  0.00    +0.000 A 
ATOM      3  C   UNL     1      44.753   5.417  12.743  0.00  0.00    +0.000 A 
ATOM      4  C   UNL     1      44.739   6.747  12.296  0.00  0.00    +0.000 A 
ATOM      5  C   UNL     1      45.778   7.649  12.556  0.00  0.00    +0.000 A 
ATOM      6  C   UNL     1      46.905   7.152  13.218  0.00  0.00    +0.000 A 
ENDROOT
BRANCH   5   7
ATOM      7  C   UNL     1      45.642   9.070  12.166  0.00  0.00    +0.000 A 
ATOM      8  C   UNL     1      46.759   9.906  12.036  0.00  0.00    +0.000 A 
ATOM      9  C   UNL     1      46.616  11.241  11.653  0.00  0.00    +0.000 A 
ATOM     10  C   UNL     1      45.356  11.758  11.360  0.00  0.00    +0.000 A 
ATOM     11  C   UNL     1      44.220  10.953  11.465  0.00  0.00    +0.000 A 
ATOM     12  C   UNL     1      44.375   9.631  11.900  0.00  0.00    +0.000 A 
BRANCH  11  13
ATOM     13  C   UNL     1      42.849  11.475  11.125  0.00  0.00    +0.000 C 
BRANCH  13  14
ATOM     14  O   UNL     1      41.860  10.847  11.936  0.00  0.00    +0.000 OA
ATOM     15  H   UNL     1      41.373  11.564  12.379  0.00  0.00    +0.000 HD
ENDBRANCH  13  14
ENDBRANCH  11  13
ENDBRANCH   5   7
BRANCH   1  17
ATOM     16  C   UNL     1      48.813   6.590  14.941  0.00  0.00    +0.000 C 
ATOM     17  O   UNL     1      48.124   5.516  14.319  0.00  0.00    +0.000 OA
ENDBRANCH   1  17
BRANCH   3  18
ATOM     18  C   UNL     1      43.548   4.503  12.572  0.00  0.00    +0.000 C 
BRANCH  18  19
ATOM     19  C   UNL     1      43.260   4.126  11.114  0.00  0.00    +0.000 C 
BRANCH  19  20
ATOM     20  N   UNL     1      44.040   4.902  10.145  0.00  0.00    +0.000 N 
ATOM     21  C   UNL     1      44.836   4.041   9.350  0.00  0.00    +0.000 A 
ATOM     22  C   UNL     1      45.655   4.591   8.372  0.00  0.00    +0.000 A 
ATOM     23  C   UNL     1      46.445   3.745   7.590  0.00  0.00    +0.000 A 
ATOM     24  C   UNL     1      46.414   2.362   7.799  0.00  0.00    +0.000 A 
ATOM     25  C   UNL     1      45.559   1.902   8.785  0.00  0.00    +0.000 A 
ATOM     26  N   UNL     1      44.779   2.706   9.544  0.00  0.00    +0.000 NA
ATOM     27  H   UNL     1      44.662   5.563  10.602  0.00  0.00    +0.000 HD
BRANCH  24  28
ATOM     28  C   UNL     1      47.259   1.474   6.978  0.00  0.00    +0.000 C 
ATOM     29  N   UNL     1      48.339   2.003   6.325  0.00  0.00    +0.000 N 
ATOM     30  O   UNL     1      47.003   0.276   6.868  0.00  0.00    +0.000 OA
ATOM     31  H   UNL     1      48.609   2.973   6.307  0.00  0.00    +0.000 HD
ATOM     32  H   UNL     1      48.879   1.363   5.752  0.00  0.00    +0.000 HD
ENDBRANCH  24  28
ENDBRANCH  19  20
ENDBRANCH  18  19
ENDBRANCH   3  18
TORSDOF 8
ENDMDL
MODEL 4
REMARK VINA RESULT:    -7.791      2.045      4.707
REMARK INTER + INTRA:         -12.083
REMARK INTER:                 -11.059
REMARK INTRA:                  -1.024
REMARK UNBOUND:                -0.876
REMARK  Name = 
REMARK  9 active torsions:
REMARK  status: ('A' for Active; 'I' for Inactive)
REMARK    1  A    between atoms: C_1  and  O_2
REMARK    2  A    between atoms: O_2  and  C_3
REMARK    3  A    between atoms: C_5  and  C_6
REMARK    4  A    between atoms: C_6  and  C_7
REMARK    5  A    between atoms: C_7  and  N_8
REMARK    6  A    between atoms: C_12  and  C_13
REMARK    7  A    between atoms: C_19  and  C_20
REMARK    8  A    between atoms: C_24  and  C_25
REMARK    9  A    between atoms: C_25  and  O_26
REMARK                            x       y       z     vdW  Elec       q    Type
REMARK                         _______ _______ _______ _____ _____    ______ ____
ROOT
ATOM      1  C   UNL     1      47.825   7.002  11.855  0.00  0.00    +0.000 A 
ATOM      2  C   UNL     1      46.494   6.670  11.579  0.00  0.00    +0.000 A 
ATOM      3  C   UNL     1      45.697   6.062  12.558  0.00  0.00    +0.000 A 
ATOM      4  C   UNL     1      46.264   5.830  13.820  0.00  0.00    +0.000 A 
ATOM      5  C   UNL     1      47.605   6.109  14.116  0.00  0.00    +0.000 A 
ATOM      6  C   UNL     1      48.364   6.725  13.115  0.00  0.00    +0.000 A 
ENDROOT
BRANCH   5   7
ATOM      7  C   UNL     1      48.171   5.723  15.426  0.00  0.00    +0.000 A 
ATOM      8  C   UNL     1      49.078   6.546  16.106  0.00  0.00    +0.000 A 
ATOM      9  C   UNL     1      49.594   6.175  17.349  0.00  0.00    +0.000 A 
ATOM     10  C   UNL     1      49.187   4.986  17.953  0.00  0.00    +0.000 A 
ATOM     11  C   UNL     1      48.275   4.146  17.314  0.00  0.00    +0.000 A 
ATOM     12  C   UNL     1      47.807   4.507  16.044  0.00  0.00    +0.000 A 
BRANCH  11  13
ATOM     13  C   UNL     1      47.792   2.871  17.955  0.00  0.00    +0.000 C 
BRANCH  13  14
ATOM     14  O   UNL     1      46.405   2.677  17.700  0.00  0.00    +0.000 OA
ATOM     15  H   UNL     1      46.098   3.473  17.230  0.00  0.00    +0.000 HD
ENDBRANCH  13  14
ENDBRANCH  11  13
ENDBRANCH   5   7
BRANCH   1  17
ATOM     16  C   UNL     1      49.812   8.267  11.550  0.00  0.00    +0.000 C 
ATOM     17  O   UNL     1      48.716   7.565  10.984  0.00  0.00    +0.000 OA
ENDBRANCH   1  17
BRANCH   3  18
ATOM     18  C   UNL     1      44.281   5.613  12.223  0.00  0.00    +0.000 C 
BRANCH  18  19
ATOM     19  C   UNL     1      44.101   5.168  10.767  0.00  0.00    +0.000 C 
BRANCH  19  20
ATOM     20  N   UNL     1      44.140   3.713  10.592  0.00  0.00    +0.000 N 
ATOM     21  C   UNL     1      44.983   3.369   9.507  0.00  0.00    +0.000 A 
ATOM     22  C   UNL     1      45.144   2.029   9.177  0.00  0.00    +0.000 A 
ATOM     23  C   UNL     1      45.972   1.687   8.104  0.00  0.00    +0.000 A 
ATOM     24  C   UNL     1      46.619   2.686   7.370  0.00  0.00    +0.000 A 
ATOM     25  C   UNL     1      46.410   3.991   7.777  0.00  0.00    +0.000 A 
ATOM     26  N   UNL     1      45.621   4.340   8.821  0.00  0.00    +0.000 NA
ATOM     27  H   UNL     1      43.217   3.331  10.400  0.00  0.00    +0.000 HD
BRANCH  24  28
ATOM     28  C   UNL     1      47.482   2.319   6.230  0.00  0.00    +0.000 C 
ATOM     29  N   UNL     1      47.477   3.109   5.112  0.00  0.00    +0.000 N 
ATOM     30  O   UNL     1      48.195   1.319   6.269  0.00  0.00    +0.000 OA
ATOM     31  H   UNL     1      46.898   3.918   4.956  0.00  0.00    +0.000 HD
ATOM     32  H   UNL     1      48.066   2.808   4.343  0.00  0.00    +0.000 HD
ENDBRANCH  24  28
ENDBRANCH  19  20
ENDBRANCH  18  19
ENDBRANCH   3  18
TORSDOF 8
ENDMDL
MODEL 5
REMARK VINA RESULT:    -7.603      1.755      4.817
REMARK INTER + INTRA:         -11.812
REMARK INTER:                 -11.150
REMARK INTRA:                  -0.662
REMARK UNBOUND:                -0.876
REMARK  Name = 
REMARK  9 active torsions:
REMARK  status: ('A' for Active; 'I' for Inactive)
REMARK    1  A    between atoms: C_1  and  O_2
REMARK    2  A    between atoms: O_2  and  C_3
REMARK    3  A    between atoms: C_5  and  C_6
REMARK    4  A    between atoms: C_6  and  C_7
REMARK    5  A    between atoms: C_7  and  N_8
REMARK    6  A    between atoms: C_12  and  C_13
REMARK    7  A    between atoms: C_19  and  C_20
REMARK    8  A    between atoms: C_24  and  C_25
REMARK    9  A    between atoms: C_25  and  O_26
REMARK                            x       y       z     vdW  Elec       q    Type
REMARK                         _______ _______ _______ _____ _____    ______ ____
ROOT
ATOM      1  C   UNL     1      46.839   6.864  12.410  0.00  0.00    +0.000 A 
ATOM      2  C   UNL     1      45.507   6.620  12.054  0.00  0.00    +0.000 A 
ATOM      3  C   UNL     1      44.748   5.673  12.753  0.00  0.00    +0.000 A 
ATOM      4  C   UNL     1      45.353   5.008  13.831  0.00  0.00    +0.000 A 
ATOM      5  C   UNL     1      46.695   5.195  14.186  0.00  0.00    +0.000 A 
ATOM      6  C   UNL     1      47.416   6.157  13.470  0.00  0.00    +0.000 A 
ENDROOT
BRANCH   5   7
ATOM      7  C   UNL     1      47.303   4.370  15.251  0.00  0.00    +0.000 A 
ATOM      8  C   UNL     1      47.691   3.043  15.021  0.00  0.00    +0.000 A 
ATOM      9  C   UNL     1      48.277   2.280  16.034  0.00  0.00    +0.000 A 
ATOM     10  C   UNL     1      48.517   2.840  17.288  0.00  0.00    +0.000 A 
ATOM     11  C   UNL     1      48.157   4.162  17.551  0.00  0.00    +0.000 A 
ATOM     12  C   UNL     1      47.523   4.897  16.542  0.00  0.00    +0.000 A 
BRANCH  11  13
ATOM     13  C   UNL     1      48.432   4.804  18.886  0.00  0.00    +0.000 C 
BRANCH  13  14
ATOM     14  O   UNL     1      48.368   3.836  19.929  0.00  0.00    +0.000 OA
ATOM     15  H   UNL     1      48.527   2.971  19.511  0.00  0.00    +0.000 HD
ENDBRANCH  13  14
ENDBRANCH  11  13
ENDBRANCH   5   7
BRANCH   1  17
ATOM     16  C   UNL     1      48.170   8.825  12.564  0.00  0.00    +0.000 C 
ATOM     17  O   UNL     1      47.696   7.732  11.792  0.00  0.00    +0.000 OA
ENDBRANCH   1  17
BRANCH   3  18
ATOM     18  C   UNL     1      43.333   5.340  12.302  0.00  0.00    +0.000 C 
BRANCH  18  19
ATOM     19  C   UNL     1      43.275   4.482  11.032  0.00  0.00    +0.000 C 
BRANCH  19  20
ATOM     20  N   UNL     1      44.022   5.053   9.907  0.00  0.00    +0.000 N 
ATOM     21  C   UNL     1      44.772   4.046   9.252  0.00  0.00    +0.000 A 
ATOM     22  C   UNL     1      45.556   4.392   8.158  0.00  0.00    +0.000 A 
ATOM     23  C   UNL     1      46.301   3.402   7.513  0.00  0.00    +0.000 A 
ATOM     24  C   UNL     1      46.261   2.081   7.973  0.00  0.00    +0.000 A 
ATOM     25  C   UNL     1      45.444   1.826   9.059  0.00  0.00    +0.000 A 
ATOM     26  N   UNL     1      44.707   2.770   9.689  0.00  0.00    +0.000 NA
ATOM     27  H   UNL     1      44.671   5.774  10.210  0.00  0.00    +0.000 HD
BRANCH  24  28
ATOM     28  C   UNL     1      47.060   1.041   7.295  0.00  0.00    +0.000 C 
ATOM     29  N   UNL     1      46.809  -0.275   7.574  0.00  0.00    +0.000 N 
ATOM     30  O   UNL     1      47.943   1.340   6.494  0.00  0.00    +0.000 OA
ATOM     31  H   UNL     1      46.146  -0.627   8.245  0.00  0.00    +0.000 HD
ATOM     32  H   UNL     1      47.396  -0.956   7.105  0.00  0.00    +0.000 HD
ENDBRANCH  24  28
ENDBRANCH  19  20
ENDBRANCH  18  19
ENDBRANCH   3  18
TORSDOF 8
ENDMDL
MODEL 6
REMARK VINA RESULT:    -7.528      3.419      4.843
REMARK INTER + INTRA:         -11.704
REMARK INTER:                 -10.907
REMARK INTRA:                  -0.796
REMARK UNBOUND:                -0.876
REMARK  Name = 
REMARK  9 active torsions:
REMARK  status: ('A' for Active; 'I' for Inactive)
REMARK    1  A    between atoms: C_1  and  O_2
REMARK    2  A    between atoms: O_2  and  C_3
REMARK    3  A    between atoms: C_5  and  C_6
REMARK    4  A    between atoms: C_6  and  C_7
REMARK    5  A    between atoms: C_7  and  N_8
REMARK    6  A    between atoms: C_12  and  C_13
REMARK    7  A    between atoms: C_19  and  C_20
REMARK    8  A    between atoms: C_24  and  C_25
REMARK    9  A    between atoms: C_25  and  O_26
REMARK                            x       y       z     vdW  Elec       q    Type
REMARK                         _______ _______ _______ _____ _____    ______ ____
ROOT
ATOM      1  C   UNL     1      45.930   9.381  11.914  0.00  0.00    +0.000 A 
ATOM      2  C   UNL     1      45.794   7.991  12.001  0.00  0.00    +0.000 A 
ATOM      3  C   UNL     1      44.613   7.366  11.579  0.00  0.00    +0.000 A 
ATOM      4  C   UNL     1      43.597   8.171  11.042  0.00  0.00    +0.000 A 
ATOM      5  C   UNL     1      43.683   9.568  10.981  0.00  0.00    +0.000 A 
ATOM      6  C   UNL     1      44.882  10.152  11.403  0.00  0.00    +0.000 A 
ENDROOT
BRANCH   5   7
ATOM      7  C   UNL     1      42.524  10.363  10.520  0.00  0.00    +0.000 A 
ATOM      8  C   UNL     1      42.666  11.387   9.575  0.00  0.00    +0.000 A 
ATOM      9  C   UNL     1      41.560  12.121   9.139  0.00  0.00    +0.000 A 
ATOM     10  C   UNL     1      40.285  11.822   9.615  0.00  0.00    +0.000 A 
ATOM     11  C   UNL     1      40.101  10.799  10.547  0.00  0.00    +0.000 A 
ATOM     12  C   UNL     1      41.227  10.108  11.014  0.00  0.00    +0.000 A 
BRANCH  11  13
ATOM     13  C   UNL     1      38.732  10.431  11.056  0.00  0.00    +0.000 C 
BRANCH  13  14
ATOM     14  O   UNL     1      38.711   9.079  11.502  0.00  0.00    +0.000 OA
ATOM     15  H   UNL     1      39.220   8.566  10.849  0.00  0.00    +0.000 HD
ENDBRANCH  13  14
ENDBRANCH  11  13
ENDBRANCH   5   7
BRANCH   1  17
ATOM     16  C   UNL     1      48.173   9.394  12.696  0.00  0.00    +0.000 C 
ATOM     17  O   UNL     1      47.010  10.115  12.320  0.00  0.00    +0.000 OA
ENDBRANCH   1  17
BRANCH   3  18
ATOM     18  C   UNL     1      44.431   5.866  11.765  0.00  0.00    +0.000 C 
BRANCH  18  19
ATOM     19  C   UNL     1      43.649   5.193  10.630  0.00  0.00    +0.000 C 
BRANCH  19  20
ATOM     20  N   UNL     1      43.841   3.741  10.569  0.00  0.00    +0.000 N 
ATOM     21  C   UNL     1      44.752   3.408   9.537  0.00  0.00    +0.000 A 
ATOM     22  C   UNL     1      45.061   2.071   9.316  0.00  0.00    +0.000 A 
ATOM     23  C   UNL     1      45.956   1.739   8.295  0.00  0.00    +0.000 A 
ATOM     24  C   UNL     1      46.523   2.743   7.504  0.00  0.00    +0.000 A 
ATOM     25  C   UNL     1      46.169   4.046   7.804  0.00  0.00    +0.000 A 
ATOM     26  N   UNL     1      45.312   4.387   8.795  0.00  0.00    +0.000 NA
ATOM     27  H   UNL     1      42.970   3.251  10.382  0.00  0.00    +0.000 HD
BRANCH  24  28
ATOM     28  C   UNL     1      47.459   2.385   6.420  0.00  0.00    +0.000 C 
ATOM     29  N   UNL     1      47.485   3.152   5.286  0.00  0.00    +0.000 N 
ATOM     30  O   UNL     1      48.204   1.412   6.518  0.00  0.00    +0.000 OA
ATOM     31  H   UNL     1      46.888   3.937   5.082  0.00  0.00    +0.000 HD
ATOM     32  H   UNL     1      48.125   2.858   4.556  0.00  0.00    +0.000 HD
ENDBRANCH  24  28
ENDBRANCH  19  20
ENDBRANCH  18  19
ENDBRANCH   3  18
TORSDOF 8
ENDMDL
MODEL 7
REMARK VINA RESULT:    -7.289      3.389      7.751
REMARK INTER + INTRA:         -11.360
REMARK INTER:                 -10.251
REMARK INTRA:                  -1.108
REMARK UNBOUND:                -0.876
REMARK  Name = 
REMARK  9 active torsions:
REMARK  status: ('A' for Active; 'I' for Inactive)
REMARK    1  A    between atoms: C_1  and  O_2
REMARK    2  A    between atoms: O_2  and  C_3
REMARK    3  A    between atoms: C_5  and  C_6
REMARK    4  A    between atoms: C_6  and  C_7
REMARK    5  A    between atoms: C_7  and  N_8
REMARK    6  A    between atoms: C_12  and  C_13
REMARK    7  A    between atoms: C_19  and  C_20
REMARK    8  A    between atoms: C_24  and  C_25
REMARK    9  A    between atoms: C_25  and  O_26
REMARK                            x       y       z     vdW  Elec       q    Type
REMARK                         _______ _______ _______ _____ _____    ______ ____
ROOT
ATOM      1  C   UNL     1      45.131   9.521  12.057  0.00  0.00    +0.000 A 
ATOM      2  C   UNL     1      46.453   9.732  12.465  0.00  0.00    +0.000 A 
ATOM      3  C   UNL     1      47.406   8.712  12.338  0.00  0.00    +0.000 A 
ATOM      4  C   UNL     1      46.999   7.498  11.763  0.00  0.00    +0.000 A 
ATOM      5  C   UNL     1      45.676   7.239  11.385  0.00  0.00    +0.000 A 
ATOM      6  C   UNL     1      44.758   8.286  11.518  0.00  0.00    +0.000 A 
ENDROOT
BRANCH   5   7
ATOM      7  C   UNL     1      45.291   5.895  10.903  0.00  0.00    +0.000 A 
ATOM      8  C   UNL     1      45.630   5.451   9.618  0.00  0.00    +0.000 A 
ATOM      9  C   UNL     1      45.272   4.173   9.182  0.00  0.00    +0.000 A 
ATOM     10  C   UNL     1      44.597   3.301  10.035  0.00  0.00    +0.000 A 
ATOM     11  C   UNL     1      44.255   3.702  11.327  0.00  0.00    +0.000 A 
ATOM     12  C   UNL     1      44.574   5.005  11.731  0.00  0.00    +0.000 A 
BRANCH  11  13
ATOM     13  C   UNL     1      43.554   2.772  12.282  0.00  0.00    +0.000 C 
BRANCH  13  14
ATOM     14  O   UNL     1      42.849   1.761  11.569  0.00  0.00    +0.000 OA
ATOM     15  H   UNL     1      42.788   2.067  10.646  0.00  0.00    +0.000 HD
ENDBRANCH  13  14
ENDBRANCH  11  13
ENDBRANCH   5   7
BRANCH   1  17
ATOM     16  C   UNL     1      43.394  10.716  10.963  0.00  0.00    +0.000 C 
ATOM     17  O   UNL     1      44.101  10.415  12.156  0.00  0.00    +0.000 OA
ENDBRANCH   1  17
BRANCH   3  18
ATOM     18  C   UNL     1      48.817   8.911  12.872  0.00  0.00    +0.000 C 
BRANCH  18  19
ATOM     19  C   UNL     1      49.540   7.601  13.209  0.00  0.00    +0.000 C 
BRANCH  19  20
ATOM     20  N   UNL     1      50.093   7.571  14.566  0.00  0.00    +0.000 N 
ATOM     21  C   UNL     1      49.434   6.589  15.346  0.00  0.00    +0.000 A 
ATOM     22  C   UNL     1      49.815   6.413  16.671  0.00  0.00    +0.000 A 
ATOM     23  C   UNL     1      49.163   5.448  17.444  0.00  0.00    +0.000 A 
ATOM     24  C   UNL     1      48.136   4.679  16.888  0.00  0.00    +0.000 A 
ATOM     25  C   UNL     1      47.833   4.914  15.559  0.00  0.00    +0.000 A 
ATOM     26  N   UNL     1      48.461   5.836  14.792  0.00  0.00    +0.000 NA
ATOM     27  H   UNL     1      49.985   8.465  15.039  0.00  0.00    +0.000 HD
BRANCH  24  28
ATOM     28  C   UNL     1      47.443   3.670  17.712  0.00  0.00    +0.000 C 
ATOM     29  N   UNL     1      47.934   3.378  18.956  0.00  0.00    +0.000 N 
ATOM     30  O   UNL     1      46.443   3.088  17.297  0.00  0.00    +0.000 OA
ATOM     31  H   UNL     1      48.770   3.757  19.372  0.00  0.00    +0.000 HD
ATOM     32  H   UNL     1      47.443   2.662  19.480  0.00  0.00    +0.000 HD
ENDBRANCH  24  28
ENDBRANCH  19  20
ENDBRANCH  18  19
ENDBRANCH   3  18
TORSDOF 8
ENDMDL
MODEL 8
REMARK VINA RESULT:    -7.289      2.140      3.877
REMARK INTER + INTRA:         -11.360
REMARK INTER:                 -10.447
REMARK INTRA:                  -0.912
REMARK UNBOUND:                -0.876
REMARK  Name = 
REMARK  9 active torsions:
REMARK  status: ('A' for Active; 'I' for Inactive)
REMARK    1  A    between atoms: C_1  and  O_2
REMARK    2  A    between atoms: O_2  and  C_3
REMARK    3  A    between atoms: C_5  and  C_6
REMARK    4  A    between atoms: C_6  and  C_7
REMARK    5  A    between atoms: C_7  and  N_8
REMARK    6  A    between atoms: C_12  and  C_13
REMARK    7  A    between atoms: C_19  and  C_20
REMARK    8  A    between atoms: C_24  and  C_25
REMARK    9  A    between atoms: C_25  and  O_26
REMARK                            x       y       z     vdW  Elec       q    Type
REMARK                         _______ _______ _______ _____ _____    ______ ____
ROOT
ATOM      1  C   UNL     1      44.570   8.667  11.587  0.00  0.00    +0.000 A 
ATOM      2  C   UNL     1      43.943   7.419  11.679  0.00  0.00    +0.000 A 
ATOM      3  C   UNL     1      44.641   6.309  12.173  0.00  0.00    +0.000 A 
ATOM      4  C   UNL     1      45.965   6.498  12.597  0.00  0.00    +0.000 A 
ATOM      5  C   UNL     1      46.636   7.722  12.479  0.00  0.00    +0.000 A 
ATOM      6  C   UNL     1      45.901   8.808  11.991  0.00  0.00    +0.000 A 
ENDROOT
BRANCH   5   7
ATOM      7  C   UNL     1      48.070   7.820  12.829  0.00  0.00    +0.000 A 
ATOM      8  C   UNL     1      48.509   7.739  14.157  0.00  0.00    +0.000 A 
ATOM      9  C   UNL     1      49.867   7.818  14.471  0.00  0.00    +0.000 A 
ATOM     10  C   UNL     1      50.817   7.947  13.459  0.00  0.00    +0.000 A 
ATOM     11  C   UNL     1      50.420   8.017  12.122  0.00  0.00    +0.000 A 
ATOM     12  C   UNL     1      49.051   7.989  11.828  0.00  0.00    +0.000 A 
BRANCH  11  13
ATOM     13  C   UNL     1      51.424   8.125  11.005  0.00  0.00    +0.000 C 
BRANCH  13  14
ATOM     14  O   UNL     1      51.930   6.838  10.662  0.00  0.00    +0.000 OA
ATOM     15  H   UNL     1      51.540   6.211  11.297  0.00  0.00    +0.000 HD
ENDBRANCH  13  14
ENDBRANCH  11  13
ENDBRANCH   5   7
BRANCH   1  17
ATOM     16  C   UNL     1      42.709   9.719  10.552  0.00  0.00    +0.000 C 
ATOM     17  O   UNL     1      44.016   9.817  11.095  0.00  0.00    +0.000 OA
ENDBRANCH   1  17
BRANCH   3  18
ATOM     18  C   UNL     1      43.989   4.934  12.179  0.00  0.00    +0.000 C 
BRANCH  18  19
ATOM     19  C   UNL     1      43.562   4.446  10.789  0.00  0.00    +0.000 C 
BRANCH  19  20
ATOM     20  N   UNL     1      43.919   3.048  10.525  0.00  0.00    +0.000 N 
ATOM     21  C   UNL     1      44.817   2.967   9.433  0.00  0.00    +0.000 A 
ATOM     22  C   UNL     1      45.269   1.718   9.024  0.00  0.00    +0.000 A 
ATOM     23  C   UNL     1      46.151   1.634   7.943  0.00  0.00    +0.000 A 
ATOM     24  C   UNL     1      46.563   2.795   7.281  0.00  0.00    +0.000 A 
ATOM     25  C   UNL     1      46.073   3.995   7.765  0.00  0.00    +0.000 A 
ATOM     26  N   UNL     1      45.227   4.096   8.817  0.00  0.00    +0.000 NA
ATOM     27  H   UNL     1      43.103   2.486  10.297  0.00  0.00    +0.000 HD
BRANCH  24  28
ATOM     28  C   UNL     1      47.486   2.700   6.133  0.00  0.00    +0.000 C 
ATOM     29  N   UNL     1      48.810   2.440   6.365  0.00  0.00    +0.000 N 
ATOM     30  O   UNL     1      47.086   2.856   4.981  0.00  0.00    +0.000 OA
ATOM     31  H   UNL     1      49.250   2.344   7.267  0.00  0.00    +0.000 HD
ATOM     32  H   UNL     1      49.414   2.406   5.551  0.00  0.00    +0.000 HD
ENDBRANCH  24  28
ENDBRANCH  19  20
ENDBRANCH  18  19
ENDBRANCH   3  18
TORSDOF 8
ENDMDL
MODEL 9
REMARK VINA RESULT:    -6.509      3.952      8.230
REMARK INTER + INTRA:         -10.239
REMARK INTER:                  -9.530
REMARK INTRA:                  -0.709
REMARK UNBOUND:                -0.876
REMARK  Name = 
REMARK  9 active torsions:
REMARK  status: ('A' for Active; 'I' for Inactive)
REMARK    1  A    between atoms: C_1  and  O_2
REMARK    2  A    between atoms: O_2  and  C_3
REMARK    3  A    between atoms: C_5  and  C_6
REMARK    4  A    between atoms: C_6  and  C_7
REMARK    5  A    between atoms: C_7  and  N_8
REMARK    6  A    between atoms: C_12  and  C_13
REMARK    7  A    between atoms: C_19  and  C_20
REMARK    8  A    between atoms: C_24  and  C_25
REMARK    9  A    between atoms: C_25  and  O_26
REMARK                            x       y       z     vdW  Elec       q    Type
REMARK                         _______ _______ _______ _____ _____    ______ ____
ROOT
ATOM      1  C   UNL     1      46.112   8.797  12.195  0.00  0.00    +0.000 A 
ATOM      2  C   UNL     1      47.297   8.685  12.930  0.00  0.00    +0.000 A 
ATOM      3  C   UNL     1      47.783   7.425  13.304  0.00  0.00    +0.000 A 
ATOM      4  C   UNL     1      47.064   6.292  12.893  0.00  0.00    +0.000 A 
ATOM      5  C   UNL     1      45.852   6.371  12.195  0.00  0.00    +0.000 A 
ATOM      6  C   UNL     1      45.406   7.646  11.832  0.00  0.00    +0.000 A 
ENDROOT
BRANCH   5   7
ATOM      7  C   UNL     1      45.083   5.142  11.904  0.00  0.00    +0.000 A 
ATOM      8  C   UNL     1      44.215   4.576  12.848  0.00  0.00    +0.000 A 
ATOM      9  C   UNL     1      43.485   3.423  12.553  0.00  0.00    +0.000 A 
ATOM     10  C   UNL     1      43.583   2.831  11.295  0.00  0.00    +0.000 A 
ATOM     11  C   UNL     1      44.425   3.372  10.323  0.00  0.00    +0.000 A 
ATOM     12  C   UNL     1      45.190   4.498  10.652  0.00  0.00    +0.000 A 
BRANCH  11  13
ATOM     13  C   UNL     1      44.528   2.773   8.945  0.00  0.00    +0.000 C 
BRANCH  13  14
ATOM     14  O   UNL     1      45.804   2.169   8.756  0.00  0.00    +0.000 OA
ATOM     15  H   UNL     1      46.465   2.849   8.978  0.00  0.00    +0.000 HD
ENDBRANCH  13  14
ENDBRANCH  11  13
ENDBRANCH   5   7
BRANCH   1  17
ATOM     16  C   UNL     1      44.145   9.886  11.426  0.00  0.00    +0.000 C 
ATOM     17  O   UNL     1      45.513   9.961  11.797  0.00  0.00    +0.000 OA
ENDBRANCH   1  17
BRANCH   3  18
ATOM     18  C   UNL     1      49.018   7.311  14.186  0.00  0.00    +0.000 C 
BRANCH  18  19
ATOM     19  C   UNL     1      48.705   7.278  15.687  0.00  0.00    +0.000 C 
BRANCH  19  20
ATOM     20  N   UNL     1      48.135   6.005  16.138  0.00  0.00    +0.000 N 
ATOM     21  C   UNL     1      49.152   5.167  16.658  0.00  0.00    +0.000 A 
ATOM     22  C   UNL     1      48.809   3.906  17.133  0.00  0.00    +0.000 A 
ATOM     23  C   UNL     1      49.811   3.076  17.642  0.00  0.00    +0.000 A 
ATOM     24  C   UNL     1      51.140   3.510  17.664  0.00  0.00    +0.000 A 
ATOM     25  C   UNL     1      51.386   4.783  17.184  0.00  0.00    +0.000 A 
ATOM     26  N   UNL     1      50.428   5.606  16.697  0.00  0.00    +0.000 NA
ATOM     27  H   UNL     1      47.681   5.504  15.379  0.00  0.00    +0.000 HD
BRANCH  24  28
ATOM     28  C   UNL     1      52.195   2.623  18.193  0.00  0.00    +0.000 C 
ATOM     29  N   UNL     1      52.025   1.268  18.112  0.00  0.00    +0.000 N 
ATOM     30  O   UNL     1      53.213   3.083  18.706  0.00  0.00    +0.000 OA
ATOM     31  H   UNL     1      51.213   0.788  17.758  0.00  0.00    +0.000 HD
ATOM     32  H   UNL     1      52.763   0.695  18.509  0.00  0.00    +0.000 HD
ENDBRANCH  24  28
ENDBRANCH  19  20
ENDBRANCH  18  19
ENDBRANCH   3  18
TORSDOF 8
ENDMDL
