MODEL 1
REMARK VINA RESULT:    -8.269      0.000      0.000
REMARK INTER + INTRA:         -12.609
REMARK INTER:                 -11.653
REMARK INTRA:                  -0.956
REMARK UNBOUND:                -0.956
REMARK  Name = 
REMARK  10 active torsions:
REMARK  status: ('A' for Active; 'I' for Inactive)
REMARK    1  A    between atoms: C_1  and  C_2
REMARK    2  A    between atoms: C_5  and  C_6
REMARK    3  A    between atoms: N_8  and  C_9
REMARK    4  A    between atoms: C_9  and  C_10
REMARK    5  A    between atoms: C_13  and  C_14
REMARK    6  A    between atoms: C_14  and  C_15
REMARK    7  A    between atoms: C_15  and  C_16
REMARK    8  A    between atoms: C_16  and  N_17
REMARK    9  A    between atoms: C_25  and  C_26
REMARK   10  A    between atoms: C_30  and  C_31
REMARK                            x       y       z     vdW  Elec       q    Type
REMARK                         _______ _______ _______ _____ _____    ______ ____
ROOT
ATOM      1  C   UNL     1      49.203   6.206  16.287  0.00  0.00    +0.000 C 
ATOM      2  O   UNL     1      50.330   6.399  15.853  0.00  0.00    +0.000 OA
ATOM      3  N   UNL     1      48.093   6.248  15.465  0.00  0.00    +0.000 N 
ATOM      4  H   UNL     1      47.178   6.305  15.886  0.00  0.00    +0.000 HD
ENDROOT
BRANCH   1   9
ATOM      5  C   UNL     1      47.048  10.343  19.686  0.00  0.00    +0.000 C 
ATOM      6  C   UNL     1      47.463   8.902  19.764  0.00  0.00    +0.000 A 
ATOM      7  C   UNL     1      47.957   8.252  18.618  0.00  0.00    +0.000 A 
ATOM      8  C   UNL     1      48.377   6.901  18.692  0.00  0.00    +0.000 A 
ATOM      9  C   UNL     1      48.927   5.953  17.717  0.00  0.00    +0.000 A 
ATOM     10  C   UNL     1      49.136   4.707  18.311  0.00  0.00    +0.000 A 
ATOM     11  C   UNL     1      49.679   3.427  17.751  0.00  0.00    +0.000 C 
ATOM     12  S   UNL     1      48.704   4.689  19.971  0.00  0.00    +0.000 S 
ATOM     13  C   UNL     1      48.223   6.311  19.941  0.00  0.00    +0.000 A 
ATOM     14  N   UNL     1      47.744   6.882  21.065  0.00  0.00    +0.000 NA
ATOM     15  C   UNL     1      47.373   8.173  20.951  0.00  0.00    +0.000 A 
ATOM     16  C   UNL     1      46.831   8.803  22.209  0.00  0.00    +0.000 C 
ENDBRANCH   1   9
BRANCH   3  17
ATOM     17  C   UNL     1      48.211   6.560  14.056  0.00  0.00    +0.000 C 
BRANCH  17  18
ATOM     18  C   UNL     1      47.013   6.069  13.281  0.00  0.00    +0.000 A 
ATOM     19  C   UNL     1      46.345   4.902  13.677  0.00  0.00    +0.000 A 
ATOM     20  C   UNL     1      45.238   4.433  12.961  0.00  0.00    +0.000 A 
ATOM     21  C   UNL     1      44.773   5.121  11.835  0.00  0.00    +0.000 A 
ATOM     22  C   UNL     1      45.447   6.279  11.431  0.00  0.00    +0.000 A 
ATOM     23  C   UNL     1      46.557   6.747  12.142  0.00  0.00    +0.000 A 
BRANCH  21  24
ATOM     24  C   UNL     1      43.577   4.632  11.049  0.00  0.00    +0.000 C 
BRANCH  24  25
ATOM     25  C   UNL     1      43.972   4.060   9.683  0.00  0.00    +0.000 C 
BRANCH  25  26
ATOM     26  C   UNL     1      44.803   2.775   9.795  0.00  0.00    +0.000 C 
BRANCH  26  27
ATOM     27  N   UNL     1      45.855   2.653   8.774  0.00  0.00    +0.000 NA
ATOM     28  C   UNL     1      45.974   1.290   8.234  0.00  0.00    +0.000 C 
ATOM     29  C   UNL     1      47.156   1.188   7.269  0.00  0.00    +0.000 C 
ATOM     30  C   UNL     1      47.046   2.212   6.146  0.00  0.00    +0.000 C 
ATOM     31  C   UNL     1      46.812   3.606   6.714  0.00  0.00    +0.000 C 
ATOM     32  C   UNL     1      45.630   3.619   7.686  0.00  0.00    +0.000 C 
ENDBRANCH  26  27
ENDBRANCH  25  26
ENDBRANCH  24  25
ENDBRANCH  21  24
ENDBRANCH  17  18
ENDBRANCH   3  17
TORSDOF 7
ENDMDL
MODEL 2
REMARK VINA RESULT:    -7.714      1.881      2.920
REMARK INTER + INTRA:         -11.827
REMARK INTER:                 -10.805
REMARK INTRA:                  -1.022
REMARK UNBOUND:                -0.956
REMARK  Name = 
REMARK  10 active torsions:
REMARK  status: ('A' for Active; 'I' for Inactive)
REMARK    1  A    between atoms: C_1  and  C_2
REMARK    2  A    between atoms: C_5  and  C_6
REMARK    3  A    between atoms: N_8  and  C_9
REMARK    4  A    between atoms: C_9  and  C_10
REMARK    5  A    between atoms: C_13  and  C_14
REMARK    6  A    between atoms: C_14  and  C_15
REMARK    7  A    between atoms: C_15  and  C_16
REMARK    8  A    between atoms: C_16  and  N_17
REMARK    9  A    between atoms: C_25  and  C_26
REMARK   10  A    between atoms: C_30  and  C_31
REMARK                            x       y       z     vdW  Elec       q    Type
REMARK                         _______ _______ _______ _____ _____    ______ ____
ROOT
ATOM      1  C   UNL     1      48.752   7.419  14.686  0.00  0.00    +0.000 C 
ATOM      2  O   UNL     1      49.604   6.919  13.964  0.00  0.00    +0.000 OA
ATOM      3  N   UNL     1      47.564   7.904  14.173  0.00  0.00    +0.000 N 
ATOM      4  H   UNL     1      46.991   8.500  14.753  0.00  0.00    +0.000 HD
ENDROOT
BRANCH   1   9
ATOM      5  C   UNL     1      48.125   2.952  18.287  0.00  0.00    +0.000 C 
ATOM      6  C   UNL     1      48.470   4.414  18.328  0.00  0.00    +0.000 A 
ATOM      7  C   UNL     1      48.514   5.158  17.135  0.00  0.00    +0.000 A 
ATOM      8  C   UNL     1      48.810   6.543  17.170  0.00  0.00    +0.000 A 
ATOM      9  C   UNL     1      48.930   7.582  16.143  0.00  0.00    +0.000 A 
ATOM     10  C   UNL     1      49.289   8.802  16.722  0.00  0.00    +0.000 A 
ATOM     11  C   UNL     1      49.526  10.150  16.111  0.00  0.00    +0.000 C 
ATOM     12  S   UNL     1      49.455   8.697  18.425  0.00  0.00    +0.000 S 
ATOM     13  C   UNL     1      49.073   7.049  18.438  0.00  0.00    +0.000 A 
ATOM     14  N   UNL     1      49.058   6.380  19.609  0.00  0.00    +0.000 NA
ATOM     15  C   UNL     1      48.755   5.069  19.528  0.00  0.00    +0.000 A 
ATOM     16  C   UNL     1      48.748   4.325  20.839  0.00  0.00    +0.000 C 
ENDBRANCH   1   9
BRANCH   3  17
ATOM     17  C   UNL     1      47.289   7.877  12.752  0.00  0.00    +0.000 C 
BRANCH  17  18
ATOM     18  C   UNL     1      46.464   6.672  12.372  0.00  0.00    +0.000 A 
ATOM     19  C   UNL     1      46.228   5.655  13.307  0.00  0.00    +0.000 A 
ATOM     20  C   UNL     1      45.472   4.528  12.963  0.00  0.00    +0.000 A 
ATOM     21  C   UNL     1      44.932   4.397  11.679  0.00  0.00    +0.000 A 
ATOM     22  C   UNL     1      45.178   5.406  10.742  0.00  0.00    +0.000 A 
ATOM     23  C   UNL     1      45.938   6.530  11.081  0.00  0.00    +0.000 A 
BRANCH  21  24
ATOM     24  C   UNL     1      44.109   3.189  11.289  0.00  0.00    +0.000 C 
BRANCH  24  25
ATOM     25  C   UNL     1      44.037   3.000   9.770  0.00  0.00    +0.000 C 
BRANCH  25  26
ATOM     26  C   UNL     1      44.885   1.819   9.277  0.00  0.00    +0.000 C 
BRANCH  26  27
ATOM     27  N   UNL     1      45.989   2.208   8.387  0.00  0.00    +0.000 NA
ATOM     28  C   UNL     1      46.617   1.059   7.717  0.00  0.00    +0.000 C 
ATOM     29  C   UNL     1      47.832   1.502   6.901  0.00  0.00    +0.000 C 
ATOM     30  C   UNL     1      47.461   2.583   5.895  0.00  0.00    +0.000 C 
ATOM     31  C   UNL     1      46.712   3.719   6.581  0.00  0.00    +0.000 C 
ATOM     32  C   UNL     1      45.528   3.192   7.394  0.00  0.00    +0.000 C 
ENDBRANCH  26  27
ENDBRANCH  25  26
ENDBRANCH  24  25
ENDBRANCH  21  24
ENDBRANCH  17  18
ENDBRANCH   3  17
TORSDOF 7
ENDMDL
MODEL 3
REMARK VINA RESULT:    -7.460      2.214      2.883
REMARK INTER + INTRA:         -11.470
REMARK INTER:                 -10.198
REMARK INTRA:                  -1.272
REMARK UNBOUND:                -0.956
REMARK  Name = 
REMARK  10 active torsions:
REMARK  status: ('A' for Active; 'I' for Inactive)
REMARK    1  A    between atoms: C_1  and  C_2
REMARK    2  A    between atoms: C_5  and  C_6
REMARK    3  A    between atoms: N_8  and  C_9
REMARK    4  A    between atoms: C_9  and  C_10
REMARK    5  A    between atoms: C_13  and  C_14
REMARK    6  A    between atoms: C_14  and  C_15
REMARK    7  A    between atoms: C_15  and  C_16
REMARK    8  A    between atoms: C_16  and  N_17
REMARK    9  A    between atoms: C_25  and  C_26
REMARK   10  A    between atoms: C_30  and  C_31
REMARK                            x       y       z     vdW  Elec       q    Type
REMARK                         _______ _______ _______ _____ _____    ______ ____
ROOT
ATOM      1  C   UNL     1      50.293   7.697  14.741  0.00  0.00    +0.000 C 
ATOM      2  O   UNL     1      50.437   8.873  14.434  0.00  0.00    +0.000 OA
ATOM      3  N   UNL     1      49.503   6.846  13.993  0.00  0.00    +0.000 N 
ATOM      4  H   UNL     1      49.232   5.958  14.391  0.00  0.00    +0.000 HD
ENDROOT
BRANCH   1   9
ATOM      5  C   UNL     1      47.057   5.820  19.136  0.00  0.00    +0.000 C 
ATOM      6  C   UNL     1      48.502   5.905  18.736  0.00  0.00    +0.000 A 
ATOM      7  C   UNL     1      48.855   6.469  17.496  0.00  0.00    +0.000 A 
ATOM      8  C   UNL     1      50.218   6.579  17.126  0.00  0.00    +0.000 A 
ATOM      9  C   UNL     1      50.910   7.101  15.943  0.00  0.00    +0.000 A 
ATOM     10  C   UNL     1      52.291   6.929  16.069  0.00  0.00    +0.000 A 
ATOM     11  C   UNL     1      53.417   7.295  15.151  0.00  0.00    +0.000 C 
ATOM     12  S   UNL     1      52.727   6.187  17.553  0.00  0.00    +0.000 S 
ATOM     13  C   UNL     1      51.116   6.065  18.054  0.00  0.00    +0.000 A 
ATOM     14  N   UNL     1      50.833   5.504  19.247  0.00  0.00    +0.000 NA
ATOM     15  C   UNL     1      49.524   5.436  19.564  0.00  0.00    +0.000 A 
ATOM     16  C   UNL     1      49.213   4.801  20.896  0.00  0.00    +0.000 C 
ENDBRANCH   1   9
BRANCH   3  17
ATOM     17  C   UNL     1      48.778   7.316  12.831  0.00  0.00    +0.000 C 
BRANCH  17  18
ATOM     18  C   UNL     1      47.365   6.786  12.811  0.00  0.00    +0.000 A 
ATOM     19  C   UNL     1      47.040   5.614  13.508  0.00  0.00    +0.000 A 
ATOM     20  C   UNL     1      45.735   5.109  13.490  0.00  0.00    +0.000 A 
ATOM     21  C   UNL     1      44.726   5.766  12.778  0.00  0.00    +0.000 A 
ATOM     22  C   UNL     1      45.052   6.929  12.071  0.00  0.00    +0.000 A 
ATOM     23  C   UNL     1      46.357   7.433  12.083  0.00  0.00    +0.000 A 
BRANCH  21  24
ATOM     24  C   UNL     1      43.309   5.238  12.748  0.00  0.00    +0.000 C 
BRANCH  24  25
ATOM     25  C   UNL     1      42.952   4.604  11.400  0.00  0.00    +0.000 C 
BRANCH  25  26
ATOM     26  C   UNL     1      43.593   3.223  11.205  0.00  0.00    +0.000 C 
BRANCH  26  27
ATOM     27  N   UNL     1      44.658   3.197  10.192  0.00  0.00    +0.000 NA
ATOM     28  C   UNL     1      44.632   1.983   9.363  0.00  0.00    +0.000 C 
ATOM     29  C   UNL     1      45.827   1.948   8.409  0.00  0.00    +0.000 C 
ATOM     30  C   UNL     1      45.882   3.198   7.541  0.00  0.00    +0.000 C 
ATOM     31  C   UNL     1      45.797   4.452   8.404  0.00  0.00    +0.000 C 
ATOM     32  C   UNL     1      44.592   4.399   9.344  0.00  0.00    +0.000 C 
ENDBRANCH  26  27
ENDBRANCH  25  26
ENDBRANCH  24  25
ENDBRANCH  21  24
ENDBRANCH  17  18
ENDBRANCH   3  17
TORSDOF 7
ENDMDL
MODEL 4
REMARK VINA RESULT:    -7.388      1.732      2.692
REMARK INTER + INTRA:         -11.368
REMARK INTER:                 -10.425
REMARK INTRA:                  -0.944
REMARK UNBOUND:                -0.956
REMARK  Name = 
REMARK  10 active torsions:
REMARK  status: ('A' for Active; 'I' for Inactive)
REMARK    1  A    between atoms: C_1  and  C_2
REMARK    2  A    between atoms: C_5  and  C_6
REMARK    3  A    between atoms: N_8  and  C_9
REMARK    4  A    between atoms: C_9  and  C_10
REMARK    5  A    between atoms: C_13  and  C_14
REMARK    6  A    between atoms: C_14  and  C_15
REMARK    7  A    between atoms: C_15  and  C_16
REMARK    8  A    between atoms: C_16  and  N_17
REMARK    9  A    between atoms: C_25  and  C_26
REMARK   10  A    between atoms: C_30  and  C_31
REMARK                            x       y       z     vdW  Elec       q    Type
REMARK                         _______ _______ _______ _____ _____    ______ ____
ROOT
ATOM      1  C   UNL     1      48.784   6.735  15.920  0.00  0.00    +0.000 C 
ATOM      2  O   UNL     1      49.851   6.575  15.343  0.00  0.00    +0.000 OA
ATOM      3  N   UNL     1      47.737   5.847  15.766  0.00  0.00    +0.000 N 
ATOM      4  H   UNL     1      46.816   6.123  16.072  0.00  0.00    +0.000 HD
ENDROOT
BRANCH   1   9
ATOM      5  C   UNL     1      47.393   6.037  21.477  0.00  0.00    +0.000 C 
ATOM      6  C   UNL     1      47.618   7.143  20.487  0.00  0.00    +0.000 A 
ATOM      7  C   UNL     1      47.969   6.834  19.159  0.00  0.00    +0.000 A 
ATOM      8  C   UNL     1      48.154   7.872  18.212  0.00  0.00    +0.000 A 
ATOM      9  C   UNL     1      48.510   7.897  16.790  0.00  0.00    +0.000 A 
ATOM     10  C   UNL     1      48.603   9.214  16.333  0.00  0.00    +0.000 A 
ATOM     11  C   UNL     1      48.927   9.766  14.978  0.00  0.00    +0.000 C 
ATOM     12  S   UNL     1      48.261  10.361  17.561  0.00  0.00    +0.000 S 
ATOM     13  C   UNL     1      47.995   9.157  18.719  0.00  0.00    +0.000 A 
ATOM     14  N   UNL     1      47.674   9.508  19.981  0.00  0.00    +0.000 NA
ATOM     15  C   UNL     1      47.491   8.487  20.842  0.00  0.00    +0.000 A 
ATOM     16  C   UNL     1      47.140   8.886  22.253  0.00  0.00    +0.000 C 
ENDBRANCH   1   9
BRANCH   3  17
ATOM     17  C   UNL     1      47.842   4.704  14.882  0.00  0.00    +0.000 C 
BRANCH  17  18
ATOM     18  C   UNL     1      46.769   4.727  13.822  0.00  0.00    +0.000 A 
ATOM     19  C   UNL     1      46.264   5.947  13.354  0.00  0.00    +0.000 A 
ATOM     20  C   UNL     1      45.262   5.980  12.377  0.00  0.00    +0.000 A 
ATOM     21  C   UNL     1      44.747   4.793  11.844  0.00  0.00    +0.000 A 
ATOM     22  C   UNL     1      45.241   3.574  12.320  0.00  0.00    +0.000 A 
ATOM     23  C   UNL     1      46.238   3.538  13.301  0.00  0.00    +0.000 A 
BRANCH  21  24
ATOM     24  C   UNL     1      43.667   4.807  10.785  0.00  0.00    +0.000 C 
BRANCH  24  25
ATOM     25  C   UNL     1      43.927   3.784   9.674  0.00  0.00    +0.000 C 
BRANCH  25  26
ATOM     26  C   UNL     1      44.911   4.297   8.613  0.00  0.00    +0.000 C 
BRANCH  26  27
ATOM     27  N   UNL     1      45.547   3.232   7.824  0.00  0.00    +0.000 NA
ATOM     28  C   UNL     1      46.708   3.704   7.055  0.00  0.00    +0.000 C 
ATOM     29  C   UNL     1      47.259   2.592   6.161  0.00  0.00    +0.000 C 
ATOM     30  C   UNL     1      47.610   1.351   6.971  0.00  0.00    +0.000 C 
ATOM     31  C   UNL     1      46.435   0.934   7.849  0.00  0.00    +0.000 C 
ATOM     32  C   UNL     1      45.929   2.106   8.692  0.00  0.00    +0.000 C 
ENDBRANCH  26  27
ENDBRANCH  25  26
ENDBRANCH  24  25
ENDBRANCH  21  24
ENDBRANCH  17  18
ENDBRANCH   3  17
TORSDOF 7
ENDMDL
MODEL 5
REMARK VINA RESULT:    -7.367      4.002      5.797
REMARK INTER + INTRA:         -11.338
REMARK INTER:                 -10.071
REMARK INTRA:                  -1.267
REMARK UNBOUND:                -0.956
REMARK  Name = 
REMARK  10 active torsions:
REMARK  status: ('A' for Active; 'I' for Inactive)
REMARK    1  A    between atoms: C_1  and  C_2
REMARK    2  A    between atoms: C_5  and  C_6
REMARK    3  A    between atoms: N_8  and  C_9
REMARK    4  A    between atoms: C_9  and  C_10
REMARK    5  A    between atoms: C_13  and  C_14
REMARK    6  A    between atoms: C_14  and  C_15
REMARK    7  A    between atoms: C_15  and  C_16
REMARK    8  A    between atoms: C_16  and  N_17
REMARK    9  A    between atoms: C_25  and  C_26
REMARK   10  A    between atoms: C_30  and  C_31
REMARK                            x       y       z     vdW  Elec       q    Type
REMARK                         _______ _______ _______ _____ _____    ______ ____
ROOT
ATOM      1  C   UNL     1      48.821   7.457  13.078  0.00  0.00    +0.000 C 
ATOM      2  O   UNL     1      49.388   6.571  12.454  0.00  0.00    +0.000 OA
ATOM      3  N   UNL     1      48.050   7.180  14.191  0.00  0.00    +0.000 N 
ATOM      4  H   UNL     1      47.428   7.893  14.542  0.00  0.00    +0.000 HD
ENDROOT
BRANCH   1   9
ATOM      5  C   UNL     1      44.115  10.218  11.197  0.00  0.00    +0.000 C 
ATOM      6  C   UNL     1      45.566  10.492  11.474  0.00  0.00    +0.000 A 
ATOM      7  C   UNL     1      46.393   9.462  11.959  0.00  0.00    +0.000 A 
ATOM      8  C   UNL     1      47.769   9.706  12.195  0.00  0.00    +0.000 A 
ATOM      9  C   UNL     1      48.878   8.879  12.682  0.00  0.00    +0.000 A 
ATOM     10  C   UNL     1      50.049   9.636  12.770  0.00  0.00    +0.000 A 
ATOM     11  C   UNL     1      51.434   9.259  13.200  0.00  0.00    +0.000 C 
ATOM     12  S   UNL     1      49.820  11.261  12.273  0.00  0.00    +0.000 S 
ATOM     13  C   UNL     1      48.180  11.010  11.943  0.00  0.00    +0.000 A 
ATOM     14  N   UNL     1      47.429  12.035  11.492  0.00  0.00    +0.000 NA
ATOM     15  C   UNL     1      46.130  11.752  11.266  0.00  0.00    +0.000 A 
ATOM     16  C   UNL     1      45.294  12.904  10.769  0.00  0.00    +0.000 C 
ENDBRANCH   1   9
BRANCH   3  17
ATOM     17  C   UNL     1      47.846   5.821  14.647  0.00  0.00    +0.000 C 
BRANCH  17  18
ATOM     18  C   UNL     1      46.777   5.124  13.842  0.00  0.00    +0.000 A 
ATOM     19  C   UNL     1      46.858   3.745  13.605  0.00  0.00    +0.000 A 
ATOM     20  C   UNL     1      45.877   3.089  12.852  0.00  0.00    +0.000 A 
ATOM     21  C   UNL     1      44.792   3.797  12.324  0.00  0.00    +0.000 A 
ATOM     22  C   UNL     1      44.717   5.176  12.550  0.00  0.00    +0.000 A 
ATOM     23  C   UNL     1      45.699   5.835  13.296  0.00  0.00    +0.000 A 
BRANCH  21  24
ATOM     24  C   UNL     1      43.719   3.107  11.511  0.00  0.00    +0.000 C 
BRANCH  24  25
ATOM     25  C   UNL     1      44.291   2.387  10.284  0.00  0.00    +0.000 C 
BRANCH  25  26
ATOM     26  C   UNL     1      44.455   3.316   9.073  0.00  0.00    +0.000 C 
BRANCH  26  27
ATOM     27  N   UNL     1      45.305   2.765   8.008  0.00  0.00    +0.000 NA
ATOM     28  C   UNL     1      46.185   3.773   7.398  0.00  0.00    +0.000 C 
ATOM     29  C   UNL     1      46.958   3.179   6.219  0.00  0.00    +0.000 C 
ATOM     30  C   UNL     1      47.750   1.948   6.639  0.00  0.00    +0.000 C 
ATOM     31  C   UNL     1      46.851   0.957   7.370  0.00  0.00    +0.000 C 
ATOM     32  C   UNL     1      46.097   1.632   8.516  0.00  0.00    +0.000 C 
ENDBRANCH  26  27
ENDBRANCH  25  26
ENDBRANCH  24  25
ENDBRANCH  21  24
ENDBRANCH  17  18
ENDBRANCH   3  17
TORSDOF 7
ENDMDL
MODEL 6
REMARK VINA RESULT:    -7.348      4.676      7.471
REMARK INTER + INTRA:         -11.311
REMARK INTER:                 -10.234
REMARK INTRA:                  -1.077
REMARK UNBOUND:                -0.956
REMARK  Name = 
REMARK  10 active torsions:
REMARK  status: ('A' for Active; 'I' for Inactive)
REMARK    1  A    between atoms: C_1  and  C_2
REMARK    2  A    between atoms: C_5  and  C_6
REMARK    3  A    between atoms: N_8  and  C_9
REMARK    4  A    between atoms: C_9  and  C_10
REMARK    5  A    between atoms: C_13  and  C_14
REMARK    6  A    between atoms: C_14  and  C_15
REMARK    7  A    between atoms: C_15  and  C_16
REMARK    8  A    between atoms: C_16  and  N_17
REMARK    9  A    between atoms: C_25  and  C_26
REMARK   10  A    between atoms: C_30  and  C_31
REMARK                            x       y       z     vdW  Elec       q    Type
REMARK                         _______ _______ _______ _____ _____    ______ ____
ROOT
ATOM      1  C   UNL     1      50.457   8.287  12.840  0.00  0.00    +0.000 C 
ATOM      2  O   UNL     1      51.011   8.121  13.918  0.00  0.00    +0.000 OA
ATOM      3  N   UNL     1      49.228   7.720  12.564  0.00  0.00    +0.000 N 
ATOM      4  H   UNL     1      48.909   7.691  11.606  0.00  0.00    +0.000 HD
ENDROOT
BRANCH   1   9
ATOM      5  C   UNL     1      53.566   5.698   8.723  0.00  0.00    +0.000 C 
ATOM      6  C   UNL     1      53.083   7.070   9.097  0.00  0.00    +0.000 A 
ATOM      7  C   UNL     1      52.299   7.247  10.252  0.00  0.00    +0.000 A 
ATOM      8  C   UNL     1      51.865   8.542  10.627  0.00  0.00    +0.000 A 
ATOM      9  C   UNL     1      51.062   9.063  11.738  0.00  0.00    +0.000 A 
ATOM     10  C   UNL     1      50.890  10.443  11.612  0.00  0.00    +0.000 A 
ATOM     11  C   UNL     1      50.166  11.429  12.478  0.00  0.00    +0.000 C 
ATOM     12  S   UNL     1      51.677  11.079  10.227  0.00  0.00    +0.000 S 
ATOM     13  C   UNL     1      52.248   9.557   9.757  0.00  0.00    +0.000 A 
ATOM     14  N   UNL     1      52.984   9.442   8.634  0.00  0.00    +0.000 NA
ATOM     15  C   UNL     1      53.389   8.194   8.327  0.00  0.00    +0.000 A 
ATOM     16  C   UNL     1      54.205   8.070   7.065  0.00  0.00    +0.000 C 
ENDBRANCH   1   9
BRANCH   3  17
ATOM     17  C   UNL     1      48.555   6.872  13.526  0.00  0.00    +0.000 C 
BRANCH  17  18
ATOM     18  C   UNL     1      47.314   6.248  12.938  0.00  0.00    +0.000 A 
ATOM     19  C   UNL     1      46.840   6.661  11.685  0.00  0.00    +0.000 A 
ATOM     20  C   UNL     1      45.686   6.095  11.134  0.00  0.00    +0.000 A 
ATOM     21  C   UNL     1      44.982   5.100  11.821  0.00  0.00    +0.000 A 
ATOM     22  C   UNL     1      45.447   4.695  13.077  0.00  0.00    +0.000 A 
ATOM     23  C   UNL     1      46.597   5.264  13.633  0.00  0.00    +0.000 A 
BRANCH  21  24
ATOM     24  C   UNL     1      43.733   4.472  11.240  0.00  0.00    +0.000 C 
BRANCH  24  25
ATOM     25  C   UNL     1      43.945   3.974   9.807  0.00  0.00    +0.000 C 
BRANCH  25  26
ATOM     26  C   UNL     1      44.655   2.614   9.749  0.00  0.00    +0.000 C 
BRANCH  26  27
ATOM     27  N   UNL     1      45.771   2.564   8.793  0.00  0.00    +0.000 NA
ATOM     28  C   UNL     1      45.965   1.228   8.210  0.00  0.00    +0.000 C 
ATOM     29  C   UNL     1      47.208   1.198   7.318  0.00  0.00    +0.000 C 
ATOM     30  C   UNL     1      47.136   2.263   6.231  0.00  0.00    +0.000 C 
ATOM     31  C   UNL     1      46.824   3.626   6.836  0.00  0.00    +0.000 C 
ATOM     32  C   UNL     1      45.585   3.566   7.731  0.00  0.00    +0.000 C 
ENDBRANCH  26  27
ENDBRANCH  25  26
ENDBRANCH  24  25
ENDBRANCH  21  24
ENDBRANCH  17  18
ENDBRANCH   3  17
TORSDOF 7
ENDMDL
MODEL 7
REMARK VINA RESULT:    -7.124      1.932      2.367
REMARK INTER + INTRA:         -10.996
REMARK INTER:                  -9.925
REMARK INTRA:                  -1.071
REMARK UNBOUND:                -0.956
REMARK  Name = 
REMARK  10 active torsions:
REMARK  status: ('A' for Active; 'I' for Inactive)
REMARK    1  A    between atoms: C_1  and  C_2
REMARK    2  A    between atoms: C_5  and  C_6
REMARK    3  A    between atoms: N_8  and  C_9
REMARK    4  A    between atoms: C_9  and  C_10
REMARK    5  A    between atoms: C_13  and  C_14
REMARK    6  A    between atoms: C_14  and  C_15
REMARK    7  A    between atoms: C_15  and  C_16
REMARK    8  A    between atoms: C_16  and  N_17
REMARK    9  A    between atoms: C_25  and  C_26
REMARK   10  A    between atoms: C_30  and  C_31
REMARK                            x       y       z     vdW  Elec       q    Type
REMARK                         _______ _______ _______ _____ _____    ______ ____
ROOT
ATOM      1  C   UNL     1      48.528   7.030  14.670  0.00  0.00    +0.000 C 
ATOM      2  O   UNL     1      49.247   6.535  13.813  0.00  0.00    +0.000 OA
ATOM      3  N   UNL     1      47.375   7.716  14.340  0.00  0.00    +0.000 N 
ATOM      4  H   UNL     1      46.933   8.292  15.041  0.00  0.00    +0.000 HD
ENDROOT
BRANCH   1   9
ATOM      5  C   UNL     1      50.857  11.557  17.389  0.00  0.00    +0.000 C 
ATOM      6  C   UNL     1      50.384  10.164  17.689  0.00  0.00    +0.000 A 
ATOM      7  C   UNL     1      49.849   9.368  16.660  0.00  0.00    +0.000 A 
ATOM      8  C   UNL     1      49.428   8.043  16.931  0.00  0.00    +0.000 A 
ATOM      9  C   UNL     1      48.844   6.975  16.113  0.00  0.00    +0.000 A 
ATOM     10  C   UNL     1      48.570   5.852  16.897  0.00  0.00    +0.000 A 
ATOM     11  C   UNL     1      47.986   4.519  16.539  0.00  0.00    +0.000 C 
ATOM     12  S   UNL     1      49.013   6.074  18.539  0.00  0.00    +0.000 S 
ATOM     13  C   UNL     1      49.561   7.650  18.258  0.00  0.00    +0.000 A 
ATOM     14  N   UNL     1      50.054   8.374  19.283  0.00  0.00    +0.000 NA
ATOM     15  C   UNL     1      50.457   9.623  18.975  0.00  0.00    +0.000 A 
ATOM     16  C   UNL     1      50.999  10.430  20.126  0.00  0.00    +0.000 C 
ENDBRANCH   1   9
BRANCH   3  17
ATOM     17  C   UNL     1      46.984   7.912  12.959  0.00  0.00    +0.000 C 
BRANCH  17  18
ATOM     18  C   UNL     1      46.163   6.753  12.449  0.00  0.00    +0.000 A 
ATOM     19  C   UNL     1      46.096   6.487  11.075  0.00  0.00    +0.000 A 
ATOM     20  C   UNL     1      45.331   5.420  10.589  0.00  0.00    +0.000 A 
ATOM     21  C   UNL     1      44.619   4.595  11.467  0.00  0.00    +0.000 A 
ATOM     22  C   UNL     1      44.676   4.868  12.838  0.00  0.00    +0.000 A 
ATOM     23  C   UNL     1      45.435   5.937  13.326  0.00  0.00    +0.000 A 
BRANCH  21  24
ATOM     24  C   UNL     1      43.789   3.435  10.963  0.00  0.00    +0.000 C 
BRANCH  24  25
ATOM     25  C   UNL     1      44.050   3.132   9.484  0.00  0.00    +0.000 C 
BRANCH  25  26
ATOM     26  C   UNL     1      45.047   1.982   9.280  0.00  0.00    +0.000 C 
BRANCH  26  27
ATOM     27  N   UNL     1      46.122   2.287   8.325  0.00  0.00    +0.000 NA
ATOM     28  C   UNL     1      46.658   1.088   7.663  0.00  0.00    +0.000 C 
ATOM     29  C   UNL     1      47.851   1.443   6.774  0.00  0.00    +0.000 C 
ATOM     30  C   UNL     1      47.483   2.511   5.752  0.00  0.00    +0.000 C 
ATOM     31  C   UNL     1      46.827   3.704   6.437  0.00  0.00    +0.000 C 
ATOM     32  C   UNL     1      45.661   3.264   7.324  0.00  0.00    +0.000 C 
ENDBRANCH  26  27
ENDBRANCH  25  26
ENDBRANCH  24  25
ENDBRANCH  21  24
ENDBRANCH  17  18
ENDBRANCH   3  17
TORSDOF 7
ENDMDL
MODEL 8
REMARK VINA RESULT:    -7.005      1.958      2.810
REMARK INTER + INTRA:         -10.828
REMARK INTER:                  -9.869
REMARK INTRA:                  -0.960
REMARK UNBOUND:                -0.956
REMARK  Name = 
REMARK  10 active torsions:
REMARK  status: ('A' for Active; 'I' for Inactive)
REMARK    1  A    between atoms: C_1  and  C_2
REMARK    2  A    between atoms: C_5  and  C_6
REMARK    3  A    between atoms: N_8  and  C_9
REMARK    4  A    between atoms: C_9  and  C_10
REMARK    5  A    between atoms: C_13  and  C_14
REMARK    6  A    between atoms: C_14  and  C_15
REMARK    7  A    between atoms: C_15  and  C_16
REMARK    8  A    between atoms: C_16  and  N_17
REMARK    9  A    between atoms: C_25  and  C_26
REMARK   10  A    between atoms: C_30  and  C_31
REMARK                            x       y       z     vdW  Elec       q    Type
REMARK                         _______ _______ _______ _____ _____    ______ ____
ROOT
ATOM      1  C   UNL     1      49.040   8.348  15.425  0.00  0.00    +0.000 C 
ATOM      2  O   UNL     1      48.955   9.567  15.475  0.00  0.00    +0.000 OA
ATOM      3  N   UNL     1      48.274   7.604  14.547  0.00  0.00    +0.000 N 
ATOM      4  H   UNL     1      48.207   6.606  14.685  0.00  0.00    +0.000 HD
ENDROOT
BRANCH   1   9
ATOM      5  C   UNL     1      47.121   6.214  20.433  0.00  0.00    +0.000 C 
ATOM      6  C   UNL     1      48.375   6.236  19.606  0.00  0.00    +0.000 A 
ATOM      7  C   UNL     1      48.390   6.914  18.373  0.00  0.00    +0.000 A 
ATOM      8  C   UNL     1      49.577   6.964  17.602  0.00  0.00    +0.000 A 
ATOM      9  C   UNL     1      49.927   7.568  16.313  0.00  0.00    +0.000 A 
ATOM     10  C   UNL     1      51.252   7.279  15.980  0.00  0.00    +0.000 A 
ATOM     11  C   UNL     1      52.076   7.664  14.789  0.00  0.00    +0.000 C 
ATOM     12  S   UNL     1      52.039   6.336  17.178  0.00  0.00    +0.000 S 
ATOM     13  C   UNL     1      50.655   6.278  18.150  0.00  0.00    +0.000 A 
ATOM     14  N   UNL     1      50.692   5.603  19.317  0.00  0.00    +0.000 NA
ATOM     15  C   UNL     1      49.544   5.597  20.024  0.00  0.00    +0.000 A 
ATOM     16  C   UNL     1      49.588   4.834  21.323  0.00  0.00    +0.000 C 
ENDBRANCH   1   9
BRANCH   3  17
ATOM     17  C   UNL     1      47.307   8.233  13.671  0.00  0.00    +0.000 C 
BRANCH  17  18
ATOM     18  C   UNL     1      46.383   7.215  13.050  0.00  0.00    +0.000 A 
ATOM     19  C   UNL     1      45.390   7.620  12.148  0.00  0.00    +0.000 A 
ATOM     20  C   UNL     1      44.522   6.686  11.572  0.00  0.00    +0.000 A 
ATOM     21  C   UNL     1      44.631   5.325  11.881  0.00  0.00    +0.000 A 
ATOM     22  C   UNL     1      45.614   4.921  12.791  0.00  0.00    +0.000 A 
ATOM     23  C   UNL     1      46.479   5.854  13.373  0.00  0.00    +0.000 A 
BRANCH  21  24
ATOM     24  C   UNL     1      43.705   4.299  11.267  0.00  0.00    +0.000 C 
BRANCH  24  25
ATOM     25  C   UNL     1      44.441   3.340  10.326  0.00  0.00    +0.000 C 
BRANCH  25  26
ATOM     26  C   UNL     1      44.474   3.840   8.875  0.00  0.00    +0.000 C 
BRANCH  26  27
ATOM     27  N   UNL     1      45.312   3.025   7.982  0.00  0.00    +0.000 NA
ATOM     28  C   UNL     1      46.419   3.786   7.383  0.00  0.00    +0.000 C 
ATOM     29  C   UNL     1      47.185   2.930   6.373  0.00  0.00    +0.000 C 
ATOM     30  C   UNL     1      47.690   1.641   7.009  0.00  0.00    +0.000 C 
ATOM     31  C   UNL     1      46.556   0.915   7.722  0.00  0.00    +0.000 C 
ATOM     32  C   UNL     1      45.827   1.844   8.694  0.00  0.00    +0.000 C 
ENDBRANCH  26  27
ENDBRANCH  25  26
ENDBRANCH  24  25
ENDBRANCH  21  24
ENDBRANCH  17  18
ENDBRANCH   3  17
TORSDOF 7
ENDMDL
MODEL 9
REMARK VINA RESULT:    -6.952      2.149      3.012
REMARK INTER + INTRA:         -10.753
REMARK INTER:                  -9.810
REMARK INTRA:                  -0.944
REMARK UNBOUND:                -0.956
REMARK  Name = 
REMARK  10 active torsions:
REMARK  status: ('A' for Active; 'I' for Inactive)
REMARK    1  A    between atoms: C_1  and  C_2
REMARK    2  A    between atoms: C_5  and  C_6
REMARK    3  A    between atoms: N_8  and  C_9
REMARK    4  A    between atoms: C_9  and  C_10
REMARK    5  A    between atoms: C_13  and  C_14
REMARK    6  A    between atoms: C_14  and  C_15
REMARK    7  A    between atoms: C_15  and  C_16
REMARK    8  A    between atoms: C_16  and  N_17
REMARK    9  A    between atoms: C_25  and  C_26
REMARK   10  A    between atoms: C_30  and  C_31
REMARK                            x       y       z     vdW  Elec       q    Type
REMARK                         _______ _______ _______ _____ _____    ______ ____
ROOT
ATOM      1  C   UNL     1      49.031   9.057  15.527  0.00  0.00    +0.000 C 
ATOM      2  O   UNL     1      50.193   8.959  15.157  0.00  0.00    +0.000 OA
ATOM      3  N   UNL     1      47.992   8.503  14.804  0.00  0.00    +0.000 N 
ATOM      4  H   UNL     1      47.046   8.789  15.014  0.00  0.00    +0.000 HD
ENDROOT
BRANCH   1   9
ATOM      5  C   UNL     1      47.427   6.288  20.330  0.00  0.00    +0.000 C 
ATOM      6  C   UNL     1      47.622   7.691  19.831  0.00  0.00    +0.000 A 
ATOM      7  C   UNL     1      48.056   7.912  18.512  0.00  0.00    +0.000 A 
ATOM      8  C   UNL     1      48.215   9.234  18.026  0.00  0.00    +0.000 A 
ATOM      9  C   UNL     1      48.636   9.801  16.741  0.00  0.00    +0.000 A 
ATOM     10  C   UNL     1      48.660  11.196  16.806  0.00  0.00    +0.000 A 
ATOM     11  C   UNL     1      49.009  12.224  15.774  0.00  0.00    +0.000 C 
ATOM     12  S   UNL     1      48.181  11.790  18.342  0.00  0.00    +0.000 S 
ATOM     13  C   UNL     1      47.944  10.231  18.956  0.00  0.00    +0.000 A 
ATOM     14  N   UNL     1      47.539  10.075  20.233  0.00  0.00    +0.000 NA
ATOM     15  C   UNL     1      47.386   8.801  20.645  0.00  0.00    +0.000 A 
ATOM     16  C   UNL     1      46.942   8.633  22.076  0.00  0.00    +0.000 C 
ENDBRANCH   1   9
BRANCH   3  17
ATOM     17  C   UNL     1      48.228   7.812  13.554  0.00  0.00    +0.000 C 
BRANCH  17  18
ATOM     18  C   UNL     1      47.006   7.046  13.108  0.00  0.00    +0.000 A 
ATOM     19  C   UNL     1      46.839   5.705  13.479  0.00  0.00    +0.000 A 
ATOM     20  C   UNL     1      45.714   4.983  13.064  0.00  0.00    +0.000 A 
ATOM     21  C   UNL     1      44.731   5.587  12.273  0.00  0.00    +0.000 A 
ATOM     22  C   UNL     1      44.904   6.921  11.891  0.00  0.00    +0.000 A 
ATOM     23  C   UNL     1      46.030   7.644  12.299  0.00  0.00    +0.000 A 
BRANCH  21  24
ATOM     24  C   UNL     1      43.506   4.825  11.817  0.00  0.00    +0.000 C 
BRANCH  24  25
ATOM     25  C   UNL     1      43.634   4.328  10.373  0.00  0.00    +0.000 C 
BRANCH  25  26
ATOM     26  C   UNL     1      44.274   2.935  10.278  0.00  0.00    +0.000 C 
BRANCH  26  27
ATOM     27  N   UNL     1      45.375   2.850   9.308  0.00  0.00    +0.000 NA
ATOM     28  C   UNL     1      45.453   1.540   8.643  0.00  0.00    +0.000 C 
ATOM     29  C   UNL     1      46.683   1.461   7.738  0.00  0.00    +0.000 C 
ATOM     30  C   UNL     1      46.696   2.591   6.717  0.00  0.00    +0.000 C 
ATOM     31  C   UNL     1      46.503   3.937   7.407  0.00  0.00    +0.000 C 
ATOM     32  C   UNL     1      45.269   3.927   8.310  0.00  0.00    +0.000 C 
ENDBRANCH  26  27
ENDBRANCH  25  26
ENDBRANCH  24  25
ENDBRANCH  21  24
ENDBRANCH  17  18
ENDBRANCH   3  17
TORSDOF 7
ENDMDL
