MODEL 1
REMARK VINA RESULT:    -8.010      0.000      0.000
REMARK INTER + INTRA:         -12.922
REMARK INTER:                 -11.756
REMARK INTRA:                  -1.165
REMARK UNBOUND:                -1.165
REMARK  Name = 
REMARK  9 active torsions:
REMARK  status: ('A' for Active; 'I' for Inactive)
REMARK    1  A    between atoms: C_1  and  O_2
REMARK    2  A    between atoms: O_2  and  C_3
REMARK    3  A    between atoms: C_7  and  C_8
REMARK    4  A    between atoms: C_8  and  N_9
REMARK    5  A    between atoms: N_9  and  C_10
REMARK    6  A    between atoms: C_10  and  C_11
REMARK    7  A    between atoms: C_14  and  C_15
REMARK    8  A    between atoms: C_15  and  N_16
REMARK    9  A    between atoms: C_17  and  C_19
REMARK                            x       y       z     vdW  Elec       q    Type
REMARK                         _______ _______ _______ _____ _____    ______ ____
ROOT
ATOM      1  C   UNL     1      44.504   5.060  12.047  0.00  0.00    +0.000 A 
ATOM      2  C   UNL     1      45.095   4.541  13.211  0.00  0.00    +0.000 A 
ATOM      3  C   UNL     1      46.272   5.091  13.722  0.00  0.00    +0.000 A 
ATOM      4  C   UNL     1      46.889   6.169  13.078  0.00  0.00    +0.000 A 
ATOM      5  C   UNL     1      46.320   6.668  11.899  0.00  0.00    +0.000 A 
ATOM      6  C   UNL     1      45.136   6.125  11.393  0.00  0.00    +0.000 A 
ENDROOT
BRANCH   1   7
ATOM      7  C   UNL     1      43.223   4.470  11.500  0.00  0.00    +0.000 C 
BRANCH   7   8
ATOM      8  N   UNL     1      43.410   3.997  10.132  0.00  0.00    +0.000 NA
ATOM      9  H   UNL     1      42.499   3.791   9.723  0.00  0.00    +0.000 HD
BRANCH   8  10
ATOM     10  C   UNL     1      44.202   2.766  10.086  0.00  0.00    +0.000 C 
BRANCH  10  15
ATOM     11  C   UNL     1      46.727   1.710   7.615  0.00  0.00    +0.000 A 
ATOM     12  C   UNL     1      47.048   2.861   6.918  0.00  0.00    +0.000 A 
ATOM     13  C   UNL     1      46.429   4.049   7.288  0.00  0.00    +0.000 A 
ATOM     14  C   UNL     1      45.515   4.039   8.337  0.00  0.00    +0.000 A 
ATOM     15  C   UNL     1      45.244   2.834   8.985  0.00  0.00    +0.000 A 
ATOM     16  N   UNL     1      45.843   1.669   8.636  0.00  0.00    +0.000 NA
BRANCH  11  18
ATOM     17  C   UNL     1      46.633  -0.621   7.578  0.00  0.00    +0.000 C 
ATOM     18  O   UNL     1      47.358   0.551   7.213  0.00  0.00    +0.000 OA
ENDBRANCH  11  18
ENDBRANCH  10  15
ENDBRANCH   8  10
ENDBRANCH   7   8
ENDBRANCH   1   7
BRANCH   4  19
ATOM     19  C   UNL     1      48.181   6.738  13.600  0.00  0.00    +0.000 C 
BRANCH  19  20
ATOM     20  N   UNL     1      48.173   6.771  15.039  0.00  0.00    +0.000 N 
ATOM     21  C   UNL     1      49.336   6.826  15.761  0.00  0.00    +0.000 C 
ATOM     22  O   UNL     1      50.437   6.882  15.219  0.00  0.00    +0.000 OA
ATOM     23  H   UNL     1      47.309   6.505  15.500  0.00  0.00    +0.000 HD
BRANCH  21  24
ATOM     24  C   UNL     1      49.195   6.890  17.222  0.00  0.00    +0.000 A 
ATOM     25  C   UNL     1      49.181   8.124  17.856  0.00  0.00    +0.000 A 
ATOM     26  S   UNL     1      48.934   8.024  19.540  0.00  0.00    +0.000 S 
ATOM     27  C   UNL     1      48.892   6.324  19.489  0.00  0.00    +0.000 A 
ATOM     28  N   UNL     1      48.720   5.595  20.624  0.00  0.00    +0.000 NA
ATOM     29  C   UNL     1      48.742   4.316  20.445  0.00  0.00    +0.000 A 
ATOM     30  N   UNL     1      48.916   3.701  19.233  0.00  0.00    +0.000 N 
ATOM     31  C   UNL     1      49.069   4.397  18.057  0.00  0.00    +0.000 A 
ATOM     32  O   UNL     1      49.191   3.814  16.984  0.00  0.00    +0.000 OA
ATOM     33  C   UNL     1      49.055   5.840  18.204  0.00  0.00    +0.000 A 
ATOM     34  H   UNL     1      48.923   2.695  19.158  0.00  0.00    +0.000 HD
ENDBRANCH  21  24
ENDBRANCH  19  20
ENDBRANCH   4  19
TORSDOF 8
ENDMDL
MODEL 2
REMARK VINA RESULT:    -7.769      1.548      2.050
REMARK INTER + INTRA:         -12.568
REMARK INTER:                 -11.662
REMARK INTRA:                  -0.906
REMARK UNBOUND:                -1.165
REMARK  Name = 
REMARK  9 active torsions:
REMARK  status: ('A' for Active; 'I' for Inactive)
REMARK    1  A    between atoms: C_1  and  O_2
REMARK    2  A    between atoms: O_2  and  C_3
REMARK    3  A    between atoms: C_7  and  C_8
REMARK    4  A    between atoms: C_8  and  N_9
REMARK    5  A    between atoms: N_9  and  C_10
REMARK    6  A    between atoms: C_10  and  C_11
REMARK    7  A    between atoms: C_14  and  C_15
REMARK    8  A    between atoms: C_15  and  N_16
REMARK    9  A    between atoms: C_17  and  C_19
REMARK                            x       y       z     vdW  Elec       q    Type
REMARK                         _______ _______ _______ _____ _____    ______ ____
ROOT
ATOM      1  C   UNL     1      44.394   5.394  12.692  0.00  0.00    +0.000 A 
ATOM      2  C   UNL     1      44.733   6.735  12.446  0.00  0.00    +0.000 A 
ATOM      3  C   UNL     1      45.999   7.224  12.772  0.00  0.00    +0.000 A 
ATOM      4  C   UNL     1      46.954   6.385  13.359  0.00  0.00    +0.000 A 
ATOM      5  C   UNL     1      46.608   5.057  13.636  0.00  0.00    +0.000 A 
ATOM      6  C   UNL     1      45.344   4.563  13.299  0.00  0.00    +0.000 A 
ENDROOT
BRANCH   1   7
ATOM      7  C   UNL     1      43.025   4.863  12.329  0.00  0.00    +0.000 C 
BRANCH   7   8
ATOM      8  N   UNL     1      43.092   4.018  11.140  0.00  0.00    +0.000 NA
ATOM      9  H   UNL     1      43.670   3.203  11.343  0.00  0.00    +0.000 HD
BRANCH   8  10
ATOM     10  C   UNL     1      43.702   4.721  10.009  0.00  0.00    +0.000 C 
BRANCH  10  15
ATOM     11  C   UNL     1      45.975   3.481   7.384  0.00  0.00    +0.000 A 
ATOM     12  C   UNL     1      46.183   2.148   7.692  0.00  0.00    +0.000 A 
ATOM     13  C   UNL     1      45.528   1.618   8.797  0.00  0.00    +0.000 A 
ATOM     14  C   UNL     1      44.695   2.439   9.550  0.00  0.00    +0.000 A 
ATOM     15  C   UNL     1      44.544   3.774   9.175  0.00  0.00    +0.000 A 
ATOM     16  N   UNL     1      45.174   4.303   8.098  0.00  0.00    +0.000 NA
BRANCH  11  18
ATOM     17  C   UNL     1      47.142   2.935   5.439  0.00  0.00    +0.000 C 
ATOM     18  O   UNL     1      46.649   3.971   6.284  0.00  0.00    +0.000 OA
ENDBRANCH  11  18
ENDBRANCH  10  15
ENDBRANCH   8  10
ENDBRANCH   7   8
ENDBRANCH   1   7
BRANCH   4  19
ATOM     19  C   UNL     1      48.305   6.918  13.752  0.00  0.00    +0.000 C 
BRANCH  19  20
ATOM     20  N   UNL     1      48.280   7.412  15.104  0.00  0.00    +0.000 N 
ATOM     21  C   UNL     1      48.901   6.742  16.124  0.00  0.00    +0.000 C 
ATOM     22  O   UNL     1      49.534   5.707  15.933  0.00  0.00    +0.000 OA
ATOM     23  H   UNL     1      47.591   8.126  15.319  0.00  0.00    +0.000 HD
BRANCH  21  24
ATOM     24  C   UNL     1      48.833   7.366  17.452  0.00  0.00    +0.000 A 
ATOM     25  C   UNL     1      49.410   8.612  17.655  0.00  0.00    +0.000 A 
ATOM     26  S   UNL     1      49.176   9.226  19.228  0.00  0.00    +0.000 S 
ATOM     27  C   UNL     1      48.342   7.823  19.710  0.00  0.00    +0.000 A 
ATOM     28  N   UNL     1      47.869   7.693  20.979  0.00  0.00    +0.000 NA
ATOM     29  C   UNL     1      47.286   6.566  21.218  0.00  0.00    +0.000 A 
ATOM     30  N   UNL     1      47.130   5.559  20.302  0.00  0.00    +0.000 N 
ATOM     31  C   UNL     1      47.569   5.655  19.003  0.00  0.00    +0.000 A 
ATOM     32  O   UNL     1      47.385   4.747  18.199  0.00  0.00    +0.000 OA
ATOM     33  C   UNL     1      48.236   6.903  18.683  0.00  0.00    +0.000 A 
ATOM     34  H   UNL     1      46.664   4.699  20.551  0.00  0.00    +0.000 HD
ENDBRANCH  21  24
ENDBRANCH  19  20
ENDBRANCH   4  19
TORSDOF 8
ENDMDL
MODEL 3
REMARK VINA RESULT:    -7.645      1.572      1.874
REMARK INTER + INTRA:         -12.386
REMARK INTER:                 -11.145
REMARK INTRA:                  -1.240
REMARK UNBOUND:                -1.165
REMARK  Name = 
REMARK  9 active torsions:
REMARK  status: ('A' for Active; 'I' for Inactive)
REMARK    1  A    between atoms: C_1  and  O_2
REMARK    2  A    between atoms: O_2  and  C_3
REMARK    3  A    between atoms: C_7  and  C_8
REMARK    4  A    between atoms: C_8  and  N_9
REMARK    5  A    between atoms: N_9  and  C_10
REMARK    6  A    between atoms: C_10  and  C_11
REMARK    7  A    between atoms: C_14  and  C_15
REMARK    8  A    between atoms: C_15  and  N_16
REMARK    9  A    between atoms: C_17  and  C_19
REMARK                            x       y       z     vdW  Elec       q    Type
REMARK                         _______ _______ _______ _____ _____    ______ ____
ROOT
ATOM      1  C   UNL     1      44.520   5.306  12.748  0.00  0.00    +0.000 A 
ATOM      2  C   UNL     1      44.693   6.565  12.152  0.00  0.00    +0.000 A 
ATOM      3  C   UNL     1      45.962   7.138  12.043  0.00  0.00    +0.000 A 
ATOM      4  C   UNL     1      47.087   6.467  12.536  0.00  0.00    +0.000 A 
ATOM      5  C   UNL     1      46.914   5.226  13.161  0.00  0.00    +0.000 A 
ATOM      6  C   UNL     1      45.646   4.647  13.260  0.00  0.00    +0.000 A 
ENDROOT
BRANCH   1   7
ATOM      7  C   UNL     1      43.147   4.682  12.856  0.00  0.00    +0.000 C 
BRANCH   7   8
ATOM      8  N   UNL     1      42.731   4.114  11.577  0.00  0.00    +0.000 NA
ATOM      9  H   UNL     1      41.732   3.913  11.611  0.00  0.00    +0.000 HD
BRANCH   8  10
ATOM     10  C   UNL     1      43.424   2.857  11.290  0.00  0.00    +0.000 C 
BRANCH  10  15
ATOM     11  C   UNL     1      45.719   1.986   8.538  0.00  0.00    +0.000 A 
ATOM     12  C   UNL     1      45.851   3.150   7.801  0.00  0.00    +0.000 A 
ATOM     13  C   UNL     1      45.179   4.285   8.238  0.00  0.00    +0.000 A 
ATOM     14  C   UNL     1      44.401   4.212   9.390  0.00  0.00    +0.000 A 
ATOM     15  C   UNL     1      44.317   2.998  10.071  0.00  0.00    +0.000 A 
ATOM     16  N   UNL     1      44.969   1.884   9.658  0.00  0.00    +0.000 NA
BRANCH  11  18
ATOM     17  C   UNL     1      47.457   1.223   7.182  0.00  0.00    +0.000 C 
ATOM     18  O   UNL     1      46.395   0.879   8.068  0.00  0.00    +0.000 OA
ENDBRANCH  11  18
ENDBRANCH  10  15
ENDBRANCH   8  10
ENDBRANCH   7   8
ENDBRANCH   1   7
BRANCH   4  19
ATOM     19  C   UNL     1      48.451   7.098  12.461  0.00  0.00    +0.000 C 
BRANCH  19  20
ATOM     20  N   UNL     1      49.178   6.878  13.684  0.00  0.00    +0.000 N 
ATOM     21  C   UNL     1      49.122   7.770  14.722  0.00  0.00    +0.000 C 
ATOM     22  O   UNL     1      48.428   8.782  14.674  0.00  0.00    +0.000 OA
ATOM     23  H   UNL     1      49.916   6.182  13.660  0.00  0.00    +0.000 HD
BRANCH  21  24
ATOM     24  C   UNL     1      49.880   7.415  15.929  0.00  0.00    +0.000 A 
ATOM     25  C   UNL     1      50.917   8.234  16.353  0.00  0.00    +0.000 A 
ATOM     26  S   UNL     1      51.642   7.722  17.809  0.00  0.00    +0.000 S 
ATOM     27  C   UNL     1      50.631   6.356  17.895  0.00  0.00    +0.000 A 
ATOM     28  N   UNL     1      50.744   5.466  18.918  0.00  0.00    +0.000 NA
ATOM     29  C   UNL     1      49.939   4.460  18.841  0.00  0.00    +0.000 A 
ATOM     30  N   UNL     1      49.028   4.264  17.836  0.00  0.00    +0.000 N 
ATOM     31  C   UNL     1      48.863   5.147  16.795  0.00  0.00    +0.000 A 
ATOM     32  O   UNL     1      48.016   4.957  15.927  0.00  0.00    +0.000 OA
ATOM     33  C   UNL     1      49.747   6.296  16.833  0.00  0.00    +0.000 A 
ATOM     34  H   UNL     1      48.426   3.455  17.832  0.00  0.00    +0.000 HD
ENDBRANCH  21  24
ENDBRANCH  19  20
ENDBRANCH   4  19
TORSDOF 8
ENDMDL
MODEL 4
REMARK VINA RESULT:    -7.306      3.070      8.799
REMARK INTER + INTRA:         -11.888
REMARK INTER:                 -10.444
REMARK INTRA:                  -1.444
REMARK UNBOUND:                -1.165
REMARK  Name = 
REMARK  9 active torsions:
REMARK  status: ('A' for Active; 'I' for Inactive)
REMARK    1  A    between atoms: C_1  and  O_2
REMARK    2  A    between atoms: O_2  and  C_3
REMARK    3  A    between atoms: C_7  and  C_8
REMARK    4  A    between atoms: C_8  and  N_9
REMARK    5  A    between atoms: N_9  and  C_10
REMARK    6  A    between atoms: C_10  and  C_11
REMARK    7  A    between atoms: C_14  and  C_15
REMARK    8  A    between atoms: C_15  and  N_16
REMARK    9  A    between atoms: C_17  and  C_19
REMARK                            x       y       z     vdW  Elec       q    Type
REMARK                         _______ _______ _______ _____ _____    ______ ____
ROOT
ATOM      1  C   UNL     1      49.284   8.147  15.715  0.00  0.00    +0.000 A 
ATOM      2  C   UNL     1      49.804   7.279  14.741  0.00  0.00    +0.000 A 
ATOM      3  C   UNL     1      49.237   7.210  13.467  0.00  0.00    +0.000 A 
ATOM      4  C   UNL     1      48.130   8.002  13.140  0.00  0.00    +0.000 A 
ATOM      5  C   UNL     1      47.588   8.845  14.120  0.00  0.00    +0.000 A 
ATOM      6  C   UNL     1      48.163   8.923  15.391  0.00  0.00    +0.000 A 
ENDROOT
BRANCH   1   7
ATOM      7  C   UNL     1      49.906   8.228  17.091  0.00  0.00    +0.000 C 
BRANCH   7   8
ATOM      8  N   UNL     1      49.446   7.132  17.937  0.00  0.00    +0.000 NA
ATOM      9  H   UNL     1      49.381   7.459  18.901  0.00  0.00    +0.000 HD
BRANCH   8  10
ATOM     10  C   UNL     1      50.377   6.002  17.917  0.00  0.00    +0.000 C 
BRANCH  10  15
ATOM     11  C   UNL     1      49.802   2.469  17.033  0.00  0.00    +0.000 A 
ATOM     12  C   UNL     1      48.480   2.413  16.627  0.00  0.00    +0.000 A 
ATOM     13  C   UNL     1      47.745   3.592  16.615  0.00  0.00    +0.000 A 
ATOM     14  C   UNL     1      48.357   4.777  17.011  0.00  0.00    +0.000 A 
ATOM     15  C   UNL     1      49.693   4.746  17.411  0.00  0.00    +0.000 A 
ATOM     16  N   UNL     1      50.422   3.604  17.425  0.00  0.00    +0.000 NA
BRANCH  11  18
ATOM     17  C   UNL     1      51.851   1.433  17.450  0.00  0.00    +0.000 C 
ATOM     18  O   UNL     1      50.496   1.276  17.038  0.00  0.00    +0.000 OA
ENDBRANCH  11  18
ENDBRANCH  10  15
ENDBRANCH   8  10
ENDBRANCH   7   8
ENDBRANCH   1   7
BRANCH   4  19
ATOM     19  C   UNL     1      47.487   7.900  11.783  0.00  0.00    +0.000 C 
BRANCH  19  20
ATOM     20  N   UNL     1      46.825   6.631  11.632  0.00  0.00    +0.000 N 
ATOM     21  C   UNL     1      45.460   6.530  11.634  0.00  0.00    +0.000 C 
ATOM     22  O   UNL     1      44.734   7.516  11.734  0.00  0.00    +0.000 OA
ATOM     23  H   UNL     1      47.390   5.799  11.771  0.00  0.00    +0.000 HD
BRANCH  21  24
ATOM     24  C   UNL     1      44.904   5.185  11.436  0.00  0.00    +0.000 A 
ATOM     25  C   UNL     1      44.220   4.566  12.473  0.00  0.00    +0.000 A 
ATOM     26  S   UNL     1      43.576   3.044  12.055  0.00  0.00    +0.000 S 
ATOM     27  C   UNL     1      44.235   3.134  10.489  0.00  0.00    +0.000 A 
ATOM     28  N   UNL     1      44.061   2.120   9.599  0.00  0.00    +0.000 NA
ATOM     29  C   UNL     1      44.642   2.305   8.460  0.00  0.00    +0.000 A 
ATOM     30  N   UNL     1      45.379   3.413   8.131  0.00  0.00    +0.000 N 
ATOM     31  C   UNL     1      45.561   4.471   8.989  0.00  0.00    +0.000 A 
ATOM     32  O   UNL     1      46.200   5.463   8.651  0.00  0.00    +0.000 OA
ATOM     33  C   UNL     1      44.930   4.312  10.285  0.00  0.00    +0.000 A 
ATOM     34  H   UNL     1      45.809   3.498   7.222  0.00  0.00    +0.000 HD
ENDBRANCH  21  24
ENDBRANCH  19  20
ENDBRANCH   4  19
TORSDOF 8
ENDMDL
MODEL 5
REMARK VINA RESULT:    -7.125      3.293      9.052
REMARK INTER + INTRA:         -11.623
REMARK INTER:                 -10.478
REMARK INTRA:                  -1.145
REMARK UNBOUND:                -1.165
REMARK  Name = 
REMARK  9 active torsions:
REMARK  status: ('A' for Active; 'I' for Inactive)
REMARK    1  A    between atoms: C_1  and  O_2
REMARK    2  A    between atoms: O_2  and  C_3
REMARK    3  A    between atoms: C_7  and  C_8
REMARK    4  A    between atoms: C_8  and  N_9
REMARK    5  A    between atoms: N_9  and  C_10
REMARK    6  A    between atoms: C_10  and  C_11
REMARK    7  A    between atoms: C_14  and  C_15
REMARK    8  A    between atoms: C_15  and  N_16
REMARK    9  A    between atoms: C_17  and  C_19
REMARK                            x       y       z     vdW  Elec       q    Type
REMARK                         _______ _______ _______ _____ _____    ______ ____
ROOT
ATOM      1  C   UNL     1      50.756   7.646  15.023  0.00  0.00    +0.000 A 
ATOM      2  C   UNL     1      49.516   6.997  15.136  0.00  0.00    +0.000 A 
ATOM      3  C   UNL     1      48.577   7.064  14.104  0.00  0.00    +0.000 A 
ATOM      4  C   UNL     1      48.855   7.787  12.938  0.00  0.00    +0.000 A 
ATOM      5  C   UNL     1      50.078   8.463  12.837  0.00  0.00    +0.000 A 
ATOM      6  C   UNL     1      51.022   8.387  13.864  0.00  0.00    +0.000 A 
ENDROOT
BRANCH   1   7
ATOM      7  C   UNL     1      51.776   7.564  16.137  0.00  0.00    +0.000 C 
BRANCH   7   8
ATOM      8  N   UNL     1      52.202   6.185  16.353  0.00  0.00    +0.000 NA
ATOM      9  H   UNL     1      51.798   5.594  15.628  0.00  0.00    +0.000 HD
BRANCH   8  10
ATOM     10  C   UNL     1      51.746   5.672  17.646  0.00  0.00    +0.000 C 
BRANCH  10  15
ATOM     11  C   UNL     1      50.356   2.334  16.925  0.00  0.00    +0.000 A 
ATOM     12  C   UNL     1      51.308   1.442  17.388  0.00  0.00    +0.000 A 
ATOM     13  C   UNL     1      52.451   1.955  17.990  0.00  0.00    +0.000 A 
ATOM     14  C   UNL     1      52.598   3.334  18.103  0.00  0.00    +0.000 A 
ATOM     15  C   UNL     1      51.592   4.163  17.606  0.00  0.00    +0.000 A 
ATOM     16  N   UNL     1      50.471   3.677  17.020  0.00  0.00    +0.000 NA
BRANCH  11  18
ATOM     17  C   UNL     1      48.170   2.721  16.204  0.00  0.00    +0.000 C 
ATOM     18  O   UNL     1      49.239   1.786  16.328  0.00  0.00    +0.000 OA
ENDBRANCH  11  18
ENDBRANCH  10  15
ENDBRANCH   8  10
ENDBRANCH   7   8
ENDBRANCH   1   7
BRANCH   4  19
ATOM     19  C   UNL     1      47.830   7.899  11.841  0.00  0.00    +0.000 C 
BRANCH  19  20
ATOM     20  N   UNL     1      47.092   6.669  11.712  0.00  0.00    +0.000 N 
ATOM     21  C   UNL     1      45.723   6.649  11.733  0.00  0.00    +0.000 C 
ATOM     22  O   UNL     1      45.058   7.677  11.831  0.00  0.00    +0.000 OA
ATOM     23  H   UNL     1      47.609   5.807  11.853  0.00  0.00    +0.000 HD
BRANCH  21  24
ATOM     24  C   UNL     1      45.087   5.337  11.557  0.00  0.00    +0.000 A 
ATOM     25  C   UNL     1      44.408   4.757  12.619  0.00  0.00    +0.000 A 
ATOM     26  S   UNL     1      43.665   3.273  12.226  0.00  0.00    +0.000 S 
ATOM     27  C   UNL     1      44.271   3.328  10.637  0.00  0.00    +0.000 A 
ATOM     28  N   UNL     1      44.009   2.326   9.755  0.00  0.00    +0.000 NA
ATOM     29  C   UNL     1      44.558   2.479   8.596  0.00  0.00    +0.000 A 
ATOM     30  N   UNL     1      45.343   3.544   8.239  0.00  0.00    +0.000 N 
ATOM     31  C   UNL     1      45.615   4.590   9.089  0.00  0.00    +0.000 A 
ATOM     32  O   UNL     1      46.295   5.545   8.726  0.00  0.00    +0.000 OA
ATOM     33  C   UNL     1      45.022   4.466  10.407  0.00  0.00    +0.000 A 
ATOM     34  H   UNL     1      45.744   3.606   7.315  0.00  0.00    +0.000 HD
ENDBRANCH  21  24
ENDBRANCH  19  20
ENDBRANCH   4  19
TORSDOF 8
ENDMDL
MODEL 6
REMARK VINA RESULT:    -7.062      3.555      8.216
REMARK INTER + INTRA:         -11.530
REMARK INTER:                  -9.792
REMARK INTRA:                  -1.738
REMARK UNBOUND:                -1.165
REMARK  Name = 
REMARK  9 active torsions:
REMARK  status: ('A' for Active; 'I' for Inactive)
REMARK    1  A    between atoms: C_1  and  O_2
REMARK    2  A    between atoms: O_2  and  C_3
REMARK    3  A    between atoms: C_7  and  C_8
REMARK    4  A    between atoms: C_8  and  N_9
REMARK    5  A    between atoms: N_9  and  C_10
REMARK    6  A    between atoms: C_10  and  C_11
REMARK    7  A    between atoms: C_14  and  C_15
REMARK    8  A    between atoms: C_15  and  N_16
REMARK    9  A    between atoms: C_17  and  C_19
REMARK                            x       y       z     vdW  Elec       q    Type
REMARK                         _______ _______ _______ _____ _____    ______ ____
ROOT
ATOM      1  C   UNL     1      49.405   7.467  17.992  0.00  0.00    +0.000 A 
ATOM      2  C   UNL     1      48.479   8.515  17.864  0.00  0.00    +0.000 A 
ATOM      3  C   UNL     1      48.059   8.950  16.605  0.00  0.00    +0.000 A 
ATOM      4  C   UNL     1      48.562   8.350  15.444  0.00  0.00    +0.000 A 
ATOM      5  C   UNL     1      49.511   7.327  15.567  0.00  0.00    +0.000 A 
ATOM      6  C   UNL     1      49.922   6.884  16.827  0.00  0.00    +0.000 A 
ENDROOT
BRANCH   1   7
ATOM      7  C   UNL     1      49.851   6.991  19.356  0.00  0.00    +0.000 C 
BRANCH   7   8
ATOM      8  N   UNL     1      48.765   6.307  20.050  0.00  0.00    +0.000 NA
ATOM      9  H   UNL     1      48.728   6.633  21.015  0.00  0.00    +0.000 HD
BRANCH   8  10
ATOM     10  C   UNL     1      48.968   4.857  20.082  0.00  0.00    +0.000 C 
BRANCH  10  15
ATOM     11  C   UNL     1      49.133   2.712  17.088  0.00  0.00    +0.000 A 
ATOM     12  C   UNL     1      47.959   2.967  16.400  0.00  0.00    +0.000 A 
ATOM     13  C   UNL     1      47.079   3.906  16.926  0.00  0.00    +0.000 A 
ATOM     14  C   UNL     1      47.406   4.550  18.115  0.00  0.00    +0.000 A 
ATOM     15  C   UNL     1      48.608   4.230  18.748  0.00  0.00    +0.000 A 
ATOM     16  N   UNL     1      49.475   3.319  18.245  0.00  0.00    +0.000 NA
BRANCH  11  18
ATOM     17  C   UNL     1      51.192   1.629  17.267  0.00  0.00    +0.000 C 
ATOM     18  O   UNL     1      49.975   1.768  16.537  0.00  0.00    +0.000 OA
ENDBRANCH  11  18
ENDBRANCH  10  15
ENDBRANCH   8  10
ENDBRANCH   7   8
ENDBRANCH   1   7
BRANCH   4  19
ATOM     19  C   UNL     1      48.146   8.843  14.084  0.00  0.00    +0.000 C 
BRANCH  19  20
ATOM     20  N   UNL     1      46.960   8.160  13.639  0.00  0.00    +0.000 N 
ATOM     21  C   UNL     1      46.986   7.294  12.578  0.00  0.00    +0.000 C 
ATOM     22  O   UNL     1      48.025   7.036  11.974  0.00  0.00    +0.000 OA
ATOM     23  H   UNL     1      46.071   8.521  13.970  0.00  0.00    +0.000 HD
BRANCH  21  24
ATOM     24  C   UNL     1      45.719   6.633  12.243  0.00  0.00    +0.000 A 
ATOM     25  C   UNL     1      44.672   7.380  11.722  0.00  0.00    +0.000 A 
ATOM     26  S   UNL     1      43.302   6.449  11.318  0.00  0.00    +0.000 S 
ATOM     27  C   UNL     1      44.039   5.021  11.877  0.00  0.00    +0.000 A 
ATOM     28  N   UNL     1      43.382   3.831  11.831  0.00  0.00    +0.000 NA
ATOM     29  C   UNL     1      44.046   2.836  12.319  0.00  0.00    +0.000 A 
ATOM     30  N   UNL     1      45.308   2.923  12.845  0.00  0.00    +0.000 N 
ATOM     31  C   UNL     1      46.019   4.100  12.891  0.00  0.00    +0.000 A 
ATOM     32  O   UNL     1      47.160   4.136  13.341  0.00  0.00    +0.000 OA
ATOM     33  C   UNL     1      45.316   5.250  12.358  0.00  0.00    +0.000 A 
ATOM     34  H   UNL     1      45.775   2.107  13.212  0.00  0.00    +0.000 HD
ENDBRANCH  21  24
ENDBRANCH  19  20
ENDBRANCH   4  19
TORSDOF 8
ENDMDL
MODEL 7
REMARK VINA RESULT:    -7.061      1.498      2.213
REMARK INTER + INTRA:         -11.528
REMARK INTER:                 -10.529
REMARK INTRA:                  -0.999
REMARK UNBOUND:                -1.165
REMARK  Name = 
REMARK  9 active torsions:
REMARK  status: ('A' for Active; 'I' for Inactive)
REMARK    1  A    between atoms: C_1  and  O_2
REMARK    2  A    between atoms: O_2  and  C_3
REMARK    3  A    between atoms: C_7  and  C_8
REMARK    4  A    between atoms: C_8  and  N_9
REMARK    5  A    between atoms: N_9  and  C_10
REMARK    6  A    between atoms: C_10  and  C_11
REMARK    7  A    between atoms: C_14  and  C_15
REMARK    8  A    between atoms: C_15  and  N_16
REMARK    9  A    between atoms: C_17  and  C_19
REMARK                            x       y       z     vdW  Elec       q    Type
REMARK                         _______ _______ _______ _____ _____    ______ ____
ROOT
ATOM      1  C   UNL     1      44.759   4.827  12.451  0.00  0.00    +0.000 A 
ATOM      2  C   UNL     1      45.698   4.040  13.138  0.00  0.00    +0.000 A 
ATOM      3  C   UNL     1      46.813   4.623  13.744  0.00  0.00    +0.000 A 
ATOM      4  C   UNL     1      47.018   6.006  13.671  0.00  0.00    +0.000 A 
ATOM      5  C   UNL     1      46.101   6.789  12.958  0.00  0.00    +0.000 A 
ATOM      6  C   UNL     1      44.979   6.207  12.361  0.00  0.00    +0.000 A 
ENDROOT
BRANCH   1   7
ATOM      7  C   UNL     1      43.547   4.195  11.804  0.00  0.00    +0.000 C 
BRANCH   7   8
ATOM      8  N   UNL     1      43.712   4.114  10.356  0.00  0.00    +0.000 NA
ATOM      9  H   UNL     1      42.819   4.318   9.907  0.00  0.00    +0.000 HD
BRANCH   8  10
ATOM     10  C   UNL     1      44.123   2.775   9.930  0.00  0.00    +0.000 C 
BRANCH  10  15
ATOM     11  C   UNL     1      46.758   1.731   7.572  0.00  0.00    +0.000 A 
ATOM     12  C   UNL     1      47.191   2.904   6.978  0.00  0.00    +0.000 A 
ATOM     13  C   UNL     1      46.613   4.101   7.386  0.00  0.00    +0.000 A 
ATOM     14  C   UNL     1      45.626   4.077   8.367  0.00  0.00    +0.000 A 
ATOM     15  C   UNL     1      45.244   2.851   8.910  0.00  0.00    +0.000 A 
ATOM     16  N   UNL     1      45.801   1.678   8.524  0.00  0.00    +0.000 NA
BRANCH  11  18
ATOM     17  C   UNL     1      46.666  -0.600   7.586  0.00  0.00    +0.000 C 
ATOM     18  O   UNL     1      47.351   0.565   7.134  0.00  0.00    +0.000 OA
ENDBRANCH  11  18
ENDBRANCH  10  15
ENDBRANCH   8  10
ENDBRANCH   7   8
ENDBRANCH   1   7
BRANCH   4  19
ATOM     19  C   UNL     1      48.240   6.635  14.285  0.00  0.00    +0.000 C 
BRANCH  19  20
ATOM     20  N   UNL     1      48.075   6.775  15.708  0.00  0.00    +0.000 N 
ATOM     21  C   UNL     1      49.010   6.299  16.588  0.00  0.00    +0.000 C 
ATOM     22  O   UNL     1      50.046   5.758  16.209  0.00  0.00    +0.000 OA
ATOM     23  H   UNL     1      47.146   7.010  16.041  0.00  0.00    +0.000 HD
BRANCH  21  24
ATOM     24  C   UNL     1      48.745   6.534  18.013  0.00  0.00    +0.000 A 
ATOM     25  C   UNL     1      48.014   5.602  18.737  0.00  0.00    +0.000 A 
ATOM     26  S   UNL     1      47.861   5.989  20.391  0.00  0.00    +0.000 S 
ATOM     27  C   UNL     1      48.720   7.443  20.186  0.00  0.00    +0.000 A 
ATOM     28  N   UNL     1      48.938   8.280  21.237  0.00  0.00    +0.000 NA
ATOM     29  C   UNL     1      49.573   9.363  20.934  0.00  0.00    +0.000 A 
ATOM     30  N   UNL     1      50.014   9.683  19.676  0.00  0.00    +0.000 N 
ATOM     31  C   UNL     1      49.838   8.858  18.590  0.00  0.00    +0.000 A 
ATOM     32  O   UNL     1      50.272   9.161  17.483  0.00  0.00    +0.000 OA
ATOM     33  C   UNL     1      49.125   7.627  18.877  0.00  0.00    +0.000 A 
ATOM     34  H   UNL     1      50.505  10.547  19.503  0.00  0.00    +0.000 HD
ENDBRANCH  21  24
ENDBRANCH  19  20
ENDBRANCH   4  19
TORSDOF 8
ENDMDL
MODEL 8
REMARK VINA RESULT:    -6.909      2.596      3.240
REMARK INTER + INTRA:         -11.306
REMARK INTER:                 -10.362
REMARK INTRA:                  -0.944
REMARK UNBOUND:                -1.165
REMARK  Name = 
REMARK  9 active torsions:
REMARK  status: ('A' for Active; 'I' for Inactive)
REMARK    1  A    between atoms: C_1  and  O_2
REMARK    2  A    between atoms: O_2  and  C_3
REMARK    3  A    between atoms: C_7  and  C_8
REMARK    4  A    between atoms: C_8  and  N_9
REMARK    5  A    between atoms: N_9  and  C_10
REMARK    6  A    between atoms: C_10  and  C_11
REMARK    7  A    between atoms: C_14  and  C_15
REMARK    8  A    between atoms: C_15  and  N_16
REMARK    9  A    between atoms: C_17  and  C_19
REMARK                            x       y       z     vdW  Elec       q    Type
REMARK                         _______ _______ _______ _____ _____    ______ ____
ROOT
ATOM      1  C   UNL     1      46.518   5.813  12.438  0.00  0.00    +0.000 A 
ATOM      2  C   UNL     1      47.049   6.846  11.648  0.00  0.00    +0.000 A 
ATOM      3  C   UNL     1      48.119   7.618  12.103  0.00  0.00    +0.000 A 
ATOM      4  C   UNL     1      48.679   7.381  13.365  0.00  0.00    +0.000 A 
ATOM      5  C   UNL     1      48.130   6.374  14.169  0.00  0.00    +0.000 A 
ATOM      6  C   UNL     1      47.066   5.593  13.709  0.00  0.00    +0.000 A 
ENDROOT
BRANCH   1   7
ATOM      7  C   UNL     1      45.366   4.971  11.939  0.00  0.00    +0.000 C 
BRANCH   7   8
ATOM      8  N   UNL     1      44.553   5.714  10.982  0.00  0.00    +0.000 NA
ATOM      9  H   UNL     1      43.976   6.387  11.486  0.00  0.00    +0.000 HD
BRANCH   8  10
ATOM     10  C   UNL     1      43.652   4.834  10.235  0.00  0.00    +0.000 C 
BRANCH  10  15
ATOM     11  C   UNL     1      45.859   3.547   7.577  0.00  0.00    +0.000 A 
ATOM     12  C   UNL     1      45.973   2.191   7.832  0.00  0.00    +0.000 A 
ATOM     13  C   UNL     1      45.273   1.664   8.911  0.00  0.00    +0.000 A 
ATOM     14  C   UNL     1      44.492   2.510   9.691  0.00  0.00    +0.000 A 
ATOM     15  C   UNL     1      44.435   3.866   9.369  0.00  0.00    +0.000 A 
ATOM     16  N   UNL     1      45.110   4.393   8.318  0.00  0.00    +0.000 NA
BRANCH  11  18
ATOM     17  C   UNL     1      47.008   3.000   5.621  0.00  0.00    +0.000 C 
ATOM     18  O   UNL     1      46.575   4.033   6.502  0.00  0.00    +0.000 OA
ENDBRANCH  11  18
ENDBRANCH  10  15
ENDBRANCH   8  10
ENDBRANCH   7   8
ENDBRANCH   1   7
BRANCH   4  19
ATOM     19  C   UNL     1      49.803   8.238  13.879  0.00  0.00    +0.000 C 
BRANCH  19  20
ATOM     20  N   UNL     1      50.796   7.429  14.537  0.00  0.00    +0.000 N 
ATOM     21  C   UNL     1      51.299   7.770  15.764  0.00  0.00    +0.000 C 
ATOM     22  O   UNL     1      50.909   8.762  16.376  0.00  0.00    +0.000 OA
ATOM     23  H   UNL     1      51.284   6.747  13.966  0.00  0.00    +0.000 HD
BRANCH  21  24
ATOM     24  C   UNL     1      52.280   6.845  16.347  0.00  0.00    +0.000 A 
ATOM     25  C   UNL     1      53.629   7.169  16.317  0.00  0.00    +0.000 A 
ATOM     26  S   UNL     1      54.624   6.027  17.101  0.00  0.00    +0.000 S 
ATOM     27  C   UNL     1      53.291   5.032  17.461  0.00  0.00    +0.000 A 
ATOM     28  N   UNL     1      53.457   3.857  18.126  0.00  0.00    +0.000 NA
ATOM     29  C   UNL     1      52.367   3.186  18.302  0.00  0.00    +0.000 A 
ATOM     30  N   UNL     1      51.127   3.587  17.877  0.00  0.00    +0.000 N 
ATOM     31  C   UNL     1      50.909   4.776  17.223  0.00  0.00    +0.000 A 
ATOM     32  O   UNL     1      49.781   5.119  16.884  0.00  0.00    +0.000 OA
ATOM     33  C   UNL     1      52.103   5.568  16.997  0.00  0.00    +0.000 A 
ATOM     34  H   UNL     1      50.312   3.016  18.046  0.00  0.00    +0.000 HD
ENDBRANCH  21  24
ENDBRANCH  19  20
ENDBRANCH   4  19
TORSDOF 8
ENDMDL
MODEL 9
REMARK VINA RESULT:    -6.727      2.038      3.094
REMARK INTER + INTRA:         -11.039
REMARK INTER:                 -10.118
REMARK INTRA:                  -0.921
REMARK UNBOUND:                -1.165
REMARK  Name = 
REMARK  9 active torsions:
REMARK  status: ('A' for Active; 'I' for Inactive)
REMARK    1  A    between atoms: C_1  and  O_2
REMARK    2  A    between atoms: O_2  and  C_3
REMARK    3  A    between atoms: C_7  and  C_8
REMARK    4  A    between atoms: C_8  and  N_9
REMARK    5  A    between atoms: N_9  and  C_10
REMARK    6  A    between atoms: C_10  and  C_11
REMARK    7  A    between atoms: C_14  and  C_15
REMARK    8  A    between atoms: C_15  and  N_16
REMARK    9  A    between atoms: C_17  and  C_19
REMARK                            x       y       z     vdW  Elec       q    Type
REMARK                         _______ _______ _______ _____ _____    ______ ____
ROOT
ATOM      1  C   UNL     1      46.073   7.371  12.487  0.00  0.00    +0.000 A 
ATOM      2  C   UNL     1      46.959   6.287  12.375  0.00  0.00    +0.000 A 
ATOM      3  C   UNL     1      48.166   6.274  13.076  0.00  0.00    +0.000 A 
ATOM      4  C   UNL     1      48.519   7.349  13.900  0.00  0.00    +0.000 A 
ATOM      5  C   UNL     1      47.653   8.446  13.988  0.00  0.00    +0.000 A 
ATOM      6  C   UNL     1      46.439   8.455  13.296  0.00  0.00    +0.000 A 
ENDROOT
BRANCH   1   7
ATOM      7  C   UNL     1      44.761   7.379  11.735  0.00  0.00    +0.000 C 
BRANCH   7   8
ATOM      8  N   UNL     1      44.837   6.539  10.544  0.00  0.00    +0.000 NA
ATOM      9  H   UNL     1      44.424   7.039   9.757  0.00  0.00    +0.000 HD
BRANCH   8  10
ATOM     10  C   UNL     1      44.093   5.289  10.712  0.00  0.00    +0.000 C 
BRANCH  10  15
ATOM     11  C   UNL     1      45.807   3.718   7.851  0.00  0.00    +0.000 A 
ATOM     12  C   UNL     1      45.623   2.357   8.028  0.00  0.00    +0.000 A 
ATOM     13  C   UNL     1      44.880   1.930   9.122  0.00  0.00    +0.000 A 
ATOM     14  C   UNL     1      44.353   2.877   9.995  0.00  0.00    +0.000 A 
ATOM     15  C   UNL     1      44.590   4.229   9.747  0.00  0.00    +0.000 A 
ATOM     16  N   UNL     1      45.310   4.659   8.683  0.00  0.00    +0.000 NA
BRANCH  11  18
ATOM     17  C   UNL     1      46.856   3.009   5.891  0.00  0.00    +0.000 C 
ATOM     18  O   UNL     1      46.556   4.100   6.758  0.00  0.00    +0.000 OA
ENDBRANCH  11  18
ENDBRANCH  10  15
ENDBRANCH   8  10
ENDBRANCH   7   8
ENDBRANCH   1   7
BRANCH   4  19
ATOM     19  C   UNL     1      49.839   7.360  14.624  0.00  0.00    +0.000 C 
BRANCH  19  20
ATOM     20  N   UNL     1      49.634   7.424  16.048  0.00  0.00    +0.000 N 
ATOM     21  C   UNL     1      49.231   6.329  16.764  0.00  0.00    +0.000 C 
ATOM     22  O   UNL     1      49.054   5.234  16.236  0.00  0.00    +0.000 OA
ATOM     23  H   UNL     1      49.558   8.349  16.459  0.00  0.00    +0.000 HD
BRANCH  21  24
ATOM     24  C   UNL     1      49.090   6.514  18.215  0.00  0.00    +0.000 A 
ATOM     25  C   UNL     1      49.575   5.542  19.079  0.00  0.00    +0.000 A 
ATOM     26  S   UNL     1      49.401   5.945  20.727  0.00  0.00    +0.000 S 
ATOM     27  C   UNL     1      48.621   7.409  20.343  0.00  0.00    +0.000 A 
ATOM     28  N   UNL     1      48.187   8.247  21.323  0.00  0.00    +0.000 NA
ATOM     29  C   UNL     1      47.584   9.304  20.891  0.00  0.00    +0.000 A 
ATOM     30  N   UNL     1      47.379   9.600  19.569  0.00  0.00    +0.000 N 
ATOM     31  C   UNL     1      47.821   8.796  18.545  0.00  0.00    +0.000 A 
ATOM     32  O   UNL     1      47.648   9.107  17.371  0.00  0.00    +0.000 OA
ATOM     33  C   UNL     1      48.504   7.591  18.977  0.00  0.00    +0.000 A 
ATOM     34  H   UNL     1      46.899  10.445  19.295  0.00  0.00    +0.000 HD
ENDBRANCH  21  24
ENDBRANCH  19  20
ENDBRANCH   4  19
TORSDOF 8
ENDMDL
