MODEL 1
REMARK VINA RESULT:    -8.442      0.000      0.000
REMARK INTER + INTRA:         -11.350
REMARK INTER:                 -10.416
REMARK INTRA:                  -0.934
REMARK UNBOUND:                -0.934
REMARK  Name = 
REMARK  4 active torsions:
REMARK  status: ('A' for Active; 'I' for Inactive)
REMARK    1  A    between atoms: C_2  and  C_4
REMARK    2  A    between atoms: C_7  and  C_8
REMARK    3  A    between atoms: C_8  and  C_9
REMARK    4  A    between atoms: C_9  and  C_10
REMARK                            x       y       z     vdW  Elec       q    Type
REMARK                         _______ _______ _______ _____ _____    ______ ____
ROOT
ATOM      1  C   UNL     1      43.734   4.106  11.706  0.00  0.00    +0.000 C 
ENDROOT
BRANCH   1   2
ATOM      2  C   UNL     1      45.048   4.344  12.414  0.00  0.00    +0.000 A 
ATOM      3  C   UNL     1      45.765   3.293  12.974  0.00  0.00    +0.000 A 
ATOM      4  C   UNL     1      46.959   3.584  13.606  0.00  0.00    +0.000 A 
ATOM      5  N   UNL     1      47.467   4.830  13.727  0.00  0.00    +0.000 NA
ATOM      6  C   UNL     1      46.786   5.869  13.197  0.00  0.00    +0.000 A 
ATOM      7  N   UNL     1      47.290   7.143  13.362  0.00  0.00    +0.000 N 
ATOM      8  C   UNL     1      47.065   8.219  12.394  0.00  0.00    +0.000 C 
ATOM      9  C   UNL     1      48.402   8.756  11.831  0.00  0.00    +0.000 C 
ATOM     10  N   UNL     1      49.382   9.132  12.870  0.00  0.00    +0.000 NA
ATOM     11  C   UNL     1      49.618   7.949  13.729  0.00  0.00    +0.000 C 
ATOM     12  C   UNL     1      48.331   7.384  14.369  0.00  0.00    +0.000 C 
ATOM     13  C   UNL     1      45.571   5.639  12.541  0.00  0.00    +0.000 A 
ATOM     14  H   UNL     1      48.962   9.859  13.450  0.00  0.00    +0.000 HD
ENDBRANCH   1   2
BRANCH   1  15
ATOM     15  C   UNL     1      43.731   4.646  10.271  0.00  0.00    +0.000 C 
BRANCH  15  19
ATOM     16  C   UNL     1      46.481   2.498   7.705  0.00  0.00    +0.000 A 
ATOM     17  C   UNL     1      46.443   3.897   7.680  0.00  0.00    +0.000 A 
ATOM     18  C   UNL     1      45.545   4.591   8.500  0.00  0.00    +0.000 A 
ATOM     19  C   UNL     1      44.677   3.899   9.357  0.00  0.00    +0.000 A 
ATOM     20  C   UNL     1      44.702   2.497   9.356  0.00  0.00    +0.000 A 
ATOM     21  C   UNL     1      45.595   1.801   8.535  0.00  0.00    +0.000 A 
BRANCH  16  23
ATOM     22  N   UNL     1      48.472   2.401   6.302  0.00  0.00    +0.000 N 
ATOM     23  C   UNL     1      47.423   1.720   6.858  0.00  0.00    +0.000 C 
ATOM     24  O   UNL     1      47.296   0.515   6.695  0.00  0.00    +0.000 OA
ATOM     25  H   UNL     1      49.163   1.841   5.820  0.00  0.00    +0.000 HD
ATOM     26  H   UNL     1      48.754   3.313   6.629  0.00  0.00    +0.000 HD
ENDBRANCH  16  23
ENDBRANCH  15  19
ENDBRANCH   1  15
TORSDOF 4
ENDMDL
MODEL 2
REMARK VINA RESULT:    -8.359      1.505      2.724
REMARK INTER + INTRA:         -11.247
REMARK INTER:                 -10.702
REMARK INTRA:                  -0.545
REMARK UNBOUND:                -0.934
REMARK  Name = 
REMARK  4 active torsions:
REMARK  status: ('A' for Active; 'I' for Inactive)
REMARK    1  A    between atoms: C_2  and  C_4
REMARK    2  A    between atoms: C_7  and  C_8
REMARK    3  A    between atoms: C_8  and  C_9
REMARK    4  A    between atoms: C_9  and  C_10
REMARK                            x       y       z     vdW  Elec       q    Type
REMARK                         _______ _______ _______ _____ _____    ______ ____
ROOT
ATOM      1  C   UNL     1      43.432   5.019  10.699  0.00  0.00    +0.000 C 
ENDROOT
BRANCH   1   2
ATOM      2  C   UNL     1      44.386   5.865  11.510  0.00  0.00    +0.000 A 
ATOM      3  C   UNL     1      44.325   7.253  11.477  0.00  0.00    +0.000 A 
ATOM      4  C   UNL     1      45.229   7.962  12.245  0.00  0.00    +0.000 A 
ATOM      5  N   UNL     1      46.180   7.390  13.016  0.00  0.00    +0.000 NA
ATOM      6  C   UNL     1      46.265   6.043  13.059  0.00  0.00    +0.000 A 
ATOM      7  N   UNL     1      47.266   5.467  13.814  0.00  0.00    +0.000 N 
ATOM      8  C   UNL     1      47.128   4.155  14.451  0.00  0.00    +0.000 C 
ATOM      9  C   UNL     1      47.292   4.255  15.985  0.00  0.00    +0.000 C 
ATOM     10  N   UNL     1      48.517   4.960  16.413  0.00  0.00    +0.000 NA
ATOM     11  C   UNL     1      48.509   6.309  15.802  0.00  0.00    +0.000 C 
ATOM     12  C   UNL     1      48.398   6.289  14.263  0.00  0.00    +0.000 C 
ATOM     13  C   UNL     1      45.375   5.268  12.307  0.00  0.00    +0.000 A 
ATOM     14  H   UNL     1      49.319   4.453  16.037  0.00  0.00    +0.000 HD
ENDBRANCH   1   2
BRANCH   1  15
ATOM     15  C   UNL     1      43.855   3.547  10.637  0.00  0.00    +0.000 C 
BRANCH  15  19
ATOM     16  C   UNL     1      46.603   2.692   7.400  0.00  0.00    +0.000 A 
ATOM     17  C   UNL     1      46.212   4.011   7.660  0.00  0.00    +0.000 A 
ATOM     18  C   UNL     1      45.313   4.286   8.698  0.00  0.00    +0.000 A 
ATOM     19  C   UNL     1      44.798   3.250   9.492  0.00  0.00    +0.000 A 
ATOM     20  C   UNL     1      45.174   1.930   9.207  0.00  0.00    +0.000 A 
ATOM     21  C   UNL     1      46.067   1.652   8.168  0.00  0.00    +0.000 A 
BRANCH  16  23
ATOM     22  N   UNL     1      47.421   3.024   5.128  0.00  0.00    +0.000 N 
ATOM     23  C   UNL     1      47.560   2.354   6.313  0.00  0.00    +0.000 C 
ATOM     24  O   UNL     1      48.463   1.546   6.479  0.00  0.00    +0.000 OA
ATOM     25  H   UNL     1      48.143   2.864   4.437  0.00  0.00    +0.000 HD
ATOM     26  H   UNL     1      46.877   3.870   5.049  0.00  0.00    +0.000 HD
ENDBRANCH  16  23
ENDBRANCH  15  19
ENDBRANCH   1  15
TORSDOF 4
ENDMDL
MODEL 3
REMARK VINA RESULT:    -7.828      2.579      3.227
REMARK INTER + INTRA:         -10.593
REMARK INTER:                  -9.862
REMARK INTRA:                  -0.731
REMARK UNBOUND:                -0.934
REMARK  Name = 
REMARK  4 active torsions:
REMARK  status: ('A' for Active; 'I' for Inactive)
REMARK    1  A    between atoms: C_2  and  C_4
REMARK    2  A    between atoms: C_7  and  C_8
REMARK    3  A    between atoms: C_8  and  C_9
REMARK    4  A    between atoms: C_9  and  C_10
REMARK                            x       y       z     vdW  Elec       q    Type
REMARK                         _______ _______ _______ _____ _____    ______ ____
ROOT
ATOM      1  C   UNL     1      44.400   4.492  11.846  0.00  0.00    +0.000 C 
ENDROOT
BRANCH   1   2
ATOM      2  C   UNL     1      45.146   5.806  11.878  0.00  0.00    +0.000 A 
ATOM      3  C   UNL     1      46.500   5.859  12.190  0.00  0.00    +0.000 A 
ATOM      4  C   UNL     1      47.117   7.094  12.200  0.00  0.00    +0.000 A 
ATOM      5  N   UNL     1      46.483   8.259  11.941  0.00  0.00    +0.000 NA
ATOM      6  C   UNL     1      45.166   8.236  11.642  0.00  0.00    +0.000 A 
ATOM      7  N   UNL     1      44.517   9.433  11.421  0.00  0.00    +0.000 N 
ATOM      8  C   UNL     1      43.362   9.559  10.528  0.00  0.00    +0.000 C 
ATOM      9  C   UNL     1      43.646  10.557   9.381  0.00  0.00    +0.000 C 
ATOM     10  N   UNL     1      44.147  11.869   9.839  0.00  0.00    +0.000 NA
ATOM     11  C   UNL     1      45.369  11.640  10.642  0.00  0.00    +0.000 C 
ATOM     12  C   UNL     1      45.153  10.689  11.839  0.00  0.00    +0.000 C 
ATOM     13  C   UNL     1      44.485   7.014  11.612  0.00  0.00    +0.000 A 
ATOM     14  H   UNL     1      43.442  12.277  10.453  0.00  0.00    +0.000 HD
ENDBRANCH   1   2
BRANCH   1  15
ATOM     15  C   UNL     1      43.754   4.214  10.484  0.00  0.00    +0.000 C 
BRANCH  15  19
ATOM     16  C   UNL     1      46.622   2.750   7.587  0.00  0.00    +0.000 A 
ATOM     17  C   UNL     1      46.403   4.125   7.725  0.00  0.00    +0.000 A 
ATOM     18  C   UNL     1      45.466   4.598   8.653  0.00  0.00    +0.000 A 
ATOM     19  C   UNL     1      44.740   3.706   9.455  0.00  0.00    +0.000 A 
ATOM     20  C   UNL     1      44.945   2.329   9.290  0.00  0.00    +0.000 A 
ATOM     21  C   UNL     1      45.877   1.854   8.361  0.00  0.00    +0.000 A 
BRANCH  16  23
ATOM     22  N   UNL     1      47.862   2.944   5.497  0.00  0.00    +0.000 N 
ATOM     23  C   UNL     1      47.611   2.204   6.620  0.00  0.00    +0.000 C 
ATOM     24  O   UNL     1      48.211   1.160   6.834  0.00  0.00    +0.000 OA
ATOM     25  H   UNL     1      48.614   2.616   4.904  0.00  0.00    +0.000 HD
ATOM     26  H   UNL     1      47.597   3.915   5.423  0.00  0.00    +0.000 HD
ENDBRANCH  16  23
ENDBRANCH  15  19
ENDBRANCH   1  15
TORSDOF 4
ENDMDL
MODEL 4
REMARK VINA RESULT:    -7.456      1.276      2.458
REMARK INTER + INTRA:         -10.133
REMARK INTER:                  -9.441
REMARK INTRA:                  -0.693
REMARK UNBOUND:                -0.934
REMARK  Name = 
REMARK  4 active torsions:
REMARK  status: ('A' for Active; 'I' for Inactive)
REMARK    1  A    between atoms: C_2  and  C_4
REMARK    2  A    between atoms: C_7  and  C_8
REMARK    3  A    between atoms: C_8  and  C_9
REMARK    4  A    between atoms: C_9  and  C_10
REMARK                            x       y       z     vdW  Elec       q    Type
REMARK                         _______ _______ _______ _____ _____    ______ ____
ROOT
ATOM      1  C   UNL     1      44.625   4.365  12.096  0.00  0.00    +0.000 C 
ENDROOT
BRANCH   1   2
ATOM      2  C   UNL     1      45.191   5.761  12.203  0.00  0.00    +0.000 A 
ATOM      3  C   UNL     1      44.544   6.848  11.626  0.00  0.00    +0.000 A 
ATOM      4  C   UNL     1      45.119   8.096  11.763  0.00  0.00    +0.000 A 
ATOM      5  N   UNL     1      46.282   8.327  12.412  0.00  0.00    +0.000 NA
ATOM      6  C   UNL     1      46.934   7.287  12.975  0.00  0.00    +0.000 A 
ATOM      7  N   UNL     1      48.143   7.524  13.598  0.00  0.00    +0.000 N 
ATOM      8  C   UNL     1      48.627   6.723  14.725  0.00  0.00    +0.000 C 
ATOM      9  C   UNL     1      48.856   7.598  15.979  0.00  0.00    +0.000 C 
ATOM     10  N   UNL     1      49.695   8.788  15.734  0.00  0.00    +0.000 NA
ATOM     11  C   UNL     1      49.065   9.582  14.655  0.00  0.00    +0.000 C 
ATOM     12  C   UNL     1      48.849   8.787  13.349  0.00  0.00    +0.000 C 
ATOM     13  C   UNL     1      46.401   5.997  12.873  0.00  0.00    +0.000 A 
ATOM     14  H   UNL     1      50.603   8.468  15.396  0.00  0.00    +0.000 HD
ENDBRANCH   1   2
BRANCH   1  15
ATOM     15  C   UNL     1      43.890   4.126  10.772  0.00  0.00    +0.000 C 
BRANCH  15  19
ATOM     16  C   UNL     1      46.453   2.731   7.571  0.00  0.00    +0.000 A 
ATOM     17  C   UNL     1      45.860   1.815   8.446  0.00  0.00    +0.000 A 
ATOM     18  C   UNL     1      45.041   2.266   9.489  0.00  0.00    +0.000 A 
ATOM     19  C   UNL     1      44.802   3.636   9.669  0.00  0.00    +0.000 A 
ATOM     20  C   UNL     1      45.423   4.550   8.805  0.00  0.00    +0.000 A 
ATOM     21  C   UNL     1      46.244   4.101   7.766  0.00  0.00    +0.000 A 
BRANCH  16  23
ATOM     22  N   UNL     1      47.194   2.969   5.261  0.00  0.00    +0.000 N 
ATOM     23  C   UNL     1      47.323   2.297   6.446  0.00  0.00    +0.000 C 
ATOM     24  O   UNL     1      48.152   1.408   6.580  0.00  0.00    +0.000 OA
ATOM     25  H   UNL     1      47.865   2.737   4.540  0.00  0.00    +0.000 HD
ATOM     26  H   UNL     1      46.728   3.862   5.197  0.00  0.00    +0.000 HD
ENDBRANCH  16  23
ENDBRANCH  15  19
ENDBRANCH   1  15
TORSDOF 4
ENDMDL
MODEL 5
REMARK VINA RESULT:    -6.496      3.317      5.548
REMARK INTER + INTRA:          -8.949
REMARK INTER:                  -8.209
REMARK INTRA:                  -0.740
REMARK UNBOUND:                -0.934
REMARK  Name = 
REMARK  4 active torsions:
REMARK  status: ('A' for Active; 'I' for Inactive)
REMARK    1  A    between atoms: C_2  and  C_4
REMARK    2  A    between atoms: C_7  and  C_8
REMARK    3  A    between atoms: C_8  and  C_9
REMARK    4  A    between atoms: C_9  and  C_10
REMARK                            x       y       z     vdW  Elec       q    Type
REMARK                         _______ _______ _______ _____ _____    ______ ____
ROOT
ATOM      1  C   UNL     1      47.947   7.635  12.970  0.00  0.00    +0.000 C 
ENDROOT
BRANCH   1   2
ATOM      2  C   UNL     1      48.301   7.545  14.436  0.00  0.00    +0.000 A 
ATOM      3  C   UNL     1      48.497   8.689  15.202  0.00  0.00    +0.000 A 
ATOM      4  C   UNL     1      48.819   8.532  16.536  0.00  0.00    +0.000 A 
ATOM      5  N   UNL     1      48.970   7.333  17.142  0.00  0.00    +0.000 NA
ATOM      6  C   UNL     1      48.792   6.207  16.419  0.00  0.00    +0.000 A 
ATOM      7  N   UNL     1      48.990   4.988  17.034  0.00  0.00    +0.000 N 
ATOM      8  C   UNL     1      48.276   3.771  16.638  0.00  0.00    +0.000 C 
ATOM      9  C   UNL     1      47.455   3.194  17.815  0.00  0.00    +0.000 C 
ATOM     10  N   UNL     1      48.234   3.008  19.055  0.00  0.00    +0.000 NA
ATOM     11  C   UNL     1      48.826   4.314  19.426  0.00  0.00    +0.000 C 
ATOM     12  C   UNL     1      49.703   4.932  18.317  0.00  0.00    +0.000 C 
ATOM     13  C   UNL     1      48.461   6.300  15.062  0.00  0.00    +0.000 A 
ATOM     14  H   UNL     1      49.000   2.366  18.852  0.00  0.00    +0.000 HD
ENDBRANCH   1   2
BRANCH   1  15
ATOM     15  C   UNL     1      46.436   7.752  12.735  0.00  0.00    +0.000 C 
BRANCH  15  19
ATOM     16  C   UNL     1      44.571   4.056  11.462  0.00  0.00    +0.000 A 
ATOM     17  C   UNL     1      44.682   4.354  12.825  0.00  0.00    +0.000 A 
ATOM     18  C   UNL     1      45.297   5.543  13.237  0.00  0.00    +0.000 A 
ATOM     19  C   UNL     1      45.804   6.450  12.295  0.00  0.00    +0.000 A 
ATOM     20  C   UNL     1      45.714   6.130  10.932  0.00  0.00    +0.000 A 
ATOM     21  C   UNL     1      45.105   4.942  10.519  0.00  0.00    +0.000 A 
BRANCH  16  23
ATOM     22  N   UNL     1      44.516   2.158   9.932  0.00  0.00    +0.000 N 
ATOM     23  C   UNL     1      43.920   2.810  10.978  0.00  0.00    +0.000 C 
ATOM     24  O   UNL     1      42.920   2.356  11.515  0.00  0.00    +0.000 OA
ATOM     25  H   UNL     1      44.126   1.258   9.686  0.00  0.00    +0.000 HD
ATOM     26  H   UNL     1      45.467   2.350   9.651  0.00  0.00    +0.000 HD
ENDBRANCH  16  23
ENDBRANCH  15  19
ENDBRANCH   1  15
TORSDOF 4
ENDMDL
MODEL 6
REMARK VINA RESULT:    -6.109      4.368      8.617
REMARK INTER + INTRA:          -8.471
REMARK INTER:                  -7.630
REMARK INTRA:                  -0.842
REMARK UNBOUND:                -0.934
REMARK  Name = 
REMARK  4 active torsions:
REMARK  status: ('A' for Active; 'I' for Inactive)
REMARK    1  A    between atoms: C_2  and  C_4
REMARK    2  A    between atoms: C_7  and  C_8
REMARK    3  A    between atoms: C_8  and  C_9
REMARK    4  A    between atoms: C_9  and  C_10
REMARK                            x       y       z     vdW  Elec       q    Type
REMARK                         _______ _______ _______ _____ _____    ______ ____
ROOT
ATOM      1  C   UNL     1      49.216   7.177  13.803  0.00  0.00    +0.000 C 
ENDROOT
BRANCH   1   2
ATOM      2  C   UNL     1      47.757   7.302  13.429  0.00  0.00    +0.000 A 
ATOM      3  C   UNL     1      47.174   8.544  13.204  0.00  0.00    +0.000 A 
ATOM      4  C   UNL     1      45.835   8.582  12.866  0.00  0.00    +0.000 A 
ATOM      5  N   UNL     1      45.051   7.487  12.753  0.00  0.00    +0.000 NA
ATOM      6  C   UNL     1      45.592   6.269  12.974  0.00  0.00    +0.000 A 
ATOM      7  N   UNL     1      44.775   5.160  12.900  0.00  0.00    +0.000 N 
ATOM      8  C   UNL     1      45.262   3.838  12.496  0.00  0.00    +0.000 C 
ATOM      9  C   UNL     1      44.523   3.327  11.238  0.00  0.00    +0.000 C 
ATOM     10  N   UNL     1      43.051   3.372  11.348  0.00  0.00    +0.000 NA
ATOM     11  C   UNL     1      42.655   4.766  11.652  0.00  0.00    +0.000 C 
ATOM     12  C   UNL     1      43.317   5.332  12.927  0.00  0.00    +0.000 C 
ATOM     13  C   UNL     1      46.944   6.164  13.317  0.00  0.00    +0.000 A 
ATOM     14  H   UNL     1      42.777   2.790  12.140  0.00  0.00    +0.000 HD
ENDBRANCH   1   2
BRANCH   1  15
ATOM     15  C   UNL     1      49.580   8.009  15.038  0.00  0.00    +0.000 C 
BRANCH  15  19
ATOM     16  C   UNL     1      48.475   6.034  18.732  0.00  0.00    +0.000 A 
ATOM     17  C   UNL     1      48.207   7.396  18.556  0.00  0.00    +0.000 A 
ATOM     18  C   UNL     1      48.576   8.038  17.367  0.00  0.00    +0.000 A 
ATOM     19  C   UNL     1      49.213   7.328  16.339  0.00  0.00    +0.000 A 
ATOM     20  C   UNL     1      49.503   5.970  16.534  0.00  0.00    +0.000 A 
ATOM     21  C   UNL     1      49.139   5.328  17.722  0.00  0.00    +0.000 A 
BRANCH  16  23
ATOM     22  N   UNL     1      48.515   4.013  20.094  0.00  0.00    +0.000 N 
ATOM     23  C   UNL     1      48.095   5.310  19.973  0.00  0.00    +0.000 C 
ATOM     24  O   UNL     1      47.472   5.857  20.872  0.00  0.00    +0.000 OA
ATOM     25  H   UNL     1      48.344   3.569  20.987  0.00  0.00    +0.000 HD
ATOM     26  H   UNL     1      49.243   3.628  19.511  0.00  0.00    +0.000 HD
ENDBRANCH  16  23
ENDBRANCH  15  19
ENDBRANCH   1  15
TORSDOF 4
ENDMDL
MODEL 7
REMARK VINA RESULT:    -6.002      4.172      7.307
REMARK INTER + INTRA:          -8.339
REMARK INTER:                  -7.577
REMARK INTRA:                  -0.762
REMARK UNBOUND:                -0.934
REMARK  Name = 
REMARK  4 active torsions:
REMARK  status: ('A' for Active; 'I' for Inactive)
REMARK    1  A    between atoms: C_2  and  C_4
REMARK    2  A    between atoms: C_7  and  C_8
REMARK    3  A    between atoms: C_8  and  C_9
REMARK    4  A    between atoms: C_9  and  C_10
REMARK                            x       y       z     vdW  Elec       q    Type
REMARK                         _______ _______ _______ _____ _____    ______ ____
ROOT
ATOM      1  C   UNL     1      48.360   8.786  11.872  0.00  0.00    +0.000 C 
ENDROOT
BRANCH   1   2
ATOM      2  C   UNL     1      47.806   7.517  12.476  0.00  0.00    +0.000 A 
ATOM      3  C   UNL     1      48.227   7.069  13.723  0.00  0.00    +0.000 A 
ATOM      4  C   UNL     1      47.677   5.900  14.213  0.00  0.00    +0.000 A 
ATOM      5  N   UNL     1      46.766   5.155  13.549  0.00  0.00    +0.000 NA
ATOM      6  C   UNL     1      46.347   5.565  12.333  0.00  0.00    +0.000 A 
ATOM      7  N   UNL     1      45.449   4.776  11.642  0.00  0.00    +0.000 N 
ATOM      8  C   UNL     1      44.473   5.323  10.697  0.00  0.00    +0.000 C 
ATOM      9  C   UNL     1      43.026   4.989  11.128  0.00  0.00    +0.000 C 
ATOM     10  N   UNL     1      42.798   3.556  11.404  0.00  0.00    +0.000 NA
ATOM     11  C   UNL     1      43.761   3.129  12.444  0.00  0.00    +0.000 C 
ATOM     12  C   UNL     1      45.236   3.386  12.063  0.00  0.00    +0.000 C 
ATOM     13  C   UNL     1      46.863   6.743  11.782  0.00  0.00    +0.000 A 
ATOM     14  H   UNL     1      43.008   3.035  10.552  0.00  0.00    +0.000 HD
ENDBRANCH   1   2
BRANCH   1  15
ATOM     15  C   UNL     1      47.748  10.049  12.489  0.00  0.00    +0.000 C 
BRANCH  15  19
ATOM     16  C   UNL     1      44.140  11.283  10.434  0.00  0.00    +0.000 A 
ATOM     17  C   UNL     1      45.368  11.872  10.112  0.00  0.00    +0.000 A 
ATOM     18  C   UNL     1      46.533  11.482  10.785  0.00  0.00    +0.000 A 
ATOM     19  C   UNL     1      46.487  10.499  11.784  0.00  0.00    +0.000 A 
ATOM     20  C   UNL     1      45.248   9.934  12.120  0.00  0.00    +0.000 A 
ATOM     21  C   UNL     1      44.083  10.325  11.452  0.00  0.00    +0.000 A 
BRANCH  16  23
ATOM     22  N   UNL     1      41.808  10.823   9.893  0.00  0.00    +0.000 N 
ATOM     23  C   UNL     1      42.880  11.660   9.740  0.00  0.00    +0.000 C 
ATOM     24  O   UNL     1      42.785  12.694   9.095  0.00  0.00    +0.000 OA
ATOM     25  H   UNL     1      40.930  11.146   9.508  0.00  0.00    +0.000 HD
ATOM     26  H   UNL     1      41.771  10.125  10.621  0.00  0.00    +0.000 HD
ENDBRANCH  16  23
ENDBRANCH  15  19
ENDBRANCH   1  15
TORSDOF 4
ENDMDL
MODEL 8
REMARK VINA RESULT:    -5.534      3.743      6.764
REMARK INTER + INTRA:          -7.762
REMARK INTER:                  -7.135
REMARK INTRA:                  -0.627
REMARK UNBOUND:                -0.934
REMARK  Name = 
REMARK  4 active torsions:
REMARK  status: ('A' for Active; 'I' for Inactive)
REMARK    1  A    between atoms: C_2  and  C_4
REMARK    2  A    between atoms: C_7  and  C_8
REMARK    3  A    between atoms: C_8  and  C_9
REMARK    4  A    between atoms: C_9  and  C_10
REMARK                            x       y       z     vdW  Elec       q    Type
REMARK                         _______ _______ _______ _____ _____    ______ ____
ROOT
ATOM      1  C   UNL     1      48.596   7.983  14.046  0.00  0.00    +0.000 C 
ENDROOT
BRANCH   1   2
ATOM      2  C   UNL     1      47.866   6.664  14.152  0.00  0.00    +0.000 A 
ATOM      3  C   UNL     1      48.043   5.829  15.249  0.00  0.00    +0.000 A 
ATOM      4  C   UNL     1      47.344   4.638  15.279  0.00  0.00    +0.000 A 
ATOM      5  N   UNL     1      46.509   4.225  14.300  0.00  0.00    +0.000 NA
ATOM      6  C   UNL     1      46.325   5.015  13.220  0.00  0.00    +0.000 A 
ATOM      7  N   UNL     1      45.506   4.568  12.204  0.00  0.00    +0.000 N 
ATOM      8  C   UNL     1      44.738   5.472  11.344  0.00  0.00    +0.000 C 
ATOM      9  C   UNL     1      43.221   5.193  11.448  0.00  0.00    +0.000 C 
ATOM     10  N   UNL     1      42.856   3.777  11.240  0.00  0.00    +0.000 NA
ATOM     11  C   UNL     1      43.603   2.960  12.223  0.00  0.00    +0.000 C 
ATOM     12  C   UNL     1      45.133   3.148  12.148  0.00  0.00    +0.000 C 
ATOM     13  C   UNL     1      47.003   6.236  13.132  0.00  0.00    +0.000 A 
ATOM     14  H   UNL     1      43.170   3.505  10.307  0.00  0.00    +0.000 HD
ENDBRANCH   1   2
BRANCH   1  15
ATOM     15  C   UNL     1      48.359   8.681  12.702  0.00  0.00    +0.000 C 
BRANCH  15  19
ATOM     16  C   UNL     1      51.966   8.885  10.311  0.00  0.00    +0.000 A 
ATOM     17  C   UNL     1      51.307  10.060  10.690  0.00  0.00    +0.000 A 
ATOM     18  C   UNL     1      50.134   9.994  11.452  0.00  0.00    +0.000 A 
ATOM     19  C   UNL     1      49.606   8.756  11.848  0.00  0.00    +0.000 A 
ATOM     20  C   UNL     1      50.257   7.583  11.440  0.00  0.00    +0.000 A 
ATOM     21  C   UNL     1      51.426   7.646  10.676  0.00  0.00    +0.000 A 
BRANCH  16  23
ATOM     22  N   UNL     1      54.270   9.622  10.013  0.00  0.00    +0.000 N 
ATOM     23  C   UNL     1      53.217   8.907   9.509  0.00  0.00    +0.000 C 
ATOM     24  O   UNL     1      53.324   8.280   8.464  0.00  0.00    +0.000 OA
ATOM     25  H   UNL     1      55.146   9.540   9.513  0.00  0.00    +0.000 HD
ATOM     26  H   UNL     1      54.307   9.917  10.977  0.00  0.00    +0.000 HD
ENDBRANCH  16  23
ENDBRANCH  15  19
ENDBRANCH   1  15
TORSDOF 4
ENDMDL
