MODEL 1
REMARK VINA RESULT:    -7.867      0.000      0.000
REMARK INTER + INTRA:          -9.125
REMARK INTER:                  -8.787
REMARK INTRA:                  -0.337
REMARK UNBOUND:                -0.337
REMARK  Name = 
REMARK  2 active torsions:
REMARK  status: ('A' for Active; 'I' for Inactive)
REMARK    1  A    between atoms: N_5  and  C_6
REMARK    2  A    between atoms: C_6  and  C_7
REMARK                            x       y       z     vdW  Elec       q    Type
REMARK                         _______ _______ _______ _____ _____    ______ ____
ROOT
ATOM      1  C   UNL     1      44.836   3.859  11.216  0.00  0.00    +0.000 A 
ATOM      2  C   UNL     1      45.268   3.177  12.336  0.00  0.00    +0.000 A 
ATOM      3  N   UNL     1      46.077   3.740  13.251  0.00  0.00    +0.000 NA
ATOM      4  N   UNL     1      46.493   5.045  13.083  0.00  0.00    +0.000 NA
ATOM      5  C   UNL     1      46.068   5.787  12.037  0.00  0.00    +0.000 A 
ATOM      6  N   UNL     1      46.521   7.087  11.836  0.00  0.00    +0.000 N 
ATOM      7  C   UNL     1      47.766   7.502  12.503  0.00  0.00    +0.000 C 
ATOM      8  C   UNL     1      47.531   8.506  13.651  0.00  0.00    +0.000 C 
ATOM      9  N   UNL     1      46.671   9.646  13.268  0.00  0.00    +0.000 NA
ATOM     10  C   UNL     1      45.383   9.101  12.798  0.00  0.00    +0.000 C 
ATOM     11  C   UNL     1      45.520   8.137  11.598  0.00  0.00    +0.000 C 
ATOM     12  C   UNL     1      45.229   5.195  11.092  0.00  0.00    +0.000 A 
ATOM     13  H   UNL     1      47.117  10.128  12.488  0.00  0.00    +0.000 HD
ENDROOT
BRANCH   1  14
ATOM     14  C   UNL     1      44.008   3.179  10.164  0.00  0.00    +0.000 C 
BRANCH  14  19
ATOM     15  C   UNL     1      47.484   1.944   6.952  0.00  0.00    +0.000 A 
ATOM     16  C   UNL     1      46.676   1.244   7.815  0.00  0.00    +0.000 A 
ATOM     17  N   UNL     1      45.632   1.796   8.460  0.00  0.00    +0.000 NA
ATOM     18  C   UNL     1      45.384   3.095   8.233  0.00  0.00    +0.000 A 
ATOM     19  N   UNL     1      44.311   3.721   8.860  0.00  0.00    +0.000 N 
ATOM     20  N   UNL     1      46.125   3.864   7.425  0.00  0.00    +0.000 NA
ATOM     21  C   UNL     1      47.156   3.265   6.795  0.00  0.00    +0.000 A 
ATOM     22  H   UNL     1      44.501   4.715   8.822  0.00  0.00    +0.000 HD
ENDBRANCH  14  19
ENDBRANCH   1  14
TORSDOF 2
ENDMDL
MODEL 2
REMARK VINA RESULT:    -7.465      1.238      1.391
REMARK INTER + INTRA:          -8.675
REMARK INTER:                  -8.435
REMARK INTRA:                  -0.240
REMARK UNBOUND:                -0.337
REMARK  Name = 
REMARK  2 active torsions:
REMARK  status: ('A' for Active; 'I' for Inactive)
REMARK    1  A    between atoms: N_5  and  C_6
REMARK    2  A    between atoms: C_6  and  C_7
REMARK                            x       y       z     vdW  Elec       q    Type
REMARK                         _______ _______ _______ _____ _____    ______ ____
ROOT
ATOM      1  C   UNL     1      45.001   4.592  11.848  0.00  0.00    +0.000 A 
ATOM      2  C   UNL     1      45.366   3.664  12.804  0.00  0.00    +0.000 A 
ATOM      3  N   UNL     1      46.462   3.817  13.569  0.00  0.00    +0.000 NA
ATOM      4  N   UNL     1      47.254   4.934  13.410  0.00  0.00    +0.000 NA
ATOM      5  C   UNL     1      46.929   5.905  12.529  0.00  0.00    +0.000 A 
ATOM      6  N   UNL     1      47.749   7.012  12.330  0.00  0.00    +0.000 N 
ATOM      7  C   UNL     1      49.157   6.921  12.753  0.00  0.00    +0.000 C 
ATOM      8  C   UNL     1      49.473   7.784  13.992  0.00  0.00    +0.000 C 
ATOM      9  N   UNL     1      48.991   9.177  13.876  0.00  0.00    +0.000 NA
ATOM     10  C   UNL     1      47.535   9.133  13.646  0.00  0.00    +0.000 C 
ATOM     11  C   UNL     1      47.132   8.346  12.379  0.00  0.00    +0.000 C 
ATOM     12  C   UNL     1      45.791   5.740  11.739  0.00  0.00    +0.000 A 
ATOM     13  H   UNL     1      49.432   9.595  13.056  0.00  0.00    +0.000 HD
ENDROOT
BRANCH   1  14
ATOM     14  C   UNL     1      43.825   4.354  10.945  0.00  0.00    +0.000 C 
BRANCH  14  19
ATOM     15  C   UNL     1      46.610   2.324   7.475  0.00  0.00    +0.000 A 
ATOM     16  C   UNL     1      45.745   1.837   8.423  0.00  0.00    +0.000 A 
ATOM     17  N   UNL     1      44.921   2.620   9.143  0.00  0.00    +0.000 NA
ATOM     18  C   UNL     1      44.960   3.940   8.903  0.00  0.00    +0.000 A 
ATOM     19  N   UNL     1      44.124   4.802   9.605  0.00  0.00    +0.000 N 
ATOM     20  N   UNL     1      45.781   4.510   8.012  0.00  0.00    +0.000 NA
ATOM     21  C   UNL     1      46.583   3.684   7.310  0.00  0.00    +0.000 A 
ATOM     22  H   UNL     1      44.535   5.725   9.522  0.00  0.00    +0.000 HD
ENDBRANCH  14  19
ENDBRANCH   1  14
TORSDOF 2
ENDMDL
MODEL 3
REMARK VINA RESULT:    -6.886      3.403      4.589
REMARK INTER + INTRA:          -8.029
REMARK INTER:                  -7.768
REMARK INTRA:                  -0.261
REMARK UNBOUND:                -0.337
REMARK  Name = 
REMARK  2 active torsions:
REMARK  status: ('A' for Active; 'I' for Inactive)
REMARK    1  A    between atoms: N_5  and  C_6
REMARK    2  A    between atoms: C_6  and  C_7
REMARK                            x       y       z     vdW  Elec       q    Type
REMARK                         _______ _______ _______ _____ _____    ______ ____
ROOT
ATOM      1  C   UNL     1      46.266   5.193  13.192  0.00  0.00    +0.000 A 
ATOM      2  C   UNL     1      47.220   6.040  12.664  0.00  0.00    +0.000 A 
ATOM      3  N   UNL     1      48.321   6.397  13.351  0.00  0.00    +0.000 NA
ATOM      4  N   UNL     1      48.520   5.904  14.623  0.00  0.00    +0.000 NA
ATOM      5  C   UNL     1      47.653   5.032  15.182  0.00  0.00    +0.000 A 
ATOM      6  N   UNL     1      47.824   4.568  16.483  0.00  0.00    +0.000 N 
ATOM      7  C   UNL     1      48.692   5.338  17.388  0.00  0.00    +0.000 C 
ATOM      8  C   UNL     1      50.023   4.625  17.703  0.00  0.00    +0.000 C 
ATOM      9  N   UNL     1      49.850   3.218  18.123  0.00  0.00    +0.000 NA
ATOM     10  C   UNL     1      49.137   2.509  17.044  0.00  0.00    +0.000 C 
ATOM     11  C   UNL     1      47.756   3.118  16.712  0.00  0.00    +0.000 C 
ATOM     12  C   UNL     1      46.514   4.667  14.463  0.00  0.00    +0.000 A 
ATOM     13  H   UNL     1      49.261   3.208  18.955  0.00  0.00    +0.000 HD
ENDROOT
BRANCH   1  14
ATOM     14  C   UNL     1      45.003   4.883  12.442  0.00  0.00    +0.000 C 
BRANCH  14  19
ATOM     15  C   UNL     1      45.354   2.919   7.976  0.00  0.00    +0.000 A 
ATOM     16  C   UNL     1      44.715   2.563   9.138  0.00  0.00    +0.000 A 
ATOM     17  N   UNL     1      44.594   3.385  10.196  0.00  0.00    +0.000 NA
ATOM     18  C   UNL     1      45.128   4.612  10.088  0.00  0.00    +0.000 A 
ATOM     19  N   UNL     1      45.025   5.514  11.142  0.00  0.00    +0.000 N 
ATOM     20  N   UNL     1      45.785   5.044   9.005  0.00  0.00    +0.000 NA
ATOM     21  C   UNL     1      45.875   4.187   7.967  0.00  0.00    +0.000 A 
ATOM     22  H   UNL     1      45.748   6.207  10.993  0.00  0.00    +0.000 HD
ENDBRANCH  14  19
ENDBRANCH   1  14
TORSDOF 2
ENDMDL
MODEL 4
REMARK VINA RESULT:    -6.403      3.533      7.167
REMARK INTER + INTRA:          -7.489
REMARK INTER:                  -7.182
REMARK INTRA:                  -0.307
REMARK UNBOUND:                -0.337
REMARK  Name = 
REMARK  2 active torsions:
REMARK  status: ('A' for Active; 'I' for Inactive)
REMARK    1  A    between atoms: N_5  and  C_6
REMARK    2  A    between atoms: C_6  and  C_7
REMARK                            x       y       z     vdW  Elec       q    Type
REMARK                         _______ _______ _______ _____ _____    ______ ____
ROOT
ATOM      1  C   UNL     1      48.065   6.741  13.727  0.00  0.00    +0.000 A 
ATOM      2  C   UNL     1      48.305   7.582  12.658  0.00  0.00    +0.000 A 
ATOM      3  N   UNL     1      47.626   7.481  11.500  0.00  0.00    +0.000 NA
ATOM      4  N   UNL     1      46.652   6.515  11.364  0.00  0.00    +0.000 NA
ATOM      5  C   UNL     1      46.331   5.692  12.386  0.00  0.00    +0.000 A 
ATOM      6  N   UNL     1      45.382   4.684  12.239  0.00  0.00    +0.000 N 
ATOM      7  C   UNL     1      45.042   4.241  10.877  0.00  0.00    +0.000 C 
ATOM      8  C   UNL     1      43.629   4.675  10.435  0.00  0.00    +0.000 C 
ATOM      9  N   UNL     1      42.580   4.357  11.428  0.00  0.00    +0.000 NA
ATOM     10  C   UNL     1      42.942   5.020  12.695  0.00  0.00    +0.000 C 
ATOM     11  C   UNL     1      44.318   4.587  13.248  0.00  0.00    +0.000 C 
ATOM     12  C   UNL     1      47.039   5.803  13.583  0.00  0.00    +0.000 A 
ATOM     13  H   UNL     1      42.587   3.349  11.581  0.00  0.00    +0.000 HD
ENDROOT
BRANCH   1  14
ATOM     14  C   UNL     1      48.898   6.816  14.973  0.00  0.00    +0.000 C 
BRANCH  14  19
ATOM     15  C   UNL     1      49.265   3.020  18.035  0.00  0.00    +0.000 A 
ATOM     16  C   UNL     1      50.168   3.825  17.387  0.00  0.00    +0.000 A 
ATOM     17  N   UNL     1      49.822   4.957  16.747  0.00  0.00    +0.000 NA
ATOM     18  C   UNL     1      48.525   5.300  16.760  0.00  0.00    +0.000 A 
ATOM     19  N   UNL     1      48.104   6.466  16.129  0.00  0.00    +0.000 N 
ATOM     20  N   UNL     1      47.569   4.571  17.350  0.00  0.00    +0.000 NA
ATOM     21  C   UNL     1      47.964   3.448  17.983  0.00  0.00    +0.000 A 
ATOM     22  H   UNL     1      47.109   6.360  15.972  0.00  0.00    +0.000 HD
ENDBRANCH  14  19
ENDBRANCH   1  14
TORSDOF 2
ENDMDL
MODEL 5
REMARK VINA RESULT:    -5.994      3.640      5.777
REMARK INTER + INTRA:          -7.032
REMARK INTER:                  -6.783
REMARK INTRA:                  -0.249
REMARK UNBOUND:                -0.337
REMARK  Name = 
REMARK  2 active torsions:
REMARK  status: ('A' for Active; 'I' for Inactive)
REMARK    1  A    between atoms: N_5  and  C_6
REMARK    2  A    between atoms: C_6  and  C_7
REMARK                            x       y       z     vdW  Elec       q    Type
REMARK                         _______ _______ _______ _____ _____    ______ ____
ROOT
ATOM      1  C   UNL     1      47.995   6.524  13.238  0.00  0.00    +0.000 A 
ATOM      2  C   UNL     1      49.191   7.211  13.303  0.00  0.00    +0.000 A 
ATOM      3  N   UNL     1      49.963   7.204  14.404  0.00  0.00    +0.000 NA
ATOM      4  N   UNL     1      49.565   6.485  15.511  0.00  0.00    +0.000 NA
ATOM      5  C   UNL     1      48.432   5.750  15.500  0.00  0.00    +0.000 A 
ATOM      6  N   UNL     1      47.999   5.061  16.630  0.00  0.00    +0.000 N 
ATOM      7  C   UNL     1      48.532   5.469  17.940  0.00  0.00    +0.000 C 
ATOM      8  C   UNL     1      49.510   4.438  18.543  0.00  0.00    +0.000 C 
ATOM      9  N   UNL     1      48.985   3.056  18.535  0.00  0.00    +0.000 NA
ATOM     10  C   UNL     1      48.670   2.701  17.138  0.00  0.00    +0.000 C 
ATOM     11  C   UNL     1      47.639   3.644  16.477  0.00  0.00    +0.000 C 
ATOM     12  C   UNL     1      47.636   5.763  14.354  0.00  0.00    +0.000 A 
ATOM     13  H   UNL     1      48.116   3.046  19.070  0.00  0.00    +0.000 HD
ENDROOT
BRANCH   1  14
ATOM     14  C   UNL     1      47.109   6.622  12.030  0.00  0.00    +0.000 C 
BRANCH  14  19
ATOM     15  C   UNL     1      43.192   3.779  11.321  0.00  0.00    +0.000 A 
ATOM     16  C   UNL     1      44.515   3.544  11.605  0.00  0.00    +0.000 A 
ATOM     17  N   UNL     1      45.376   4.513  11.966  0.00  0.00    +0.000 NA
ATOM     18  C   UNL     1      44.897   5.763  12.051  0.00  0.00    +0.000 A 
ATOM     19  N   UNL     1      45.733   6.807  12.432  0.00  0.00    +0.000 N 
ATOM     20  N   UNL     1      43.629   6.094  11.777  0.00  0.00    +0.000 NA
ATOM     21  C   UNL     1      42.801   5.089  11.426  0.00  0.00    +0.000 A 
ATOM     22  H   UNL     1      45.286   7.659  12.116  0.00  0.00    +0.000 HD
ENDBRANCH  14  19
ENDBRANCH   1  14
TORSDOF 2
ENDMDL
MODEL 6
REMARK VINA RESULT:    -5.927      2.039      2.986
REMARK INTER + INTRA:          -6.957
REMARK INTER:                  -6.797
REMARK INTRA:                  -0.160
REMARK UNBOUND:                -0.337
REMARK  Name = 
REMARK  2 active torsions:
REMARK  status: ('A' for Active; 'I' for Inactive)
REMARK    1  A    between atoms: N_5  and  C_6
REMARK    2  A    between atoms: C_6  and  C_7
REMARK                            x       y       z     vdW  Elec       q    Type
REMARK                         _______ _______ _______ _____ _____    ______ ____
ROOT
ATOM      1  C   UNL     1      45.924   5.494  13.194  0.00  0.00    +0.000 A 
ATOM      2  C   UNL     1      46.537   4.813  14.228  0.00  0.00    +0.000 A 
ATOM      3  N   UNL     1      47.758   5.148  14.682  0.00  0.00    +0.000 NA
ATOM      4  N   UNL     1      48.430   6.209  14.112  0.00  0.00    +0.000 NA
ATOM      5  C   UNL     1      47.870   6.949  13.132  0.00  0.00    +0.000 A 
ATOM      6  N   UNL     1      48.561   7.991  12.520  0.00  0.00    +0.000 N 
ATOM      7  C   UNL     1      50.029   8.014  12.635  0.00  0.00    +0.000 C 
ATOM      8  C   UNL     1      50.545   9.140  13.554  0.00  0.00    +0.000 C 
ATOM      9  N   UNL     1      49.967  10.465  13.242  0.00  0.00    +0.000 NA
ATOM     10  C   UNL     1      48.500  10.354  13.350  0.00  0.00    +0.000 C 
ATOM     11  C   UNL     1      47.889   9.293  12.407  0.00  0.00    +0.000 C 
ATOM     12  C   UNL     1      46.603   6.596  12.666  0.00  0.00    +0.000 A 
ATOM     13  H   UNL     1      50.200  10.689  12.274  0.00  0.00    +0.000 HD
ENDROOT
BRANCH   1  14
ATOM     14  C   UNL     1      44.601   5.043  12.645  0.00  0.00    +0.000 C 
BRANCH  14  19
ATOM     15  C   UNL     1      44.955   3.442   8.037  0.00  0.00    +0.000 A 
ATOM     16  C   UNL     1      45.462   4.517   8.725  0.00  0.00    +0.000 A 
ATOM     17  N   UNL     1      45.392   4.636  10.064  0.00  0.00    +0.000 NA
ATOM     18  C   UNL     1      44.798   3.641  10.741  0.00  0.00    +0.000 A 
ATOM     19  N   UNL     1      44.706   3.698  12.128  0.00  0.00    +0.000 N 
ATOM     20  N   UNL     1      44.258   2.563  10.158  0.00  0.00    +0.000 NA
ATOM     21  C   UNL     1      44.358   2.485   8.815  0.00  0.00    +0.000 A 
ATOM     22  H   UNL     1      43.964   3.060  12.389  0.00  0.00    +0.000 HD
ENDBRANCH  14  19
ENDBRANCH   1  14
TORSDOF 2
ENDMDL
MODEL 7
REMARK VINA RESULT:    -5.869      1.551      6.609
REMARK INTER + INTRA:          -6.892
REMARK INTER:                  -6.544
REMARK INTRA:                  -0.348
REMARK UNBOUND:                -0.337
REMARK  Name = 
REMARK  2 active torsions:
REMARK  status: ('A' for Active; 'I' for Inactive)
REMARK    1  A    between atoms: N_5  and  C_6
REMARK    2  A    between atoms: C_6  and  C_7
REMARK                            x       y       z     vdW  Elec       q    Type
REMARK                         _______ _______ _______ _____ _____    ______ ____
ROOT
ATOM      1  C   UNL     1      45.433   6.392  12.300  0.00  0.00    +0.000 A 
ATOM      2  C   UNL     1      45.688   5.488  13.313  0.00  0.00    +0.000 A 
ATOM      3  N   UNL     1      45.665   4.158  13.110  0.00  0.00    +0.000 NA
ATOM      4  N   UNL     1      45.386   3.665  11.853  0.00  0.00    +0.000 NA
ATOM      5  C   UNL     1      45.176   4.492  10.806  0.00  0.00    +0.000 A 
ATOM      6  N   UNL     1      44.847   4.002   9.545  0.00  0.00    +0.000 N 
ATOM      7  C   UNL     1      44.314   2.633   9.448  0.00  0.00    +0.000 C 
ATOM      8  C   UNL     1      45.307   1.642   8.807  0.00  0.00    +0.000 C 
ATOM      9  N   UNL     1      45.887   2.129   7.537  0.00  0.00    +0.000 NA
ATOM     10  C   UNL     1      46.558   3.414   7.812  0.00  0.00    +0.000 C 
ATOM     11  C   UNL     1      45.616   4.493   8.392  0.00  0.00    +0.000 C 
ATOM     12  C   UNL     1      45.202   5.870  11.024  0.00  0.00    +0.000 A 
ATOM     13  H   UNL     1      45.120   2.303   6.887  0.00  0.00    +0.000 HD
ENDROOT
BRANCH   1  14
ATOM     14  C   UNL     1      45.374   7.867  12.573  0.00  0.00    +0.000 C 
BRANCH  14  19
ATOM     15  C   UNL     1      50.001   9.431  12.306  0.00  0.00    +0.000 A 
ATOM     16  C   UNL     1      48.863   9.657  11.570  0.00  0.00    +0.000 A 
ATOM     17  N   UNL     1      47.638   9.269  11.968  0.00  0.00    +0.000 NA
ATOM     18  C   UNL     1      47.545   8.635  13.147  0.00  0.00    +0.000 A 
ATOM     19  N   UNL     1      46.304   8.220  13.621  0.00  0.00    +0.000 N 
ATOM     20  N   UNL     1      48.597   8.354  13.926  0.00  0.00    +0.000 NA
ATOM     21  C   UNL     1      49.804   8.768  13.489  0.00  0.00    +0.000 A 
ATOM     22  H   UNL     1      46.490   7.504  14.314  0.00  0.00    +0.000 HD
ENDBRANCH  14  19
ENDBRANCH   1  14
TORSDOF 2
ENDMDL
MODEL 8
REMARK VINA RESULT:    -5.785      6.415      8.251
REMARK INTER + INTRA:          -6.799
REMARK INTER:                  -6.528
REMARK INTRA:                  -0.271
REMARK UNBOUND:                -0.337
REMARK  Name = 
REMARK  2 active torsions:
REMARK  status: ('A' for Active; 'I' for Inactive)
REMARK    1  A    between atoms: N_5  and  C_6
REMARK    2  A    between atoms: C_6  and  C_7
REMARK                            x       y       z     vdW  Elec       q    Type
REMARK                         _______ _______ _______ _____ _____    ______ ____
ROOT
ATOM      1  C   UNL     1      48.885   3.514  17.018  0.00  0.00    +0.000 A 
ATOM      2  C   UNL     1      49.117   2.220  16.595  0.00  0.00    +0.000 A 
ATOM      3  N   UNL     1      50.314   1.623  16.739  0.00  0.00    +0.000 NA
ATOM      4  N   UNL     1      51.352   2.310  17.333  0.00  0.00    +0.000 NA
ATOM      5  C   UNL     1      51.181   3.560  17.815  0.00  0.00    +0.000 A 
ATOM      6  N   UNL     1      52.236   4.276  18.373  0.00  0.00    +0.000 N 
ATOM      7  C   UNL     1      53.610   3.851  18.057  0.00  0.00    +0.000 C 
ATOM      8  C   UNL     1      54.333   3.203  19.255  0.00  0.00    +0.000 C 
ATOM      9  N   UNL     1      54.245   4.001  20.496  0.00  0.00    +0.000 NA
ATOM     10  C   UNL     1      52.816   4.192  20.809  0.00  0.00    +0.000 C 
ATOM     11  C   UNL     1      52.027   4.902  19.686  0.00  0.00    +0.000 C 
ATOM     12  C   UNL     1      49.937   4.173  17.662  0.00  0.00    +0.000 A 
ATOM     13  H   UNL     1      54.656   4.916  20.312  0.00  0.00    +0.000 HD
ENDROOT
BRANCH   1  14
ATOM     14  C   UNL     1      47.569   4.189  16.764  0.00  0.00    +0.000 C 
BRANCH  14  19
ATOM     15  C   UNL     1      46.537   6.188  12.421  0.00  0.00    +0.000 A 
ATOM     16  C   UNL     1      47.587   6.284  13.300  0.00  0.00    +0.000 A 
ATOM     17  N   UNL     1      47.743   5.463  14.355  0.00  0.00    +0.000 NA
ATOM     18  C   UNL     1      46.818   4.508  14.535  0.00  0.00    +0.000 A 
ATOM     19  N   UNL     1      46.930   3.619  15.600  0.00  0.00    +0.000 N 
ATOM     20  N   UNL     1      45.751   4.348  13.743  0.00  0.00    +0.000 NA
ATOM     21  C   UNL     1      45.639   5.189  12.695  0.00  0.00    +0.000 A 
ATOM     22  H   UNL     1      46.006   3.230  15.742  0.00  0.00    +0.000 HD
ENDBRANCH  14  19
ENDBRANCH   1  14
TORSDOF 2
ENDMDL
MODEL 9
REMARK VINA RESULT:    -5.757      5.076      6.578
REMARK INTER + INTRA:          -6.767
REMARK INTER:                  -6.559
REMARK INTRA:                  -0.208
REMARK UNBOUND:                -0.337
REMARK  Name = 
REMARK  2 active torsions:
REMARK  status: ('A' for Active; 'I' for Inactive)
REMARK    1  A    between atoms: N_5  and  C_6
REMARK    2  A    between atoms: C_6  and  C_7
REMARK                            x       y       z     vdW  Elec       q    Type
REMARK                         _______ _______ _______ _____ _____    ______ ____
ROOT
ATOM      1  C   UNL     1      47.546   4.256  15.779  0.00  0.00    +0.000 A 
ATOM      2  C   UNL     1      47.908   2.936  15.968  0.00  0.00    +0.000 A 
ATOM      3  N   UNL     1      48.530   2.517  17.084  0.00  0.00    +0.000 NA
ATOM      4  N   UNL     1      48.818   3.420  18.085  0.00  0.00    +0.000 NA
ATOM      5  C   UNL     1      48.449   4.716  17.989  0.00  0.00    +0.000 A 
ATOM      6  N   UNL     1      48.778   5.643  18.974  0.00  0.00    +0.000 N 
ATOM      7  C   UNL     1      49.877   5.317  19.897  0.00  0.00    +0.000 C 
ATOM      8  C   UNL     1      49.393   5.011  21.329  0.00  0.00    +0.000 C 
ATOM      9  N   UNL     1      48.468   6.031  21.867  0.00  0.00    +0.000 NA
ATOM     10  C   UNL     1      47.316   6.123  20.950  0.00  0.00    +0.000 C 
ATOM     11  C   UNL     1      47.705   6.497  19.503  0.00  0.00    +0.000 C 
ATOM     12  C   UNL     1      47.803   5.144  16.828  0.00  0.00    +0.000 A 
ATOM     13  H   UNL     1      48.952   6.929  21.862  0.00  0.00    +0.000 HD
ENDROOT
BRANCH   1  14
ATOM     14  C   UNL     1      46.935   4.715  14.487  0.00  0.00    +0.000 C 
BRANCH  14  19
ATOM     15  C   UNL     1      43.545   4.559  10.965  0.00  0.00    +0.000 A 
ATOM     16  C   UNL     1      44.572   5.416  11.277  0.00  0.00    +0.000 A 
ATOM     17  N   UNL     1      45.517   5.133  12.192  0.00  0.00    +0.000 NA
ATOM     18  C   UNL     1      45.436   3.948  12.816  0.00  0.00    +0.000 A 
ATOM     19  N   UNL     1      46.390   3.590  13.763  0.00  0.00    +0.000 N 
ATOM     20  N   UNL     1      44.463   3.055  12.593  0.00  0.00    +0.000 NA
ATOM     21  C   UNL     1      43.542   3.380  11.663  0.00  0.00    +0.000 A 
ATOM     22  H   UNL     1      45.973   2.857  14.323  0.00  0.00    +0.000 HD
ENDBRANCH  14  19
ENDBRANCH   1  14
TORSDOF 2
ENDMDL
