MODEL 1
REMARK VINA RESULT:    -7.743      0.000      0.000
REMARK INTER + INTRA:         -11.380
REMARK INTER:                 -10.686
REMARK INTRA:                  -0.694
REMARK UNBOUND:                -0.694
REMARK  Name = 
REMARK  7 active torsions:
REMARK  status: ('A' for Active; 'I' for Inactive)
REMARK    1  A    between atoms: N_1  and  C_2
REMARK    2  A    between atoms: C_2  and  C_3
REMARK    3  A    between atoms: C_7  and  O_8
REMARK    4  A    between atoms: O_8  and  C_9
REMARK    5  A    between atoms: C_9  and  O_10
REMARK    6  A    between atoms: O_10  and  C_11
REMARK    7  A    between atoms: C_15  and  C_16
REMARK                            x       y       z     vdW  Elec       q    Type
REMARK                         _______ _______ _______ _____ _____    ______ ____
ROOT
ATOM      1  C   UNL     1      43.466   3.312  11.759  0.00  0.00    +0.000 C 
ENDROOT
BRANCH   1   2
ATOM      2  O   UNL     1      44.523   3.113  12.701  0.00  0.00    +0.000 OA
BRANCH   2   7
ATOM      3  C   UNL     1      45.615   6.586  12.543  0.00  0.00    +0.000 A 
ATOM      4  C   UNL     1      46.848   6.532  13.207  0.00  0.00    +0.000 A 
ATOM      5  C   UNL     1      47.329   5.326  13.712  0.00  0.00    +0.000 A 
ATOM      6  C   UNL     1      46.580   4.157  13.566  0.00  0.00    +0.000 A 
ATOM      7  C   UNL     1      45.349   4.187  12.907  0.00  0.00    +0.000 A 
ATOM      8  C   UNL     1      44.875   5.402  12.397  0.00  0.00    +0.000 A 
BRANCH   3   9
ATOM      9  C   UNL     1      45.080   7.900  12.034  0.00  0.00    +0.000 C 
BRANCH   9  10
ATOM     10  N   UNL     1      43.885   7.718  11.217  0.00  0.00    +0.000 NA
ATOM     11  H   UNL     1      43.725   6.722  11.082  0.00  0.00    +0.000 HD
ATOM     12  H   UNL     1      44.060   8.109  10.292  0.00  0.00    +0.000 HD
ENDBRANCH   9  10
ENDBRANCH   3   9
ENDBRANCH   2   7
ENDBRANCH   1   2
BRANCH   1  13
ATOM     13  O   UNL     1      43.623   2.435  10.639  0.00  0.00    +0.000 OA
BRANCH  13  14
ATOM     14  C   UNL     1      44.474   2.862   9.654  0.00  0.00    +0.000 A 
ATOM     15  C   UNL     1      44.607   4.175   9.197  0.00  0.00    +0.000 A 
ATOM     16  C   UNL     1      45.522   4.476   8.186  0.00  0.00    +0.000 A 
ATOM     17  C   UNL     1      46.313   3.468   7.637  0.00  0.00    +0.000 A 
ATOM     18  C   UNL     1      46.195   2.146   8.089  0.00  0.00    +0.000 A 
ATOM     19  C   UNL     1      45.262   1.850   9.090  0.00  0.00    +0.000 A 
BRANCH  18  20
ATOM     20  C   UNL     1      47.098   1.126   7.486  0.00  0.00    +0.000 C 
ATOM     21  N   UNL     1      48.144   1.546   6.714  0.00  0.00    +0.000 N 
ATOM     22  O   UNL     1      46.912  -0.074   7.659  0.00  0.00    +0.000 OA
ATOM     23  H   UNL     1      48.362   2.505   6.495  0.00  0.00    +0.000 HD
ATOM     24  H   UNL     1      48.715   0.824   6.291  0.00  0.00    +0.000 HD
ENDBRANCH  18  20
ENDBRANCH  13  14
ENDBRANCH   1  13
TORSDOF 7
ENDMDL
MODEL 2
REMARK VINA RESULT:    -7.652      1.388      6.239
REMARK INTER + INTRA:         -11.254
REMARK INTER:                 -10.502
REMARK INTRA:                  -0.752
REMARK UNBOUND:                -0.694
REMARK  Name = 
REMARK  7 active torsions:
REMARK  status: ('A' for Active; 'I' for Inactive)
REMARK    1  A    between atoms: N_1  and  C_2
REMARK    2  A    between atoms: C_2  and  C_3
REMARK    3  A    between atoms: C_7  and  O_8
REMARK    4  A    between atoms: O_8  and  C_9
REMARK    5  A    between atoms: C_9  and  O_10
REMARK    6  A    between atoms: O_10  and  C_11
REMARK    7  A    between atoms: C_15  and  C_16
REMARK                            x       y       z     vdW  Elec       q    Type
REMARK                         _______ _______ _______ _____ _____    ______ ____
ROOT
ATOM      1  C   UNL     1      43.249   3.406  11.505  0.00  0.00    +0.000 C 
ENDROOT
BRANCH   1   2
ATOM      2  O   UNL     1      43.703   2.416  10.579  0.00  0.00    +0.000 OA
BRANCH   2   7
ATOM      3  C   UNL     1      46.260   2.166   7.994  0.00  0.00    +0.000 A 
ATOM      4  C   UNL     1      46.402   3.503   7.597  0.00  0.00    +0.000 A 
ATOM      5  C   UNL     1      45.643   4.504   8.197  0.00  0.00    +0.000 A 
ATOM      6  C   UNL     1      44.726   4.183   9.199  0.00  0.00    +0.000 A 
ATOM      7  C   UNL     1      44.568   2.857   9.610  0.00  0.00    +0.000 A 
ATOM      8  C   UNL     1      45.339   1.856   9.007  0.00  0.00    +0.000 A 
BRANCH   3   9
ATOM      9  C   UNL     1      47.055   1.080   7.313  0.00  0.00    +0.000 C 
BRANCH   9  10
ATOM     10  N   UNL     1      48.198   1.620   6.586  0.00  0.00    +0.000 NA
ATOM     11  H   UNL     1      49.055   1.314   7.041  0.00  0.00    +0.000 HD
ATOM     12  H   UNL     1      48.181   2.637   6.660  0.00  0.00    +0.000 HD
ENDBRANCH   9  10
ENDBRANCH   3   9
ENDBRANCH   2   7
ENDBRANCH   1   2
BRANCH   1  13
ATOM     13  O   UNL     1      44.017   3.352  12.711  0.00  0.00    +0.000 OA
BRANCH  13  14
ATOM     14  C   UNL     1      44.942   4.349  12.882  0.00  0.00    +0.000 A 
ATOM     15  C   UNL     1      46.241   4.188  13.369  0.00  0.00    +0.000 A 
ATOM     16  C   UNL     1      47.087   5.292  13.486  0.00  0.00    +0.000 A 
ATOM     17  C   UNL     1      46.640   6.557  13.108  0.00  0.00    +0.000 A 
ATOM     18  C   UNL     1      45.341   6.734  12.612  0.00  0.00    +0.000 A 
ATOM     19  C   UNL     1      44.493   5.624  12.515  0.00  0.00    +0.000 A 
BRANCH  18  20
ATOM     20  C   UNL     1      44.942   8.106  12.190  0.00  0.00    +0.000 C 
ATOM     21  N   UNL     1      44.009   8.246  11.203  0.00  0.00    +0.000 N 
ATOM     22  O   UNL     1      45.443   9.103  12.700  0.00  0.00    +0.000 OA
ATOM     23  H   UNL     1      43.562   7.491  10.708  0.00  0.00    +0.000 HD
ATOM     24  H   UNL     1      43.789   9.192  10.916  0.00  0.00    +0.000 HD
ENDBRANCH  18  20
ENDBRANCH  13  14
ENDBRANCH   1  13
TORSDOF 7
ENDMDL
MODEL 3
REMARK VINA RESULT:    -7.448      2.276      6.129
REMARK INTER + INTRA:         -10.972
REMARK INTER:                 -10.369
REMARK INTRA:                  -0.603
REMARK UNBOUND:                -0.694
REMARK  Name = 
REMARK  7 active torsions:
REMARK  status: ('A' for Active; 'I' for Inactive)
REMARK    1  A    between atoms: N_1  and  C_2
REMARK    2  A    between atoms: C_2  and  C_3
REMARK    3  A    between atoms: C_7  and  O_8
REMARK    4  A    between atoms: O_8  and  C_9
REMARK    5  A    between atoms: C_9  and  O_10
REMARK    6  A    between atoms: O_10  and  C_11
REMARK    7  A    between atoms: C_15  and  C_16
REMARK                            x       y       z     vdW  Elec       q    Type
REMARK                         _______ _______ _______ _____ _____    ______ ____
ROOT
ATOM      1  C   UNL     1      43.643   4.511  10.306  0.00  0.00    +0.000 C 
ENDROOT
BRANCH   1   2
ATOM      2  O   UNL     1      44.388   4.642   9.092  0.00  0.00    +0.000 OA
BRANCH   2   7
ATOM      3  C   UNL     1      46.908   2.702   7.312  0.00  0.00    +0.000 A 
ATOM      4  C   UNL     1      46.600   1.393   7.710  0.00  0.00    +0.000 A 
ATOM      5  C   UNL     1      45.539   1.148   8.578  0.00  0.00    +0.000 A 
ATOM      6  C   UNL     1      44.774   2.208   9.066  0.00  0.00    +0.000 A 
ATOM      7  C   UNL     1      45.062   3.520   8.683  0.00  0.00    +0.000 A 
ATOM      8  C   UNL     1      46.127   3.759   7.805  0.00  0.00    +0.000 A 
BRANCH   3   9
ATOM      9  C   UNL     1      48.083   2.966   6.405  0.00  0.00    +0.000 C 
BRANCH   9  10
ATOM     10  N   UNL     1      48.501   1.762   5.696  0.00  0.00    +0.000 NA
ATOM     11  H   UNL     1      49.107   1.214   6.302  0.00  0.00    +0.000 HD
ATOM     12  H   UNL     1      49.068   2.036   4.894  0.00  0.00    +0.000 HD
ENDBRANCH   9  10
ENDBRANCH   3   9
ENDBRANCH   2   7
ENDBRANCH   1   2
BRANCH   1  13
ATOM     13  O   UNL     1      43.751   5.703  11.089  0.00  0.00    +0.000 OA
BRANCH  13  14
ATOM     14  C   UNL     1      44.977   5.946  11.651  0.00  0.00    +0.000 A 
ATOM     15  C   UNL     1      45.834   7.001  11.328  0.00  0.00    +0.000 A 
ATOM     16  C   UNL     1      47.057   7.137  11.986  0.00  0.00    +0.000 A 
ATOM     17  C   UNL     1      47.423   6.226  12.975  0.00  0.00    +0.000 A 
ATOM     18  C   UNL     1      46.572   5.165  13.315  0.00  0.00    +0.000 A 
ATOM     19  C   UNL     1      45.355   5.026  12.637  0.00  0.00    +0.000 A 
BRANCH  18  20
ATOM     20  C   UNL     1      47.008   4.251  14.408  0.00  0.00    +0.000 C 
ATOM     21  N   UNL     1      47.078   4.735  15.683  0.00  0.00    +0.000 N 
ATOM     22  O   UNL     1      47.315   3.085  14.182  0.00  0.00    +0.000 OA
ATOM     23  H   UNL     1      46.872   5.681  15.962  0.00  0.00    +0.000 HD
ATOM     24  H   UNL     1      47.414   4.096  16.394  0.00  0.00    +0.000 HD
ENDBRANCH  18  20
ENDBRANCH  13  14
ENDBRANCH   1  13
TORSDOF 7
ENDMDL
MODEL 4
REMARK VINA RESULT:    -7.271      1.855      5.983
REMARK INTER + INTRA:         -10.727
REMARK INTER:                 -10.054
REMARK INTRA:                  -0.674
REMARK UNBOUND:                -0.694
REMARK  Name = 
REMARK  7 active torsions:
REMARK  status: ('A' for Active; 'I' for Inactive)
REMARK    1  A    between atoms: N_1  and  C_2
REMARK    2  A    between atoms: C_2  and  C_3
REMARK    3  A    between atoms: C_7  and  O_8
REMARK    4  A    between atoms: O_8  and  C_9
REMARK    5  A    between atoms: C_9  and  O_10
REMARK    6  A    between atoms: O_10  and  C_11
REMARK    7  A    between atoms: C_15  and  C_16
REMARK                            x       y       z     vdW  Elec       q    Type
REMARK                         _______ _______ _______ _____ _____    ______ ____
ROOT
ATOM      1  C   UNL     1      43.993   2.722  11.762  0.00  0.00    +0.000 C 
ENDROOT
BRANCH   1   2
ATOM      2  O   UNL     1      43.558   2.730  10.399  0.00  0.00    +0.000 OA
BRANCH   2   7
ATOM      3  C   UNL     1      46.237   2.075   8.016  0.00  0.00    +0.000 A 
ATOM      4  C   UNL     1      46.531   3.365   7.551  0.00  0.00    +0.000 A 
ATOM      5  C   UNL     1      45.836   4.469   8.037  0.00  0.00    +0.000 A 
ATOM      6  C   UNL     1      44.831   4.300   8.990  0.00  0.00    +0.000 A 
ATOM      7  C   UNL     1      44.520   3.025   9.468  0.00  0.00    +0.000 A 
ATOM      8  C   UNL     1      45.228   1.920   8.979  0.00  0.00    +0.000 A 
BRANCH   3   9
ATOM      9  C   UNL     1      46.964   0.879   7.458  0.00  0.00    +0.000 C 
BRANCH   9  10
ATOM     10  N   UNL     1      48.001   1.270   6.509  0.00  0.00    +0.000 NA
ATOM     11  H   UNL     1      48.810   1.610   7.024  0.00  0.00    +0.000 HD
ATOM     12  H   UNL     1      47.659   2.056   5.958  0.00  0.00    +0.000 HD
ENDBRANCH   9  10
ENDBRANCH   3   9
ENDBRANCH   2   7
ENDBRANCH   1   2
BRANCH   1  13
ATOM     13  O   UNL     1      43.480   3.864  12.455  0.00  0.00    +0.000 OA
BRANCH  13  14
ATOM     14  C   UNL     1      44.235   5.005  12.378  0.00  0.00    +0.000 A 
ATOM     15  C   UNL     1      43.863   6.196  11.750  0.00  0.00    +0.000 A 
ATOM     16  C   UNL     1      44.729   7.290  11.753  0.00  0.00    +0.000 A 
ATOM     17  C   UNL     1      45.964   7.201  12.392  0.00  0.00    +0.000 A 
ATOM     18  C   UNL     1      46.351   6.015  13.031  0.00  0.00    +0.000 A 
ATOM     19  C   UNL     1      45.484   4.916  13.008  0.00  0.00    +0.000 A 
BRANCH  18  20
ATOM     20  C   UNL     1      47.668   6.002  13.727  0.00  0.00    +0.000 C 
ATOM     21  N   UNL     1      47.697   5.798  15.078  0.00  0.00    +0.000 N 
ATOM     22  O   UNL     1      48.716   6.182  13.116  0.00  0.00    +0.000 OA
ATOM     23  H   UNL     1      46.891   5.666  15.667  0.00  0.00    +0.000 HD
ATOM     24  H   UNL     1      48.606   5.832  15.523  0.00  0.00    +0.000 HD
ENDBRANCH  18  20
ENDBRANCH  13  14
ENDBRANCH   1  13
TORSDOF 7
ENDMDL
MODEL 5
REMARK VINA RESULT:    -6.559      2.500      6.174
REMARK INTER + INTRA:          -9.746
REMARK INTER:                  -9.138
REMARK INTRA:                  -0.607
REMARK UNBOUND:                -0.694
REMARK  Name = 
REMARK  7 active torsions:
REMARK  status: ('A' for Active; 'I' for Inactive)
REMARK    1  A    between atoms: N_1  and  C_2
REMARK    2  A    between atoms: C_2  and  C_3
REMARK    3  A    between atoms: C_7  and  O_8
REMARK    4  A    between atoms: O_8  and  C_9
REMARK    5  A    between atoms: C_9  and  O_10
REMARK    6  A    between atoms: O_10  and  C_11
REMARK    7  A    between atoms: C_15  and  C_16
REMARK                            x       y       z     vdW  Elec       q    Type
REMARK                         _______ _______ _______ _____ _____    ______ ____
ROOT
ATOM      1  C   UNL     1      43.615   4.757  10.807  0.00  0.00    +0.000 C 
ENDROOT
BRANCH   1   2
ATOM      2  O   UNL     1      43.701   4.618   9.386  0.00  0.00    +0.000 OA
BRANCH   2   7
ATOM      3  C   UNL     1      46.325   3.047   7.405  0.00  0.00    +0.000 A 
ATOM      4  C   UNL     1      46.273   1.720   7.856  0.00  0.00    +0.000 A 
ATOM      5  C   UNL     1      45.352   1.339   8.827  0.00  0.00    +0.000 A 
ATOM      6  C   UNL     1      44.473   2.279   9.368  0.00  0.00    +0.000 A 
ATOM      7  C   UNL     1      44.507   3.606   8.934  0.00  0.00    +0.000 A 
ATOM      8  C   UNL     1      45.432   3.981   7.952  0.00  0.00    +0.000 A 
BRANCH   3   9
ATOM      9  C   UNL     1      47.351   3.464   6.382  0.00  0.00    +0.000 C 
BRANCH   9  10
ATOM     10  N   UNL     1      48.524   2.597   6.405  0.00  0.00    +0.000 NA
ATOM     11  H   UNL     1      49.119   2.823   5.611  0.00  0.00    +0.000 HD
ATOM     12  H   UNL     1      48.219   1.634   6.270  0.00  0.00    +0.000 HD
ENDBRANCH   9  10
ENDBRANCH   3   9
ENDBRANCH   2   7
ENDBRANCH   1   2
BRANCH   1  13
ATOM     13  O   UNL     1      44.216   5.987  11.225  0.00  0.00    +0.000 OA
BRANCH  13  14
ATOM     14  C   UNL     1      45.329   5.876  12.016  0.00  0.00    +0.000 A 
ATOM     15  C   UNL     1      45.490   4.997  13.089  0.00  0.00    +0.000 A 
ATOM     16  C   UNL     1      46.685   4.981  13.809  0.00  0.00    +0.000 A 
ATOM     17  C   UNL     1      47.727   5.836  13.453  0.00  0.00    +0.000 A 
ATOM     18  C   UNL     1      47.584   6.721  12.374  0.00  0.00    +0.000 A 
ATOM     19  C   UNL     1      46.374   6.742  11.669  0.00  0.00    +0.000 A 
BRANCH  18  20
ATOM     20  C   UNL     1      48.749   7.579  12.023  0.00  0.00    +0.000 C 
ATOM     21  N   UNL     1      50.010   7.103  12.250  0.00  0.00    +0.000 N 
ATOM     22  O   UNL     1      48.598   8.701  11.551  0.00  0.00    +0.000 OA
ATOM     23  H   UNL     1      50.233   6.209  12.656  0.00  0.00    +0.000 HD
ATOM     24  H   UNL     1      50.777   7.728  12.034  0.00  0.00    +0.000 HD
ENDBRANCH  18  20
ENDBRANCH  13  14
ENDBRANCH   1  13
TORSDOF 7
ENDMDL
MODEL 6
REMARK VINA RESULT:    -6.180      2.367      7.180
REMARK INTER + INTRA:          -9.222
REMARK INTER:                  -8.842
REMARK INTRA:                  -0.380
REMARK UNBOUND:                -0.694
REMARK  Name = 
REMARK  7 active torsions:
REMARK  status: ('A' for Active; 'I' for Inactive)
REMARK    1  A    between atoms: N_1  and  C_2
REMARK    2  A    between atoms: C_2  and  C_3
REMARK    3  A    between atoms: C_7  and  O_8
REMARK    4  A    between atoms: O_8  and  C_9
REMARK    5  A    between atoms: C_9  and  O_10
REMARK    6  A    between atoms: O_10  and  C_11
REMARK    7  A    between atoms: C_15  and  C_16
REMARK                            x       y       z     vdW  Elec       q    Type
REMARK                         _______ _______ _______ _____ _____    ______ ____
ROOT
ATOM      1  C   UNL     1      45.213   5.350   9.767  0.00  0.00    +0.000 C 
ENDROOT
BRANCH   1   2
ATOM      2  O   UNL     1      44.424   4.257   9.290  0.00  0.00    +0.000 OA
BRANCH   2   7
ATOM      3  C   UNL     1      46.589   2.657   6.833  0.00  0.00    +0.000 A 
ATOM      4  C   UNL     1      46.624   1.335   7.296  0.00  0.00    +0.000 A 
ATOM      5  C   UNL     1      45.917   0.964   8.437  0.00  0.00    +0.000 A 
ATOM      6  C   UNL     1      45.168   1.913   9.136  0.00  0.00    +0.000 A 
ATOM      7  C   UNL     1      45.119   3.237   8.693  0.00  0.00    +0.000 A 
ATOM      8  C   UNL     1      45.828   3.600   7.542  0.00  0.00    +0.000 A 
BRANCH   3   9
ATOM      9  C   UNL     1      47.389   3.062   5.621  0.00  0.00    +0.000 C 
BRANCH   9  10
ATOM     10  N   UNL     1      48.387   2.058   5.270  0.00  0.00    +0.000 NA
ATOM     11  H   UNL     1      48.347   1.887   4.268  0.00  0.00    +0.000 HD
ATOM     12  H   UNL     1      48.137   1.179   5.722  0.00  0.00    +0.000 HD
ENDBRANCH   9  10
ENDBRANCH   3   9
ENDBRANCH   2   7
ENDBRANCH   1   2
BRANCH   1  13
ATOM     13  O   UNL     1      45.342   5.289  11.191  0.00  0.00    +0.000 OA
BRANCH  13  14
ATOM     14  C   UNL     1      45.674   6.462  11.817  0.00  0.00    +0.000 A 
ATOM     15  C   UNL     1      46.670   6.624  12.783  0.00  0.00    +0.000 A 
ATOM     16  C   UNL     1      46.910   7.882  13.337  0.00  0.00    +0.000 A 
ATOM     17  C   UNL     1      46.164   8.983  12.921  0.00  0.00    +0.000 A 
ATOM     18  C   UNL     1      45.165   8.839  11.948  0.00  0.00    +0.000 A 
ATOM     19  C   UNL     1      44.918   7.569  11.411  0.00  0.00    +0.000 A 
BRANCH  18  20
ATOM     20  C   UNL     1      44.432  10.063  11.521  0.00  0.00    +0.000 C 
ATOM     21  N   UNL     1      43.357  10.477  12.256  0.00  0.00    +0.000 N 
ATOM     22  O   UNL     1      44.766  10.693  10.523  0.00  0.00    +0.000 OA
ATOM     23  H   UNL     1      42.993  10.014  13.072  0.00  0.00    +0.000 HD
ATOM     24  H   UNL     1      42.861  11.292  11.915  0.00  0.00    +0.000 HD
ENDBRANCH  18  20
ENDBRANCH  13  14
ENDBRANCH   1  13
TORSDOF 7
ENDMDL
MODEL 7
REMARK VINA RESULT:    -6.083      4.710      6.617
REMARK INTER + INTRA:          -9.088
REMARK INTER:                  -8.763
REMARK INTRA:                  -0.325
REMARK UNBOUND:                -0.694
REMARK  Name = 
REMARK  7 active torsions:
REMARK  status: ('A' for Active; 'I' for Inactive)
REMARK    1  A    between atoms: N_1  and  C_2
REMARK    2  A    between atoms: C_2  and  C_3
REMARK    3  A    between atoms: C_7  and  O_8
REMARK    4  A    between atoms: O_8  and  C_9
REMARK    5  A    between atoms: C_9  and  O_10
REMARK    6  A    between atoms: O_10  and  C_11
REMARK    7  A    between atoms: C_15  and  C_16
REMARK                            x       y       z     vdW  Elec       q    Type
REMARK                         _______ _______ _______ _____ _____    ______ ____
ROOT
ATOM      1  C   UNL     1      47.425   4.136  15.647  0.00  0.00    +0.000 C 
ENDROOT
BRANCH   1   2
ATOM      2  O   UNL     1      48.061   3.088  16.383  0.00  0.00    +0.000 OA
BRANCH   2   7
ATOM      3  C   UNL     1      51.426   2.532  17.669  0.00  0.00    +0.000 A 
ATOM      4  C   UNL     1      51.780   3.813  18.114  0.00  0.00    +0.000 A 
ATOM      5  C   UNL     1      50.891   4.877  17.991  0.00  0.00    +0.000 A 
ATOM      6  C   UNL     1      49.635   4.678  17.415  0.00  0.00    +0.000 A 
ATOM      7  C   UNL     1      49.260   3.410  16.964  0.00  0.00    +0.000 A 
ATOM      8  C   UNL     1      50.157   2.343  17.098  0.00  0.00    +0.000 A 
BRANCH   3   9
ATOM      9  C   UNL     1      52.407   1.391  17.768  0.00  0.00    +0.000 C 
BRANCH   9  10
ATOM     10  N   UNL     1      51.750   0.144  18.144  0.00  0.00    +0.000 NA
ATOM     11  H   UNL     1      52.419  -0.619  18.066  0.00  0.00    +0.000 HD
ATOM     12  H   UNL     1      51.012  -0.052  17.469  0.00  0.00    +0.000 HD
ENDBRANCH   9  10
ENDBRANCH   3   9
ENDBRANCH   2   7
ENDBRANCH   1   2
BRANCH   1  13
ATOM     13  O   UNL     1      46.627   3.592  14.591  0.00  0.00    +0.000 OA
BRANCH  13  14
ATOM     14  C   UNL     1      46.416   4.411  13.512  0.00  0.00    +0.000 A 
ATOM     15  C   UNL     1      47.095   5.600  13.239  0.00  0.00    +0.000 A 
ATOM     16  C   UNL     1      46.784   6.337  12.095  0.00  0.00    +0.000 A 
ATOM     17  C   UNL     1      45.802   5.882  11.216  0.00  0.00    +0.000 A 
ATOM     18  C   UNL     1      45.116   4.687  11.474  0.00  0.00    +0.000 A 
ATOM     19  C   UNL     1      45.421   3.964  12.633  0.00  0.00    +0.000 A 
BRANCH  18  20
ATOM     20  C   UNL     1      44.106   4.239  10.474  0.00  0.00    +0.000 C 
ATOM     21  N   UNL     1      44.210   4.688   9.187  0.00  0.00    +0.000 N 
ATOM     22  O   UNL     1      43.185   3.492  10.786  0.00  0.00    +0.000 OA
ATOM     23  H   UNL     1      44.913   5.321   8.843  0.00  0.00    +0.000 HD
ATOM     24  H   UNL     1      43.485   4.392   8.544  0.00  0.00    +0.000 HD
ENDBRANCH  18  20
ENDBRANCH  13  14
ENDBRANCH   1  13
TORSDOF 7
ENDMDL
MODEL 8
REMARK VINA RESULT:    -6.014      2.155      3.588
REMARK INTER + INTRA:          -8.994
REMARK INTER:                  -8.155
REMARK INTRA:                  -0.839
REMARK UNBOUND:                -0.694
REMARK  Name = 
REMARK  7 active torsions:
REMARK  status: ('A' for Active; 'I' for Inactive)
REMARK    1  A    between atoms: N_1  and  C_2
REMARK    2  A    between atoms: C_2  and  C_3
REMARK    3  A    between atoms: C_7  and  O_8
REMARK    4  A    between atoms: O_8  and  C_9
REMARK    5  A    between atoms: C_9  and  O_10
REMARK    6  A    between atoms: O_10  and  C_11
REMARK    7  A    between atoms: C_15  and  C_16
REMARK                            x       y       z     vdW  Elec       q    Type
REMARK                         _______ _______ _______ _____ _____    ______ ____
ROOT
ATOM      1  C   UNL     1      47.018   4.350  13.768  0.00  0.00    +0.000 C 
ENDROOT
BRANCH   1   2
ATOM      2  O   UNL     1      47.470   5.576  14.351  0.00  0.00    +0.000 OA
BRANCH   2   7
ATOM      3  C   UNL     1      46.813   8.555  12.357  0.00  0.00    +0.000 A 
ATOM      4  C   UNL     1      48.044   8.751  11.716  0.00  0.00    +0.000 A 
ATOM      5  C   UNL     1      49.108   7.882  11.944  0.00  0.00    +0.000 A 
ATOM      6  C   UNL     1      48.958   6.806  12.821  0.00  0.00    +0.000 A 
ATOM      7  C   UNL     1      47.740   6.591  13.470  0.00  0.00    +0.000 A 
ATOM      8  C   UNL     1      46.673   7.466  13.231  0.00  0.00    +0.000 A 
BRANCH   3   9
ATOM      9  C   UNL     1      45.677   9.521  12.138  0.00  0.00    +0.000 C 
BRANCH   9  10
ATOM     10  N   UNL     1      44.425   8.829  11.848  0.00  0.00    +0.000 NA
ATOM     11  H   UNL     1      43.863   9.407  11.227  0.00  0.00    +0.000 HD
ATOM     12  H   UNL     1      43.895   8.738  12.714  0.00  0.00    +0.000 HD
ENDBRANCH   9  10
ENDBRANCH   3   9
ENDBRANCH   2   7
ENDBRANCH   1   2
BRANCH   1  13
ATOM     13  O   UNL     1      45.624   4.160  14.024  0.00  0.00    +0.000 OA
BRANCH  13  14
ATOM     14  C   UNL     1      44.781   4.384  12.967  0.00  0.00    +0.000 A 
ATOM     15  C   UNL     1      43.669   5.229  12.969  0.00  0.00    +0.000 A 
ATOM     16  C   UNL     1      42.896   5.373  11.815  0.00  0.00    +0.000 A 
ATOM     17  C   UNL     1      43.238   4.681  10.655  0.00  0.00    +0.000 A 
ATOM     18  C   UNL     1      44.354   3.833  10.635  0.00  0.00    +0.000 A 
ATOM     19  C   UNL     1      45.113   3.681  11.802  0.00  0.00    +0.000 A 
BRANCH  18  20
ATOM     20  C   UNL     1      44.685   3.154   9.351  0.00  0.00    +0.000 C 
ATOM     21  N   UNL     1      44.360   3.772   8.176  0.00  0.00    +0.000 N 
ATOM     22  O   UNL     1      45.228   2.055   9.330  0.00  0.00    +0.000 OA
ATOM     23  H   UNL     1      43.891   4.660   8.092  0.00  0.00    +0.000 HD
ATOM     24  H   UNL     1      44.566   3.265   7.324  0.00  0.00    +0.000 HD
ENDBRANCH  18  20
ENDBRANCH  13  14
ENDBRANCH   1  13
TORSDOF 7
ENDMDL
MODEL 9
REMARK VINA RESULT:    -5.989      2.709      6.071
REMARK INTER + INTRA:          -8.959
REMARK INTER:                  -8.220
REMARK INTRA:                  -0.739
REMARK UNBOUND:                -0.694
REMARK  Name = 
REMARK  7 active torsions:
REMARK  status: ('A' for Active; 'I' for Inactive)
REMARK    1  A    between atoms: N_1  and  C_2
REMARK    2  A    between atoms: C_2  and  C_3
REMARK    3  A    between atoms: C_7  and  O_8
REMARK    4  A    between atoms: O_8  and  C_9
REMARK    5  A    between atoms: C_9  and  O_10
REMARK    6  A    between atoms: O_10  and  C_11
REMARK    7  A    between atoms: C_15  and  C_16
REMARK                            x       y       z     vdW  Elec       q    Type
REMARK                         _______ _______ _______ _____ _____    ______ ____
ROOT
ATOM      1  C   UNL     1      46.798   4.628  14.269  0.00  0.00    +0.000 C 
ENDROOT
BRANCH   1   2
ATOM      2  O   UNL     1      46.025   3.590  13.660  0.00  0.00    +0.000 OA
BRANCH   2   7
ATOM      3  C   UNL     1      44.184   4.098  10.556  0.00  0.00    +0.000 A 
ATOM      4  C   UNL     1      43.029   4.749  11.009  0.00  0.00    +0.000 A 
ATOM      5  C   UNL     1      42.857   5.029  12.362  0.00  0.00    +0.000 A 
ATOM      6  C   UNL     1      43.836   4.656  13.284  0.00  0.00    +0.000 A 
ATOM      7  C   UNL     1      44.996   4.006  12.856  0.00  0.00    +0.000 A 
ATOM      8  C   UNL     1      45.164   3.734  11.493  0.00  0.00    +0.000 A 
BRANCH   3   9
ATOM      9  C   UNL     1      44.348   3.761   9.095  0.00  0.00    +0.000 C 
BRANCH   9  10
ATOM     10  N   UNL     1      45.295   4.654   8.437  0.00  0.00    +0.000 NA
ATOM     11  H   UNL     1      44.804   5.192   7.726  0.00  0.00    +0.000 HD
ATOM     12  H   UNL     1      45.986   4.090   7.944  0.00  0.00    +0.000 HD
ENDBRANCH   9  10
ENDBRANCH   3   9
ENDBRANCH   2   7
ENDBRANCH   1   2
BRANCH   1  13
ATOM     13  O   UNL     1      47.840   5.057  13.387  0.00  0.00    +0.000 OA
BRANCH  13  14
ATOM     14  C   UNL     1      47.837   6.385  13.050  0.00  0.00    +0.000 A 
ATOM     15  C   UNL     1      48.959   7.211  12.955  0.00  0.00    +0.000 A 
ATOM     16  C   UNL     1      48.814   8.551  12.592  0.00  0.00    +0.000 A 
ATOM     17  C   UNL     1      47.549   9.066  12.314  0.00  0.00    +0.000 A 
ATOM     18  C   UNL     1      46.413   8.249  12.399  0.00  0.00    +0.000 A 
ATOM     19  C   UNL     1      46.566   6.911  12.781  0.00  0.00    +0.000 A 
BRANCH  18  20
ATOM     20  C   UNL     1      45.098   8.854  12.050  0.00  0.00    +0.000 C 
ATOM     21  N   UNL     1      44.794  10.094  12.535  0.00  0.00    +0.000 N 
ATOM     22  O   UNL     1      44.285   8.257  11.352  0.00  0.00    +0.000 OA
ATOM     23  H   UNL     1      45.383  10.649  13.134  0.00  0.00    +0.000 HD
ATOM     24  H   UNL     1      43.876  10.458  12.308  0.00  0.00    +0.000 HD
ENDBRANCH  18  20
ENDBRANCH  13  14
ENDBRANCH   1  13
TORSDOF 7
ENDMDL
