MODEL 1
REMARK VINA RESULT:    -8.022      0.000      0.000
REMARK INTER + INTRA:         -11.290
REMARK INTER:                 -10.367
REMARK INTRA:                  -0.923
REMARK UNBOUND:                -0.923
REMARK  Name = 
REMARK  5 active torsions:
REMARK  status: ('A' for Active; 'I' for Inactive)
REMARK    1  A    between atoms: C_2  and  C_4
REMARK    2  A    between atoms: C_8  and  C_9
REMARK    3  A    between atoms: C_9  and  C_10
REMARK    4  A    between atoms: C_10  and  C_11
REMARK    5  A    between atoms: C_16  and  N_17
REMARK                            x       y       z     vdW  Elec       q    Type
REMARK                         _______ _______ _______ _____ _____    ______ ____
ROOT
ATOM      1  C   UNL     1      43.559   3.997  11.427  0.00  0.00    +0.000 C 
ENDROOT
BRANCH   1   2
ATOM      2  C   UNL     1      44.728   4.439  12.285  0.00  0.00    +0.000 A 
ATOM      3  C   UNL     1      45.583   3.526  12.908  0.00  0.00    +0.000 A 
ATOM      4  C   UNL     1      46.671   3.983  13.634  0.00  0.00    +0.000 A 
ATOM      5  F   UNL     1      47.472   3.097  14.241  0.00  0.00    +0.000 F 
ATOM      6  C   UNL     1      46.947   5.338  13.740  0.00  0.00    +0.000 A 
ATOM      7  C   UNL     1      46.133   6.295  13.119  0.00  0.00    +0.000 A 
ATOM      8  C   UNL     1      45.020   5.815  12.403  0.00  0.00    +0.000 A 
BRANCH   7   9
ATOM      9  N   UNL     1      46.430   7.638  13.225  0.00  0.00    +0.000 N 
ATOM     10  C   UNL     1      45.457   8.712  12.980  0.00  0.00    +0.000 C 
ATOM     11  C   UNL     1      45.897   9.565  11.783  0.00  0.00    +0.000 C 
ATOM     12  O   UNL     1      47.228  10.080  11.968  0.00  0.00    +0.000 OA
ATOM     13  C   UNL     1      48.163   8.997  12.112  0.00  0.00    +0.000 C 
ATOM     14  C   UNL     1      47.827   8.101  13.315  0.00  0.00    +0.000 C 
ENDBRANCH   7   9
ENDBRANCH   1   2
BRANCH   1  15
ATOM     15  C   UNL     1      43.825   2.759  10.559  0.00  0.00    +0.000 C 
BRANCH  15  20
ATOM     16  C   UNL     1      46.434   2.236   7.829  0.00  0.00    +0.000 A 
ATOM     17  C   UNL     1      46.625   3.546   7.376  0.00  0.00    +0.000 A 
ATOM     18  C   UNL     1      45.911   4.596   7.956  0.00  0.00    +0.000 A 
ATOM     19  C   UNL     1      45.004   4.339   8.984  0.00  0.00    +0.000 A 
ATOM     20  C   UNL     1      44.800   3.031   9.443  0.00  0.00    +0.000 A 
ATOM     21  C   UNL     1      45.512   1.980   8.851  0.00  0.00    +0.000 A 
BRANCH  16  23
ATOM     22  N   UNL     1      46.790  -0.167   7.645  0.00  0.00    +0.000 N 
ATOM     23  C   UNL     1      47.172   1.085   7.248  0.00  0.00    +0.000 C 
ATOM     24  O   UNL     1      48.058   1.240   6.417  0.00  0.00    +0.000 OA
ATOM     25  H   UNL     1      47.218  -0.938   7.151  0.00  0.00    +0.000 HD
ATOM     26  H   UNL     1      45.911  -0.338   8.108  0.00  0.00    +0.000 HD
ENDBRANCH  16  23
ENDBRANCH  15  20
ENDBRANCH   1  15
TORSDOF 5
ENDMDL
MODEL 2
REMARK VINA RESULT:    -7.631      2.303      3.165
REMARK INTER + INTRA:         -10.784
REMARK INTER:                 -10.387
REMARK INTRA:                  -0.397
REMARK UNBOUND:                -0.923
REMARK  Name = 
REMARK  5 active torsions:
REMARK  status: ('A' for Active; 'I' for Inactive)
REMARK    1  A    between atoms: C_2  and  C_4
REMARK    2  A    between atoms: C_8  and  C_9
REMARK    3  A    between atoms: C_9  and  C_10
REMARK    4  A    between atoms: C_10  and  C_11
REMARK    5  A    between atoms: C_16  and  N_17
REMARK                            x       y       z     vdW  Elec       q    Type
REMARK                         _______ _______ _______ _____ _____    ______ ____
ROOT
ATOM      1  C   UNL     1      43.298   4.103  11.218  0.00  0.00    +0.000 C 
ENDROOT
BRANCH   1   2
ATOM      2  C   UNL     1      44.275   5.131  11.752  0.00  0.00    +0.000 A 
ATOM      3  C   UNL     1      44.094   6.503  11.557  0.00  0.00    +0.000 A 
ATOM      4  C   UNL     1      44.986   7.404  12.117  0.00  0.00    +0.000 A 
ATOM      5  F   UNL     1      44.811   8.715  11.906  0.00  0.00    +0.000 F 
ATOM      6  C   UNL     1      46.052   6.973  12.892  0.00  0.00    +0.000 A 
ATOM      7  C   UNL     1      46.268   5.610  13.136  0.00  0.00    +0.000 A 
ATOM      8  C   UNL     1      45.365   4.707  12.542  0.00  0.00    +0.000 A 
BRANCH   7   9
ATOM      9  N   UNL     1      47.327   5.200  13.919  0.00  0.00    +0.000 N 
ATOM     10  C   UNL     1      47.333   3.954  14.697  0.00  0.00    +0.000 C 
ATOM     11  C   UNL     1      47.429   4.264  16.197  0.00  0.00    +0.000 C 
ATOM     12  O   UNL     1      48.574   5.084  16.490  0.00  0.00    +0.000 OA
ATOM     13  C   UNL     1      48.485   6.332  15.782  0.00  0.00    +0.000 C 
ATOM     14  C   UNL     1      48.421   6.127  14.258  0.00  0.00    +0.000 C 
ENDBRANCH   7   9
ENDBRANCH   1   2
BRANCH   1  15
ATOM     15  C   UNL     1      43.940   2.808  10.699  0.00  0.00    +0.000 C 
BRANCH  15  20
ATOM     16  C   UNL     1      46.373   2.194   7.829  0.00  0.00    +0.000 A 
ATOM     17  C   UNL     1      46.500   3.481   7.295  0.00  0.00    +0.000 A 
ATOM     18  C   UNL     1      45.800   4.545   7.866  0.00  0.00    +0.000 A 
ATOM     19  C   UNL     1      44.971   4.325   8.965  0.00  0.00    +0.000 A 
ATOM     20  C   UNL     1      44.831   3.040   9.506  0.00  0.00    +0.000 A 
ATOM     21  C   UNL     1      45.528   1.974   8.924  0.00  0.00    +0.000 A 
BRANCH  16  23
ATOM     22  N   UNL     1      46.706  -0.214   7.672  0.00  0.00    +0.000 N 
ATOM     23  C   UNL     1      47.100   1.029   7.261  0.00  0.00    +0.000 C 
ATOM     24  O   UNL     1      47.986   1.166   6.428  0.00  0.00    +0.000 OA
ATOM     25  H   UNL     1      47.126  -0.995   7.186  0.00  0.00    +0.000 HD
ATOM     26  H   UNL     1      45.825  -0.372   8.138  0.00  0.00    +0.000 HD
ENDBRANCH  16  23
ENDBRANCH  15  20
ENDBRANCH   1  15
TORSDOF 5
ENDMDL
MODEL 3
REMARK VINA RESULT:    -7.510      1.518      2.201
REMARK INTER + INTRA:         -10.627
REMARK INTER:                  -9.585
REMARK INTRA:                  -1.042
REMARK UNBOUND:                -0.923
REMARK  Name = 
REMARK  5 active torsions:
REMARK  status: ('A' for Active; 'I' for Inactive)
REMARK    1  A    between atoms: C_2  and  C_4
REMARK    2  A    between atoms: C_8  and  C_9
REMARK    3  A    between atoms: C_9  and  C_10
REMARK    4  A    between atoms: C_10  and  C_11
REMARK    5  A    between atoms: C_16  and  N_17
REMARK                            x       y       z     vdW  Elec       q    Type
REMARK                         _______ _______ _______ _____ _____    ______ ____
ROOT
ATOM      1  C   UNL     1      43.979   4.685  10.832  0.00  0.00    +0.000 C 
ENDROOT
BRANCH   1   2
ATOM      2  C   UNL     1      45.141   5.053  11.733  0.00  0.00    +0.000 A 
ATOM      3  C   UNL     1      45.546   4.243  12.797  0.00  0.00    +0.000 A 
ATOM      4  C   UNL     1      46.651   4.597  13.554  0.00  0.00    +0.000 A 
ATOM      5  F   UNL     1      47.016   3.820  14.582  0.00  0.00    +0.000 F 
ATOM      6  C   UNL     1      47.387   5.737  13.263  0.00  0.00    +0.000 A 
ATOM      7  C   UNL     1      47.037   6.573  12.195  0.00  0.00    +0.000 A 
ATOM      8  C   UNL     1      45.898   6.211  11.450  0.00  0.00    +0.000 A 
BRANCH   7   9
ATOM      9  N   UNL     1      47.787   7.696  11.913  0.00  0.00    +0.000 N 
ATOM     10  C   UNL     1      49.189   7.654  11.475  0.00  0.00    +0.000 C 
ATOM     11  C   UNL     1      50.090   8.336  12.513  0.00  0.00    +0.000 C 
ATOM     12  O   UNL     1      49.653   9.680  12.784  0.00  0.00    +0.000 OA
ATOM     13  C   UNL     1      48.311   9.672  13.296  0.00  0.00    +0.000 C 
ATOM     14  C   UNL     1      47.319   9.038  12.306  0.00  0.00    +0.000 C 
ENDBRANCH   7   9
ENDBRANCH   1   2
BRANCH   1  15
ATOM     15  C   UNL     1      44.267   4.787   9.328  0.00  0.00    +0.000 C 
BRANCH  15  20
ATOM     16  C   UNL     1      46.515   2.550   7.212  0.00  0.00    +0.000 A 
ATOM     17  C   UNL     1      46.265   1.295   7.778  0.00  0.00    +0.000 A 
ATOM     18  C   UNL     1      45.370   1.175   8.842  0.00  0.00    +0.000 A 
ATOM     19  C   UNL     1      44.726   2.305   9.343  0.00  0.00    +0.000 A 
ATOM     20  C   UNL     1      44.971   3.569   8.788  0.00  0.00    +0.000 A 
ATOM     21  C   UNL     1      45.878   3.685   7.728  0.00  0.00    +0.000 A 
BRANCH  16  23
ATOM     22  N   UNL     1      48.784   2.524   6.327  0.00  0.00    +0.000 N 
ATOM     23  C   UNL     1      47.455   2.730   6.077  0.00  0.00    +0.000 C 
ATOM     24  O   UNL     1      47.063   3.010   4.951  0.00  0.00    +0.000 OA
ATOM     25  H   UNL     1      49.393   2.531   5.520  0.00  0.00    +0.000 HD
ATOM     26  H   UNL     1      49.106   2.042   7.153  0.00  0.00    +0.000 HD
ENDBRANCH  16  23
ENDBRANCH  15  20
ENDBRANCH   1  15
TORSDOF 5
ENDMDL
MODEL 4
REMARK VINA RESULT:    -7.295      1.970      2.537
REMARK INTER + INTRA:         -10.350
REMARK INTER:                  -9.788
REMARK INTRA:                  -0.562
REMARK UNBOUND:                -0.923
REMARK  Name = 
REMARK  5 active torsions:
REMARK  status: ('A' for Active; 'I' for Inactive)
REMARK    1  A    between atoms: C_2  and  C_4
REMARK    2  A    between atoms: C_8  and  C_9
REMARK    3  A    between atoms: C_9  and  C_10
REMARK    4  A    between atoms: C_10  and  C_11
REMARK    5  A    between atoms: C_16  and  N_17
REMARK                            x       y       z     vdW  Elec       q    Type
REMARK                         _______ _______ _______ _____ _____    ______ ____
ROOT
ATOM      1  C   UNL     1      44.700   3.322  12.006  0.00  0.00    +0.000 C 
ENDROOT
BRANCH   1   2
ATOM      2  C   UNL     1      45.206   4.745  12.131  0.00  0.00    +0.000 A 
ATOM      3  C   UNL     1      44.437   5.847  11.745  0.00  0.00    +0.000 A 
ATOM      4  C   UNL     1      44.924   7.130  11.934  0.00  0.00    +0.000 A 
ATOM      5  F   UNL     1      44.184   8.175  11.542  0.00  0.00    +0.000 F 
ATOM      6  C   UNL     1      46.160   7.350  12.525  0.00  0.00    +0.000 A 
ATOM      7  C   UNL     1      46.963   6.282  12.948  0.00  0.00    +0.000 A 
ATOM      8  C   UNL     1      46.462   4.984  12.728  0.00  0.00    +0.000 A 
BRANCH   7   9
ATOM      9  N   UNL     1      48.184   6.520  13.544  0.00  0.00    +0.000 N 
ATOM     10  C   UNL     1      48.411   6.459  14.994  0.00  0.00    +0.000 C 
ATOM     11  C   UNL     1      48.824   7.838  15.527  0.00  0.00    +0.000 C 
ATOM     12  O   UNL     1      49.972   8.347  14.825  0.00  0.00    +0.000 OA
ATOM     13  C   UNL     1      49.679   8.479  13.424  0.00  0.00    +0.000 C 
ATOM     14  C   UNL     1      49.289   7.135  12.787  0.00  0.00    +0.000 C 
ENDBRANCH   7   9
ENDBRANCH   1   2
BRANCH   1  15
ATOM     15  C   UNL     1      43.993   3.000  10.681  0.00  0.00    +0.000 C 
BRANCH  15  20
ATOM     16  C   UNL     1      46.431   2.198   7.862  0.00  0.00    +0.000 A 
ATOM     17  C   UNL     1      46.595   3.458   7.274  0.00  0.00    +0.000 A 
ATOM     18  C   UNL     1      45.918   4.563   7.792  0.00  0.00    +0.000 A 
ATOM     19  C   UNL     1      45.076   4.413   8.892  0.00  0.00    +0.000 A 
ATOM     20  C   UNL     1      44.899   3.157   9.487  0.00  0.00    +0.000 A 
ATOM     21  C   UNL     1      45.572   2.049   8.958  0.00  0.00    +0.000 A 
BRANCH  16  23
ATOM     22  N   UNL     1      46.622  -0.225   7.711  0.00  0.00    +0.000 N 
ATOM     23  C   UNL     1      47.131   0.992   7.352  0.00  0.00    +0.000 C 
ATOM     24  O   UNL     1      48.099   1.075   6.606  0.00  0.00    +0.000 OA
ATOM     25  H   UNL     1      47.035  -1.029   7.258  0.00  0.00    +0.000 HD
ATOM     26  H   UNL     1      45.693  -0.327   8.091  0.00  0.00    +0.000 HD
ENDBRANCH  16  23
ENDBRANCH  15  20
ENDBRANCH   1  15
TORSDOF 5
ENDMDL
MODEL 5
REMARK VINA RESULT:    -7.274      2.921      4.071
REMARK INTER + INTRA:         -10.322
REMARK INTER:                  -9.443
REMARK INTRA:                  -0.880
REMARK UNBOUND:                -0.923
REMARK  Name = 
REMARK  5 active torsions:
REMARK  status: ('A' for Active; 'I' for Inactive)
REMARK    1  A    between atoms: C_2  and  C_4
REMARK    2  A    between atoms: C_8  and  C_9
REMARK    3  A    between atoms: C_9  and  C_10
REMARK    4  A    between atoms: C_10  and  C_11
REMARK    5  A    between atoms: C_16  and  N_17
REMARK                            x       y       z     vdW  Elec       q    Type
REMARK                         _______ _______ _______ _____ _____    ______ ____
ROOT
ATOM      1  C   UNL     1      44.903   5.240  11.499  0.00  0.00    +0.000 C 
ENDROOT
BRANCH   1   2
ATOM      2  C   UNL     1      46.148   5.638  12.267  0.00  0.00    +0.000 A 
ATOM      3  C   UNL     1      47.089   6.532  11.750  0.00  0.00    +0.000 A 
ATOM      4  C   UNL     1      48.180   6.908  12.518  0.00  0.00    +0.000 A 
ATOM      5  F   UNL     1      49.084   7.751  12.002  0.00  0.00    +0.000 F 
ATOM      6  C   UNL     1      48.349   6.430  13.809  0.00  0.00    +0.000 A 
ATOM      7  C   UNL     1      47.424   5.548  14.384  0.00  0.00    +0.000 A 
ATOM      8  C   UNL     1      46.334   5.159  13.582  0.00  0.00    +0.000 A 
BRANCH   7   9
ATOM      9  N   UNL     1      47.602   5.093  15.673  0.00  0.00    +0.000 N 
ATOM     10  C   UNL     1      48.477   5.745  16.657  0.00  0.00    +0.000 C 
ATOM     11  C   UNL     1      49.621   4.805  17.059  0.00  0.00    +0.000 C 
ATOM     12  O   UNL     1      49.119   3.545  17.540  0.00  0.00    +0.000 OA
ATOM     13  C   UNL     1      48.346   2.896  16.517  0.00  0.00    +0.000 C 
ATOM     14  C   UNL     1      47.146   3.749  16.072  0.00  0.00    +0.000 C 
ENDBRANCH   7   9
ENDBRANCH   1   2
BRANCH   1  15
ATOM     15  C   UNL     1      45.010   5.385   9.974  0.00  0.00    +0.000 C 
BRANCH  15  20
ATOM     16  C   UNL     1      46.375   2.815   7.511  0.00  0.00    +0.000 A 
ATOM     17  C   UNL     1      45.802   1.635   7.998  0.00  0.00    +0.000 A 
ATOM     18  C   UNL     1      44.973   1.674   9.120  0.00  0.00    +0.000 A 
ATOM     19  C   UNL     1      44.720   2.887   9.759  0.00  0.00    +0.000 A 
ATOM     20  C   UNL     1      45.292   4.075   9.285  0.00  0.00    +0.000 A 
ATOM     21  C   UNL     1      46.130   4.029   8.164  0.00  0.00    +0.000 A 
BRANCH  16  23
ATOM     22  N   UNL     1      48.582   2.537   6.517  0.00  0.00    +0.000 N 
ATOM     23  C   UNL     1      47.260   2.828   6.318  0.00  0.00    +0.000 C 
ATOM     24  O   UNL     1      46.826   3.047   5.195  0.00  0.00    +0.000 OA
ATOM     25  H   UNL     1      49.143   2.431   5.682  0.00  0.00    +0.000 HD
ATOM     26  H   UNL     1      48.914   2.099   7.363  0.00  0.00    +0.000 HD
ENDBRANCH  16  23
ENDBRANCH  15  20
ENDBRANCH   1  15
TORSDOF 5
ENDMDL
MODEL 6
REMARK VINA RESULT:    -6.873      3.653      7.327
REMARK INTER + INTRA:          -9.804
REMARK INTER:                  -8.751
REMARK INTRA:                  -1.053
REMARK UNBOUND:                -0.923
REMARK  Name = 
REMARK  5 active torsions:
REMARK  status: ('A' for Active; 'I' for Inactive)
REMARK    1  A    between atoms: C_2  and  C_4
REMARK    2  A    between atoms: C_8  and  C_9
REMARK    3  A    between atoms: C_9  and  C_10
REMARK    4  A    between atoms: C_10  and  C_11
REMARK    5  A    between atoms: C_16  and  N_17
REMARK                            x       y       z     vdW  Elec       q    Type
REMARK                         _______ _______ _______ _____ _____    ______ ____
ROOT
ATOM      1  C   UNL     1      48.731   6.952  12.985  0.00  0.00    +0.000 C 
ENDROOT
BRANCH   1   2
ATOM      2  C   UNL     1      47.309   7.272  12.572  0.00  0.00    +0.000 A 
ATOM      3  C   UNL     1      46.750   8.541  12.742  0.00  0.00    +0.000 A 
ATOM      4  C   UNL     1      45.464   8.796  12.294  0.00  0.00    +0.000 A 
ATOM      5  F   UNL     1      44.934  10.012  12.481  0.00  0.00    +0.000 F 
ATOM      6  C   UNL     1      44.718   7.817  11.654  0.00  0.00    +0.000 A 
ATOM      7  C   UNL     1      45.237   6.533  11.440  0.00  0.00    +0.000 A 
ATOM      8  C   UNL     1      46.537   6.285  11.921  0.00  0.00    +0.000 A 
BRANCH   7   9
ATOM      9  N   UNL     1      44.486   5.575  10.791  0.00  0.00    +0.000 N 
ATOM     10  C   UNL     1      43.143   5.161  11.220  0.00  0.00    +0.000 C 
ATOM     11  C   UNL     1      43.147   3.682  11.627  0.00  0.00    +0.000 C 
ATOM     12  O   UNL     1      43.653   2.849  10.569  0.00  0.00    +0.000 OA
ATOM     13  C   UNL     1      45.001   3.225  10.242  0.00  0.00    +0.000 C 
ATOM     14  C   UNL     1      45.096   4.690   9.783  0.00  0.00    +0.000 C 
ENDBRANCH   7   9
ENDBRANCH   1   2
BRANCH   1  15
ATOM     15  C   UNL     1      49.208   7.655  14.264  0.00  0.00    +0.000 C 
BRANCH  15  20
ATOM     16  C   UNL     1      48.047   4.880  16.606  0.00  0.00    +0.000 A 
ATOM     17  C   UNL     1      48.092   5.529  17.845  0.00  0.00    +0.000 A 
ATOM     18  C   UNL     1      48.496   6.862  17.920  0.00  0.00    +0.000 A 
ATOM     19  C   UNL     1      48.858   7.548  16.761  0.00  0.00    +0.000 A 
ATOM     20  C   UNL     1      48.823   6.909  15.515  0.00  0.00    +0.000 A 
ATOM     21  C   UNL     1      48.426   5.567  15.446  0.00  0.00    +0.000 A 
BRANCH  16  23
ATOM     22  N   UNL     1      46.973   2.903  17.538  0.00  0.00    +0.000 N 
ATOM     23  C   UNL     1      47.621   3.463  16.472  0.00  0.00    +0.000 C 
ATOM     24  O   UNL     1      47.800   2.830  15.440  0.00  0.00    +0.000 OA
ATOM     25  H   UNL     1      46.583   1.982  17.386  0.00  0.00    +0.000 HD
ATOM     26  H   UNL     1      46.579   3.460  18.281  0.00  0.00    +0.000 HD
ENDBRANCH  16  23
ENDBRANCH  15  20
ENDBRANCH   1  15
TORSDOF 5
ENDMDL
MODEL 7
REMARK VINA RESULT:    -6.727      3.430      5.216
REMARK INTER + INTRA:          -9.616
REMARK INTER:                  -8.707
REMARK INTRA:                  -0.909
REMARK UNBOUND:                -0.923
REMARK  Name = 
REMARK  5 active torsions:
REMARK  status: ('A' for Active; 'I' for Inactive)
REMARK    1  A    between atoms: C_2  and  C_4
REMARK    2  A    between atoms: C_8  and  C_9
REMARK    3  A    between atoms: C_9  and  C_10
REMARK    4  A    between atoms: C_10  and  C_11
REMARK    5  A    between atoms: C_16  and  N_17
REMARK                            x       y       z     vdW  Elec       q    Type
REMARK                         _______ _______ _______ _____ _____    ______ ____
ROOT
ATOM      1  C   UNL     1      47.041   6.918  11.727  0.00  0.00    +0.000 C 
ENDROOT
BRANCH   1   2
ATOM      2  C   UNL     1      47.998   6.911  12.903  0.00  0.00    +0.000 A 
ATOM      3  C   UNL     1      49.152   7.699  12.931  0.00  0.00    +0.000 A 
ATOM      4  C   UNL     1      49.962   7.699  14.055  0.00  0.00    +0.000 A 
ATOM      5  F   UNL     1      51.074   8.445  14.059  0.00  0.00    +0.000 F 
ATOM      6  C   UNL     1      49.639   6.946  15.174  0.00  0.00    +0.000 A 
ATOM      7  C   UNL     1      48.483   6.154  15.207  0.00  0.00    +0.000 A 
ATOM      8  C   UNL     1      47.683   6.148  14.048  0.00  0.00    +0.000 A 
BRANCH   7   9
ATOM      9  N   UNL     1      48.172   5.420  16.332  0.00  0.00    +0.000 N 
ATOM     10  C   UNL     1      48.806   5.624  17.642  0.00  0.00    +0.000 C 
ATOM     11  C   UNL     1      49.582   4.367  18.059  0.00  0.00    +0.000 C 
ATOM     12  O   UNL     1      48.738   3.202  18.047  0.00  0.00    +0.000 OA
ATOM     13  C   UNL     1      48.211   2.984  16.728  0.00  0.00    +0.000 C 
ATOM     14  C   UNL     1      47.380   4.180  16.233  0.00  0.00    +0.000 C 
ENDBRANCH   7   9
ENDBRANCH   1   2
BRANCH   1  15
ATOM     15  C   UNL     1      45.553   6.924  12.103  0.00  0.00    +0.000 C 
BRANCH  15  20
ATOM     16  C   UNL     1      44.496   3.641  10.478  0.00  0.00    +0.000 A 
ATOM     17  C   UNL     1      43.645   3.112  11.455  0.00  0.00    +0.000 A 
ATOM     18  C   UNL     1      43.413   3.819  12.636  0.00  0.00    +0.000 A 
ATOM     19  C   UNL     1      44.032   5.051  12.844  0.00  0.00    +0.000 A 
ATOM     20  C   UNL     1      44.891   5.590  11.877  0.00  0.00    +0.000 A 
ATOM     21  C   UNL     1      45.128   4.871  10.698  0.00  0.00    +0.000 A 
BRANCH  16  23
ATOM     22  N   UNL     1      44.311   3.508   8.053  0.00  0.00    +0.000 N 
ATOM     23  C   UNL     1      44.772   2.930   9.204  0.00  0.00    +0.000 C 
ATOM     24  O   UNL     1      45.421   1.892   9.171  0.00  0.00    +0.000 OA
ATOM     25  H   UNL     1      44.612   3.077   7.190  0.00  0.00    +0.000 HD
ATOM     26  H   UNL     1      44.017   4.472   8.018  0.00  0.00    +0.000 HD
ENDBRANCH  16  23
ENDBRANCH  15  20
ENDBRANCH   1  15
TORSDOF 5
ENDMDL
MODEL 8
REMARK VINA RESULT:    -6.293      3.177      6.994
REMARK INTER + INTRA:          -9.056
REMARK INTER:                  -8.021
REMARK INTRA:                  -1.035
REMARK UNBOUND:                -0.923
REMARK  Name = 
REMARK  5 active torsions:
REMARK  status: ('A' for Active; 'I' for Inactive)
REMARK    1  A    between atoms: C_2  and  C_4
REMARK    2  A    between atoms: C_8  and  C_9
REMARK    3  A    between atoms: C_9  and  C_10
REMARK    4  A    between atoms: C_10  and  C_11
REMARK    5  A    between atoms: C_16  and  N_17
REMARK                            x       y       z     vdW  Elec       q    Type
REMARK                         _______ _______ _______ _____ _____    ______ ____
ROOT
ATOM      1  C   UNL     1      48.309   7.963  11.721  0.00  0.00    +0.000 C 
ENDROOT
BRANCH   1   2
ATOM      2  C   UNL     1      47.817   6.882  12.663  0.00  0.00    +0.000 A 
ATOM      3  C   UNL     1      48.397   6.664  13.916  0.00  0.00    +0.000 A 
ATOM      4  C   UNL     1      47.871   5.702  14.762  0.00  0.00    +0.000 A 
ATOM      5  F   UNL     1      48.449   5.491  15.952  0.00  0.00    +0.000 F 
ATOM      6  C   UNL     1      46.758   4.957  14.401  0.00  0.00    +0.000 A 
ATOM      7  C   UNL     1      46.127   5.148  13.165  0.00  0.00    +0.000 A 
ATOM      8  C   UNL     1      46.687   6.115  12.308  0.00  0.00    +0.000 A 
BRANCH   7   9
ATOM      9  N   UNL     1      45.014   4.406  12.827  0.00  0.00    +0.000 N 
ATOM     10  C   UNL     1      45.073   3.120  12.120  0.00  0.00    +0.000 C 
ATOM     11  C   UNL     1      44.380   3.230  10.755  0.00  0.00    +0.000 C 
ATOM     12  O   UNL     1      43.029   3.706  10.891  0.00  0.00    +0.000 OA
ATOM     13  C   UNL     1      43.020   5.007  11.502  0.00  0.00    +0.000 C 
ATOM     14  C   UNL     1      43.663   4.992  12.900  0.00  0.00    +0.000 C 
ENDBRANCH   7   9
ENDBRANCH   1   2
BRANCH   1  15
ATOM     15  C   UNL     1      48.461   9.354  12.353  0.00  0.00    +0.000 C 
BRANCH  15  20
ATOM     16  C   UNL     1      44.946  10.543  11.478  0.00  0.00    +0.000 A 
ATOM     17  C   UNL     1      45.108  11.933  11.515  0.00  0.00    +0.000 A 
ATOM     18  C   UNL     1      46.355  12.481  11.821  0.00  0.00    +0.000 A 
ATOM     19  C   UNL     1      47.437  11.646  12.094  0.00  0.00    +0.000 A 
ATOM     20  C   UNL     1      47.287  10.253  12.065  0.00  0.00    +0.000 A 
ATOM     21  C   UNL     1      46.032   9.708  11.767  0.00  0.00    +0.000 A 
BRANCH  16  23
ATOM     22  N   UNL     1      43.623   8.548  11.028  0.00  0.00    +0.000 N 
ATOM     23  C   UNL     1      43.642   9.910  11.154  0.00  0.00    +0.000 C 
ATOM     24  O   UNL     1      42.615  10.567  11.044  0.00  0.00    +0.000 OA
ATOM     25  H   UNL     1      42.710   8.126  10.929  0.00  0.00    +0.000 HD
ATOM     26  H   UNL     1      44.373   7.967  11.369  0.00  0.00    +0.000 HD
ENDBRANCH  16  23
ENDBRANCH  15  20
ENDBRANCH   1  15
TORSDOF 5
ENDMDL
MODEL 9
REMARK VINA RESULT:    -6.050      4.188      6.408
REMARK INTER + INTRA:          -8.741
REMARK INTER:                  -7.648
REMARK INTRA:                  -1.093
REMARK UNBOUND:                -0.923
REMARK  Name = 
REMARK  5 active torsions:
REMARK  status: ('A' for Active; 'I' for Inactive)
REMARK    1  A    between atoms: C_2  and  C_4
REMARK    2  A    between atoms: C_8  and  C_9
REMARK    3  A    between atoms: C_9  and  C_10
REMARK    4  A    between atoms: C_10  and  C_11
REMARK    5  A    between atoms: C_16  and  N_17
REMARK                            x       y       z     vdW  Elec       q    Type
REMARK                         _______ _______ _______ _____ _____    ______ ____
ROOT
ATOM      1  C   UNL     1      49.317   7.364  12.910  0.00  0.00    +0.000 C 
ENDROOT
BRANCH   1   2
ATOM      2  C   UNL     1      49.086   7.622  14.386  0.00  0.00    +0.000 A 
ATOM      3  C   UNL     1      48.810   8.897  14.887  0.00  0.00    +0.000 A 
ATOM      4  C   UNL     1      48.550   9.068  16.237  0.00  0.00    +0.000 A 
ATOM      5  F   UNL     1      48.306  10.299  16.705  0.00  0.00    +0.000 F 
ATOM      6  C   UNL     1      48.535   7.989  17.108  0.00  0.00    +0.000 A 
ATOM      7  C   UNL     1      48.786   6.687  16.656  0.00  0.00    +0.000 A 
ATOM      8  C   UNL     1      49.070   6.534  15.285  0.00  0.00    +0.000 A 
BRANCH   7   9
ATOM      9  N   UNL     1      48.755   5.624  17.535  0.00  0.00    +0.000 N 
ATOM     10  C   UNL     1      49.925   5.154  18.289  0.00  0.00    +0.000 C 
ATOM     11  C   UNL     1      50.282   3.720  17.876  0.00  0.00    +0.000 C 
ATOM     12  O   UNL     1      49.156   2.836  18.026  0.00  0.00    +0.000 OA
ATOM     13  C   UNL     1      48.065   3.278  17.202  0.00  0.00    +0.000 C 
ATOM     14  C   UNL     1      47.607   4.701  17.566  0.00  0.00    +0.000 C 
ENDBRANCH   7   9
ENDBRANCH   1   2
BRANCH   1  15
ATOM     15  C   UNL     1      48.214   7.891  11.981  0.00  0.00    +0.000 C 
BRANCH  15  20
ATOM     16  C   UNL     1      45.794   4.995  12.523  0.00  0.00    +0.000 A 
ATOM     17  C   UNL     1      44.566   5.609  12.253  0.00  0.00    +0.000 A 
ATOM     18  C   UNL     1      44.523   6.957  11.894  0.00  0.00    +0.000 A 
ATOM     19  C   UNL     1      45.704   7.694  11.809  0.00  0.00    +0.000 A 
ATOM     20  C   UNL     1      46.940   7.093  12.082  0.00  0.00    +0.000 A 
ATOM     21  C   UNL     1      46.976   5.743  12.450  0.00  0.00    +0.000 A 
BRANCH  16  23
ATOM     22  N   UNL     1      44.924   2.722  12.431  0.00  0.00    +0.000 N 
ATOM     23  C   UNL     1      45.894   3.563  12.904  0.00  0.00    +0.000 C 
ATOM     24  O   UNL     1      46.823   3.138  13.577  0.00  0.00    +0.000 OA
ATOM     25  H   UNL     1      45.073   1.736  12.598  0.00  0.00    +0.000 HD
ATOM     26  H   UNL     1      44.311   2.982  11.673  0.00  0.00    +0.000 HD
ENDBRANCH  16  23
ENDBRANCH  15  20
ENDBRANCH   1  15
TORSDOF 5
ENDMDL
