MODEL 1
REMARK VINA RESULT:    -7.676      0.000      0.000
REMARK INTER + INTRA:         -11.285
REMARK INTER:                  -9.920
REMARK INTRA:                  -1.364
REMARK UNBOUND:                -1.364
REMARK  Name = 
REMARK  6 active torsions:
REMARK  status: ('A' for Active; 'I' for Inactive)
REMARK    1  A    between atoms: C_1  and  C_2
REMARK    2  A    between atoms: C_7  and  C_8
REMARK    3  A    between atoms: C_8  and  C_9
REMARK    4  A    between atoms: C_12  and  C_13
REMARK    5  A    between atoms: C_13  and  N_14
REMARK    6  A    between atoms: C_15  and  C_17
REMARK                            x       y       z     vdW  Elec       q    Type
REMARK                         _______ _______ _______ _____ _____    ______ ____
ROOT
ATOM      1  C   UNL     1      47.669   8.358  13.809  0.00  0.00    +0.000 C 
ENDROOT
BRANCH   1   5
ATOM      2  C   UNL     1      44.972   6.250  11.151  0.00  0.00    +0.000 A 
ATOM      3  C   UNL     1      46.196   5.684  11.529  0.00  0.00    +0.000 A 
ATOM      4  C   UNL     1      47.070   6.362  12.383  0.00  0.00    +0.000 A 
ATOM      5  C   UNL     1      46.747   7.637  12.863  0.00  0.00    +0.000 A 
ATOM      6  C   UNL     1      45.559   8.238  12.427  0.00  0.00    +0.000 A 
ATOM      7  C   UNL     1      44.675   7.548  11.591  0.00  0.00    +0.000 A 
BRANCH   2   8
ATOM      8  C   UNL     1      43.995   5.480  10.290  0.00  0.00    +0.000 C 
BRANCH   8  15
ATOM      9  C   UNL     1      43.589   2.584  11.175  0.00  0.00    +0.000 C 
ATOM     10  C   UNL     1      44.420   2.955   9.979  0.00  0.00    +0.000 A 
ATOM     11  C   UNL     1      45.065   1.919   9.278  0.00  0.00    +0.000 A 
ATOM     12  C   UNL     1      45.844   2.188   8.154  0.00  0.00    +0.000 A 
ATOM     13  C   UNL     1      45.976   3.495   7.704  0.00  0.00    +0.000 A 
ATOM     14  C   UNL     1      45.348   4.536   8.390  0.00  0.00    +0.000 A 
ATOM     15  C   UNL     1      44.580   4.290   9.547  0.00  0.00    +0.000 A 
ENDBRANCH   8  15
ENDBRANCH   2   8
ENDBRANCH   1   5
BRANCH   1  16
ATOM     16  N   UNL     1      47.951   7.569  14.981  0.00  0.00    +0.000 N 
ATOM     17  C   UNL     1      49.177   6.985  15.156  0.00  0.00    +0.000 C 
ATOM     18  O   UNL     1      50.095   7.142  14.358  0.00  0.00    +0.000 OA
ATOM     19  H   UNL     1      47.155   7.249  15.525  0.00  0.00    +0.000 HD
BRANCH  17  20
ATOM     20  C   UNL     1      49.364   6.199  16.386  0.00  0.00    +0.000 A 
ATOM     21  C   UNL     1      50.363   6.557  17.281  0.00  0.00    +0.000 A 
ATOM     22  S   UNL     1      50.428   5.569  18.668  0.00  0.00    +0.000 S 
ATOM     23  C   UNL     1      49.150   4.598  18.101  0.00  0.00    +0.000 A 
ATOM     24  N   UNL     1      48.714   3.528  18.819  0.00  0.00    +0.000 NA
ATOM     25  C   UNL     1      47.759   2.864  18.260  0.00  0.00    +0.000 A 
ATOM     26  N   UNL     1      47.193   3.179  17.051  0.00  0.00    +0.000 N 
ATOM     27  C   UNL     1      47.581   4.267  16.305  0.00  0.00    +0.000 A 
ATOM     28  O   UNL     1      47.024   4.544  15.247  0.00  0.00    +0.000 OA
ATOM     29  C   UNL     1      48.666   5.037  16.882  0.00  0.00    +0.000 A 
ATOM     30  H   UNL     1      46.439   2.624  16.674  0.00  0.00    +0.000 HD
ENDBRANCH  17  20
ENDBRANCH   1  16
TORSDOF 5
ENDMDL
MODEL 2
REMARK VINA RESULT:    -7.357      1.872      2.281
REMARK INTER + INTRA:         -10.872
REMARK INTER:                  -9.822
REMARK INTRA:                  -1.050
REMARK UNBOUND:                -1.364
REMARK  Name = 
REMARK  6 active torsions:
REMARK  status: ('A' for Active; 'I' for Inactive)
REMARK    1  A    between atoms: C_1  and  C_2
REMARK    2  A    between atoms: C_7  and  C_8
REMARK    3  A    between atoms: C_8  and  C_9
REMARK    4  A    between atoms: C_12  and  C_13
REMARK    5  A    between atoms: C_13  and  N_14
REMARK    6  A    between atoms: C_15  and  C_17
REMARK                            x       y       z     vdW  Elec       q    Type
REMARK                         _______ _______ _______ _____ _____    ______ ____
ROOT
ATOM      1  C   UNL     1      48.885   7.119  14.238  0.00  0.00    +0.000 C 
ENDROOT
BRANCH   1   5
ATOM      2  C   UNL     1      45.504   5.873  11.831  0.00  0.00    +0.000 A 
ATOM      3  C   UNL     1      46.088   7.133  11.652  0.00  0.00    +0.000 A 
ATOM      4  C   UNL     1      47.175   7.540  12.429  0.00  0.00    +0.000 A 
ATOM      5  C   UNL     1      47.693   6.700  13.421  0.00  0.00    +0.000 A 
ATOM      6  C   UNL     1      47.065   5.469  13.654  0.00  0.00    +0.000 A 
ATOM      7  C   UNL     1      45.991   5.054  12.860  0.00  0.00    +0.000 A 
BRANCH   2   8
ATOM      8  C   UNL     1      44.378   5.406  10.935  0.00  0.00    +0.000 C 
BRANCH   8  15
ATOM      9  C   UNL     1      43.502   2.502  11.307  0.00  0.00    +0.000 C 
ATOM     10  C   UNL     1      44.362   2.946  10.157  0.00  0.00    +0.000 A 
ATOM     11  C   UNL     1      44.807   1.966   9.251  0.00  0.00    +0.000 A 
ATOM     12  C   UNL     1      45.600   2.306   8.156  0.00  0.00    +0.000 A 
ATOM     13  C   UNL     1      45.944   3.634   7.941  0.00  0.00    +0.000 A 
ATOM     14  C   UNL     1      45.515   4.619   8.832  0.00  0.00    +0.000 A 
ATOM     15  C   UNL     1      44.738   4.294   9.963  0.00  0.00    +0.000 A 
ENDBRANCH   8  15
ENDBRANCH   2   8
ENDBRANCH   1   5
BRANCH   1  16
ATOM     16  N   UNL     1      48.549   7.267  15.631  0.00  0.00    +0.000 N 
ATOM     17  C   UNL     1      49.320   6.690  16.605  0.00  0.00    +0.000 C 
ATOM     18  O   UNL     1      50.344   6.069  16.343  0.00  0.00    +0.000 OA
ATOM     19  H   UNL     1      47.606   7.577  15.848  0.00  0.00    +0.000 HD
BRANCH  17  20
ATOM     20  C   UNL     1      48.891   6.900  17.996  0.00  0.00    +0.000 A 
ATOM     21  C   UNL     1      48.591   8.184  18.432  0.00  0.00    +0.000 A 
ATOM     22  S   UNL     1      48.081   8.254  20.057  0.00  0.00    +0.000 S 
ATOM     23  C   UNL     1      48.286   6.575  20.250  0.00  0.00    +0.000 A 
ATOM     24  N   UNL     1      48.040   5.975  21.445  0.00  0.00    +0.000 NA
ATOM     25  C   UNL     1      48.263   4.704  21.458  0.00  0.00    +0.000 A 
ATOM     26  N   UNL     1      48.699   3.976  20.382  0.00  0.00    +0.000 N 
ATOM     27  C   UNL     1      48.933   4.535  19.147  0.00  0.00    +0.000 A 
ATOM     28  O   UNL     1      49.283   3.847  18.193  0.00  0.00    +0.000 OA
ATOM     29  C   UNL     1      48.715   5.968  19.083  0.00  0.00    +0.000 A 
ATOM     30  H   UNL     1      48.843   2.980  20.455  0.00  0.00    +0.000 HD
ENDBRANCH  17  20
ENDBRANCH   1  16
TORSDOF 5
ENDMDL
MODEL 3
REMARK VINA RESULT:    -7.337      2.257      2.806
REMARK INTER + INTRA:         -10.846
REMARK INTER:                  -9.537
REMARK INTRA:                  -1.309
REMARK UNBOUND:                -1.364
REMARK  Name = 
REMARK  6 active torsions:
REMARK  status: ('A' for Active; 'I' for Inactive)
REMARK    1  A    between atoms: C_1  and  C_2
REMARK    2  A    between atoms: C_7  and  C_8
REMARK    3  A    between atoms: C_8  and  C_9
REMARK    4  A    between atoms: C_12  and  C_13
REMARK    5  A    between atoms: C_13  and  N_14
REMARK    6  A    between atoms: C_15  and  C_17
REMARK                            x       y       z     vdW  Elec       q    Type
REMARK                         _______ _______ _______ _____ _____    ______ ____
ROOT
ATOM      1  C   UNL     1      48.786   6.981  14.468  0.00  0.00    +0.000 C 
ENDROOT
BRANCH   1   5
ATOM      2  C   UNL     1      45.493   5.940  11.851  0.00  0.00    +0.000 A 
ATOM      3  C   UNL     1      46.042   7.229  11.837  0.00  0.00    +0.000 A 
ATOM      4  C   UNL     1      47.101   7.569  12.683  0.00  0.00    +0.000 A 
ATOM      5  C   UNL     1      47.624   6.630  13.579  0.00  0.00    +0.000 A 
ATOM      6  C   UNL     1      47.029   5.364  13.649  0.00  0.00    +0.000 A 
ATOM      7  C   UNL     1      45.983   5.018  12.786  0.00  0.00    +0.000 A 
BRANCH   2   8
ATOM      8  C   UNL     1      44.399   5.554  10.880  0.00  0.00    +0.000 C 
BRANCH   8  15
ATOM      9  C   UNL     1      43.481   2.670  11.303  0.00  0.00    +0.000 C 
ATOM     10  C   UNL     1      44.349   3.081  10.146  0.00  0.00    +0.000 A 
ATOM     11  C   UNL     1      44.782   2.078   9.259  0.00  0.00    +0.000 A 
ATOM     12  C   UNL     1      45.581   2.387   8.160  0.00  0.00    +0.000 A 
ATOM     13  C   UNL     1      45.944   3.706   7.921  0.00  0.00    +0.000 A 
ATOM     14  C   UNL     1      45.528   4.713   8.793  0.00  0.00    +0.000 A 
ATOM     15  C   UNL     1      44.745   4.420   9.929  0.00  0.00    +0.000 A 
ENDBRANCH   8  15
ENDBRANCH   2   8
ENDBRANCH   1   5
BRANCH   1  16
ATOM     16  N   UNL     1      48.495   6.715  15.854  0.00  0.00    +0.000 N 
ATOM     17  C   UNL     1      49.450   6.191  16.684  0.00  0.00    +0.000 C 
ATOM     18  O   UNL     1      50.595   5.971  16.304  0.00  0.00    +0.000 OA
ATOM     19  H   UNL     1      47.516   6.678  16.121  0.00  0.00    +0.000 HD
BRANCH  17  20
ATOM     20  C   UNL     1      49.052   5.956  18.081  0.00  0.00    +0.000 A 
ATOM     21  C   UNL     1      49.234   4.698  18.641  0.00  0.00    +0.000 A 
ATOM     22  S   UNL     1      48.752   4.598  20.273  0.00  0.00    +0.000 S 
ATOM     23  C   UNL     1      48.240   6.222  20.276  0.00  0.00    +0.000 A 
ATOM     24  N   UNL     1      47.686   6.777  21.388  0.00  0.00    +0.000 NA
ATOM     25  C   UNL     1      47.318   8.005  21.242  0.00  0.00    +0.000 A 
ATOM     26  N   UNL     1      47.461   8.732  20.089  0.00  0.00    +0.000 N 
ATOM     27  C   UNL     1      48.040   8.222  18.951  0.00  0.00    +0.000 A 
ATOM     28  O   UNL     1      48.190   8.914  17.948  0.00  0.00    +0.000 OA
ATOM     29  C   UNL     1      48.456   6.837  19.056  0.00  0.00    +0.000 A 
ATOM     30  H   UNL     1      47.161   9.695  20.044  0.00  0.00    +0.000 HD
ENDBRANCH  17  20
ENDBRANCH   1  16
TORSDOF 5
ENDMDL
MODEL 4
REMARK VINA RESULT:    -7.241      3.981      9.386
REMARK INTER + INTRA:         -10.722
REMARK INTER:                  -9.526
REMARK INTRA:                  -1.196
REMARK UNBOUND:                -1.364
REMARK  Name = 
REMARK  6 active torsions:
REMARK  status: ('A' for Active; 'I' for Inactive)
REMARK    1  A    between atoms: C_1  and  C_2
REMARK    2  A    between atoms: C_7  and  C_8
REMARK    3  A    between atoms: C_8  and  C_9
REMARK    4  A    between atoms: C_12  and  C_13
REMARK    5  A    between atoms: C_13  and  N_14
REMARK    6  A    between atoms: C_15  and  C_17
REMARK                            x       y       z     vdW  Elec       q    Type
REMARK                         _______ _______ _______ _____ _____    ______ ____
ROOT
ATOM      1  C   UNL     1      47.301   3.416  16.693  0.00  0.00    +0.000 C 
ENDROOT
BRANCH   1   5
ATOM      2  C   UNL     1      51.456   4.289  17.561  0.00  0.00    +0.000 A 
ATOM      3  C   UNL     1      50.989   2.969  17.537  0.00  0.00    +0.000 A 
ATOM      4  C   UNL     1      49.649   2.684  17.262  0.00  0.00    +0.000 A 
ATOM      5  C   UNL     1      48.738   3.718  17.023  0.00  0.00    +0.000 A 
ATOM      6  C   UNL     1      49.184   5.043  17.119  0.00  0.00    +0.000 A 
ATOM      7  C   UNL     1      50.531   5.325  17.373  0.00  0.00    +0.000 A 
BRANCH   2   8
ATOM      8  C   UNL     1      52.922   4.588  17.782  0.00  0.00    +0.000 C 
BRANCH   8  15
ATOM      9  C   UNL     1      54.888   2.255  17.607  0.00  0.00    +0.000 C 
ATOM     10  C   UNL     1      54.426   2.826  18.919  0.00  0.00    +0.000 A 
ATOM     11  C   UNL     1      54.892   2.222  20.101  0.00  0.00    +0.000 A 
ATOM     12  C   UNL     1      54.512   2.704  21.352  0.00  0.00    +0.000 A 
ATOM     13  C   UNL     1      53.674   3.808  21.440  0.00  0.00    +0.000 A 
ATOM     14  C   UNL     1      53.199   4.417  20.277  0.00  0.00    +0.000 A 
ATOM     15  C   UNL     1      53.545   3.928  19.002  0.00  0.00    +0.000 A 
ENDBRANCH   8  15
ENDBRANCH   2   8
ENDBRANCH   1   5
BRANCH   1  16
ATOM     16  N   UNL     1      46.758   4.370  15.760  0.00  0.00    +0.000 N 
ATOM     17  C   UNL     1      46.785   4.129  14.412  0.00  0.00    +0.000 C 
ATOM     18  O   UNL     1      47.224   3.083  13.946  0.00  0.00    +0.000 OA
ATOM     19  H   UNL     1      46.602   5.314  16.103  0.00  0.00    +0.000 HD
BRANCH  17  20
ATOM     20  C   UNL     1      46.205   5.166  13.545  0.00  0.00    +0.000 A 
ATOM     21  C   UNL     1      46.905   6.346  13.330  0.00  0.00    +0.000 A 
ATOM     22  S   UNL     1      46.113   7.430  12.279  0.00  0.00    +0.000 S 
ATOM     23  C   UNL     1      44.785   6.379  12.108  0.00  0.00    +0.000 A 
ATOM     24  N   UNL     1      43.715   6.724  11.343  0.00  0.00    +0.000 NA
ATOM     25  C   UNL     1      42.769   5.847  11.324  0.00  0.00    +0.000 A 
ATOM     26  N   UNL     1      42.798   4.651  11.994  0.00  0.00    +0.000 N 
ATOM     27  C   UNL     1      43.870   4.248  12.756  0.00  0.00    +0.000 A 
ATOM     28  O   UNL     1      43.881   3.152  13.310  0.00  0.00    +0.000 OA
ATOM     29  C   UNL     1      44.955   5.208  12.825  0.00  0.00    +0.000 A 
ATOM     30  H   UNL     1      42.028   4.003  11.929  0.00  0.00    +0.000 HD
ENDBRANCH  17  20
ENDBRANCH   1  16
TORSDOF 5
ENDMDL
MODEL 5
REMARK VINA RESULT:    -6.927      4.128      9.037
REMARK INTER + INTRA:         -10.317
REMARK INTER:                  -9.092
REMARK INTRA:                  -1.225
REMARK UNBOUND:                -1.364
REMARK  Name = 
REMARK  6 active torsions:
REMARK  status: ('A' for Active; 'I' for Inactive)
REMARK    1  A    between atoms: C_1  and  C_2
REMARK    2  A    between atoms: C_7  and  C_8
REMARK    3  A    between atoms: C_8  and  C_9
REMARK    4  A    between atoms: C_12  and  C_13
REMARK    5  A    between atoms: C_13  and  N_14
REMARK    6  A    between atoms: C_15  and  C_17
REMARK                            x       y       z     vdW  Elec       q    Type
REMARK                         _______ _______ _______ _____ _____    ______ ____
ROOT
ATOM      1  C   UNL     1      47.636   3.945  15.964  0.00  0.00    +0.000 C 
ENDROOT
BRANCH   1   5
ATOM      2  C   UNL     1      48.582   6.613  19.245  0.00  0.00    +0.000 A 
ATOM      3  C   UNL     1      49.546   6.288  18.282  0.00  0.00    +0.000 A 
ATOM      4  C   UNL     1      49.246   5.425  17.226  0.00  0.00    +0.000 A 
ATOM      5  C   UNL     1      47.975   4.849  17.118  0.00  0.00    +0.000 A 
ATOM      6  C   UNL     1      47.032   5.111  18.120  0.00  0.00    +0.000 A 
ATOM      7  C   UNL     1      47.327   5.993  19.165  0.00  0.00    +0.000 A 
BRANCH   2   8
ATOM      8  C   UNL     1      48.887   7.608  20.343  0.00  0.00    +0.000 C 
BRANCH   8  15
ATOM      9  C   UNL     1      47.891   9.668  18.317  0.00  0.00    +0.000 C 
ATOM     10  C   UNL     1      47.346   9.580  19.715  0.00  0.00    +0.000 A 
ATOM     11  C   UNL     1      46.373  10.519  20.103  0.00  0.00    +0.000 A 
ATOM     12  C   UNL     1      45.817  10.493  21.381  0.00  0.00    +0.000 A 
ATOM     13  C   UNL     1      46.213   9.515  22.284  0.00  0.00    +0.000 A 
ATOM     14  C   UNL     1      47.182   8.579  21.918  0.00  0.00    +0.000 A 
ATOM     15  C   UNL     1      47.780   8.606  20.642  0.00  0.00    +0.000 A 
ENDBRANCH   8  15
ENDBRANCH   2   8
ENDBRANCH   1   5
BRANCH   1  16
ATOM     16  N   UNL     1      46.701   4.565  15.060  0.00  0.00    +0.000 N 
ATOM     17  C   UNL     1      47.137   5.385  14.053  0.00  0.00    +0.000 C 
ATOM     18  O   UNL     1      48.328   5.589  13.847  0.00  0.00    +0.000 OA
ATOM     19  H   UNL     1      45.727   4.589  15.348  0.00  0.00    +0.000 HD
BRANCH  17  20
ATOM     20  C   UNL     1      46.102   5.969  13.185  0.00  0.00    +0.000 A 
ATOM     21  C   UNL     1      46.103   7.337  12.946  0.00  0.00    +0.000 A 
ATOM     22  S   UNL     1      44.861   7.850  11.898  0.00  0.00    +0.000 S 
ATOM     23  C   UNL     1      44.249   6.268  11.761  0.00  0.00    +0.000 A 
ATOM     24  N   UNL     1      43.145   6.008  11.011  0.00  0.00    +0.000 NA
ATOM     25  C   UNL     1      42.774   4.772  11.018  0.00  0.00    +0.000 A 
ATOM     26  N   UNL     1      43.413   3.769  11.700  0.00  0.00    +0.000 N 
ATOM     27  C   UNL     1      44.548   3.979  12.447  0.00  0.00    +0.000 A 
ATOM     28  O   UNL     1      45.120   3.051  13.012  0.00  0.00    +0.000 OA
ATOM     29  C   UNL     1      44.997   5.358  12.487  0.00  0.00    +0.000 A 
ATOM     30  H   UNL     1      43.078   2.818  11.654  0.00  0.00    +0.000 HD
ENDBRANCH  17  20
ENDBRANCH   1  16
TORSDOF 5
ENDMDL
MODEL 6
REMARK VINA RESULT:    -6.791      4.183      9.273
REMARK INTER + INTRA:         -10.140
REMARK INTER:                  -8.847
REMARK INTRA:                  -1.293
REMARK UNBOUND:                -1.364
REMARK  Name = 
REMARK  6 active torsions:
REMARK  status: ('A' for Active; 'I' for Inactive)
REMARK    1  A    between atoms: C_1  and  C_2
REMARK    2  A    between atoms: C_7  and  C_8
REMARK    3  A    between atoms: C_8  and  C_9
REMARK    4  A    between atoms: C_12  and  C_13
REMARK    5  A    between atoms: C_13  and  N_14
REMARK    6  A    between atoms: C_15  and  C_17
REMARK                            x       y       z     vdW  Elec       q    Type
REMARK                         _______ _______ _______ _____ _____    ______ ____
ROOT
ATOM      1  C   UNL     1      47.581   4.128  16.340  0.00  0.00    +0.000 C 
ENDROOT
BRANCH   1   5
ATOM      2  C   UNL     1      48.528   7.143  19.306  0.00  0.00    +0.000 A 
ATOM      3  C   UNL     1      49.357   6.942  18.195  0.00  0.00    +0.000 A 
ATOM      4  C   UNL     1      49.058   5.969  17.239  0.00  0.00    +0.000 A 
ATOM      5  C   UNL     1      47.928   5.156  17.384  0.00  0.00    +0.000 A 
ATOM      6  C   UNL     1      47.137   5.302  18.531  0.00  0.00    +0.000 A 
ATOM      7  C   UNL     1      47.427   6.293  19.476  0.00  0.00    +0.000 A 
BRANCH   2   8
ATOM      8  C   UNL     1      48.814   8.250  20.297  0.00  0.00    +0.000 C 
BRANCH   8  15
ATOM      9  C   UNL     1      47.680  10.306  18.342  0.00  0.00    +0.000 C 
ATOM     10  C   UNL     1      47.135  10.125  19.731  0.00  0.00    +0.000 A 
ATOM     11  C   UNL     1      46.091  10.973  20.145  0.00  0.00    +0.000 A 
ATOM     12  C   UNL     1      45.531  10.856  21.415  0.00  0.00    +0.000 A 
ATOM     13  C   UNL     1      45.993   9.877  22.285  0.00  0.00    +0.000 A 
ATOM     14  C   UNL     1      47.031   9.030  21.892  0.00  0.00    +0.000 A 
ATOM     15  C   UNL     1      47.634   9.150  20.624  0.00  0.00    +0.000 A 
ENDBRANCH   8  15
ENDBRANCH   2   8
ENDBRANCH   1   5
BRANCH   1  16
ATOM     16  N   UNL     1      46.659   4.651  15.365  0.00  0.00    +0.000 N 
ATOM     17  C   UNL     1      46.589   4.115  14.106  0.00  0.00    +0.000 C 
ATOM     18  O   UNL     1      47.265   3.148  13.771  0.00  0.00    +0.000 OA
ATOM     19  H   UNL     1      46.266   5.570  15.547  0.00  0.00    +0.000 HD
BRANCH  17  20
ATOM     20  C   UNL     1      45.615   4.720  13.185  0.00  0.00    +0.000 A 
ATOM     21  C   UNL     1      44.622   3.929  12.624  0.00  0.00    +0.000 A 
ATOM     22  S   UNL     1      43.557   4.786  11.605  0.00  0.00    +0.000 S 
ATOM     23  C   UNL     1      44.413   6.238  11.842  0.00  0.00    +0.000 A 
ATOM     24  N   UNL     1      44.032   7.384  11.217  0.00  0.00    +0.000 NA
ATOM     25  C   UNL     1      44.785   8.402  11.464  0.00  0.00    +0.000 A 
ATOM     26  N   UNL     1      45.880   8.381  12.288  0.00  0.00    +0.000 N 
ATOM     27  C   UNL     1      46.286   7.254  12.963  0.00  0.00    +0.000 A 
ATOM     28  O   UNL     1      47.247   7.281  13.727  0.00  0.00    +0.000 OA
ATOM     29  C   UNL     1      45.482   6.075  12.705  0.00  0.00    +0.000 A 
ATOM     30  H   UNL     1      46.422   9.218  12.449  0.00  0.00    +0.000 HD
ENDBRANCH  17  20
ENDBRANCH   1  16
TORSDOF 5
ENDMDL
MODEL 7
REMARK VINA RESULT:    -6.671      5.345      7.803
REMARK INTER + INTRA:          -9.985
REMARK INTER:                  -8.829
REMARK INTRA:                  -1.157
REMARK UNBOUND:                -1.364
REMARK  Name = 
REMARK  6 active torsions:
REMARK  status: ('A' for Active; 'I' for Inactive)
REMARK    1  A    between atoms: C_1  and  C_2
REMARK    2  A    between atoms: C_7  and  C_8
REMARK    3  A    between atoms: C_8  and  C_9
REMARK    4  A    between atoms: C_12  and  C_13
REMARK    5  A    between atoms: C_13  and  N_14
REMARK    6  A    between atoms: C_15  and  C_17
REMARK                            x       y       z     vdW  Elec       q    Type
REMARK                         _______ _______ _______ _____ _____    ______ ____
ROOT
ATOM      1  C   UNL     1      46.736   8.288  12.719  0.00  0.00    +0.000 C 
ENDROOT
BRANCH   1   5
ATOM      2  C   UNL     1      50.813   8.740  11.322  0.00  0.00    +0.000 A 
ATOM      3  C   UNL     1      49.927   9.825  11.316  0.00  0.00    +0.000 A 
ATOM      4  C   UNL     1      48.610   9.682  11.762  0.00  0.00    +0.000 A 
ATOM      5  C   UNL     1      48.142   8.441  12.207  0.00  0.00    +0.000 A 
ATOM      6  C   UNL     1      49.003   7.337  12.145  0.00  0.00    +0.000 A 
ATOM      7  C   UNL     1      50.327   7.487  11.719  0.00  0.00    +0.000 A 
BRANCH   2   8
ATOM      8  C   UNL     1      52.258   8.918  10.912  0.00  0.00    +0.000 C 
BRANCH   8  15
ATOM      9  C   UNL     1      52.724  11.058   8.782  0.00  0.00    +0.000 C 
ATOM     10  C   UNL     1      52.747   9.588   8.469  0.00  0.00    +0.000 A 
ATOM     11  C   UNL     1      52.948   9.202   7.131  0.00  0.00    +0.000 A 
ATOM     12  C   UNL     1      52.989   7.857   6.769  0.00  0.00    +0.000 A 
ATOM     13  C   UNL     1      52.848   6.877   7.743  0.00  0.00    +0.000 A 
ATOM     14  C   UNL     1      52.643   7.242   9.075  0.00  0.00    +0.000 A 
ATOM     15  C   UNL     1      52.567   8.596   9.459  0.00  0.00    +0.000 A 
ENDBRANCH   8  15
ENDBRANCH   2   8
ENDBRANCH   1   5
BRANCH   1  16
ATOM     16  N   UNL     1      46.224   6.962  12.482  0.00  0.00    +0.000 N 
ATOM     17  C   UNL     1      45.115   6.767  11.703  0.00  0.00    +0.000 C 
ATOM     18  O   UNL     1      44.543   7.693  11.139  0.00  0.00    +0.000 OA
ATOM     19  H   UNL     1      46.540   6.227  13.108  0.00  0.00    +0.000 HD
BRANCH  17  20
ATOM     20  C   UNL     1      44.673   5.375  11.524  0.00  0.00    +0.000 A 
ATOM     21  C   UNL     1      43.956   4.750  12.536  0.00  0.00    +0.000 A 
ATOM     22  S   UNL     1      43.492   3.153  12.161  0.00  0.00    +0.000 S 
ATOM     23  C   UNL     1      44.271   3.224  10.650  0.00  0.00    +0.000 A 
ATOM     24  N   UNL     1      44.278   2.149   9.816  0.00  0.00    +0.000 NA
ATOM     25  C   UNL     1      44.928   2.332   8.717  0.00  0.00    +0.000 A 
ATOM     26  N   UNL     1      45.565   3.495   8.370  0.00  0.00    +0.000 N 
ATOM     27  C   UNL     1      45.560   4.616   9.167  0.00  0.00    +0.000 A 
ATOM     28  O   UNL     1      46.105   5.656   8.806  0.00  0.00    +0.000 OA
ATOM     29  C   UNL     1      44.857   4.457  10.425  0.00  0.00    +0.000 A 
ATOM     30  H   UNL     1      46.047   3.577   7.487  0.00  0.00    +0.000 HD
ENDBRANCH  17  20
ENDBRANCH   1  16
TORSDOF 5
ENDMDL
MODEL 8
REMARK VINA RESULT:    -6.662      1.815      2.664
REMARK INTER + INTRA:          -9.974
REMARK INTER:                  -8.621
REMARK INTRA:                  -1.354
REMARK UNBOUND:                -1.364
REMARK  Name = 
REMARK  6 active torsions:
REMARK  status: ('A' for Active; 'I' for Inactive)
REMARK    1  A    between atoms: C_1  and  C_2
REMARK    2  A    between atoms: C_7  and  C_8
REMARK    3  A    between atoms: C_8  and  C_9
REMARK    4  A    between atoms: C_12  and  C_13
REMARK    5  A    between atoms: C_13  and  N_14
REMARK    6  A    between atoms: C_15  and  C_17
REMARK                            x       y       z     vdW  Elec       q    Type
REMARK                         _______ _______ _______ _____ _____    ______ ____
ROOT
ATOM      1  C   UNL     1      48.751   7.876  13.823  0.00  0.00    +0.000 C 
ENDROOT
BRANCH   1   5
ATOM      2  C   UNL     1      45.391   6.216  11.646  0.00  0.00    +0.000 A 
ATOM      3  C   UNL     1      45.541   7.601  11.790  0.00  0.00    +0.000 A 
ATOM      4  C   UNL     1      46.620   8.140  12.495  0.00  0.00    +0.000 A 
ATOM      5  C   UNL     1      47.568   7.301  13.091  0.00  0.00    +0.000 A 
ATOM      6  C   UNL     1      47.383   5.915  13.013  0.00  0.00    +0.000 A 
ATOM      7  C   UNL     1      46.313   5.378  12.289  0.00  0.00    +0.000 A 
BRANCH   2   8
ATOM      8  C   UNL     1      44.265   5.640  10.817  0.00  0.00    +0.000 C 
BRANCH   8  15
ATOM      9  C   UNL     1      43.446   2.766  11.452  0.00  0.00    +0.000 C 
ATOM     10  C   UNL     1      44.291   3.121  10.260  0.00  0.00    +0.000 A 
ATOM     11  C   UNL     1      44.749   2.072   9.442  0.00  0.00    +0.000 A 
ATOM     12  C   UNL     1      45.530   2.328   8.316  0.00  0.00    +0.000 A 
ATOM     13  C   UNL     1      45.847   3.637   7.981  0.00  0.00    +0.000 A 
ATOM     14  C   UNL     1      45.405   4.690   8.784  0.00  0.00    +0.000 A 
ATOM     15  C   UNL     1      44.641   4.453   9.945  0.00  0.00    +0.000 A 
ENDBRANCH   8  15
ENDBRANCH   2   8
ENDBRANCH   1   5
BRANCH   1  16
ATOM     16  N   UNL     1      49.211   6.995  14.865  0.00  0.00    +0.000 N 
ATOM     17  C   UNL     1      49.021   7.309  16.185  0.00  0.00    +0.000 C 
ATOM     18  O   UNL     1      48.417   8.316  16.535  0.00  0.00    +0.000 OA
ATOM     19  H   UNL     1      49.895   6.289  14.605  0.00  0.00    +0.000 HD
BRANCH  17  20
ATOM     20  C   UNL     1      49.530   6.343  17.172  0.00  0.00    +0.000 A 
ATOM     21  C   UNL     1      48.653   5.775  18.087  0.00  0.00    +0.000 A 
ATOM     22  S   UNL     1      49.391   4.655  19.139  0.00  0.00    +0.000 S 
ATOM     23  C   UNL     1      50.919   4.922  18.438  0.00  0.00    +0.000 A 
ATOM     24  N   UNL     1      52.022   4.278  18.903  0.00  0.00    +0.000 NA
ATOM     25  C   UNL     1      53.118   4.594  18.299  0.00  0.00    +0.000 A 
ATOM     26  N   UNL     1      53.209   5.490  17.266  0.00  0.00    +0.000 N 
ATOM     27  C   UNL     1      52.117   6.143  16.744  0.00  0.00    +0.000 A 
ATOM     28  O   UNL     1      52.229   6.907  15.790  0.00  0.00    +0.000 OA
ATOM     29  C   UNL     1      50.861   5.835  17.400  0.00  0.00    +0.000 A 
ATOM     30  H   UNL     1      54.097   5.685  16.827  0.00  0.00    +0.000 HD
ENDBRANCH  17  20
ENDBRANCH   1  16
TORSDOF 5
ENDMDL
MODEL 9
REMARK VINA RESULT:    -6.470      3.772      8.402
REMARK INTER + INTRA:          -9.725
REMARK INTER:                  -8.430
REMARK INTRA:                  -1.295
REMARK UNBOUND:                -1.364
REMARK  Name = 
REMARK  6 active torsions:
REMARK  status: ('A' for Active; 'I' for Inactive)
REMARK    1  A    between atoms: C_1  and  C_2
REMARK    2  A    between atoms: C_7  and  C_8
REMARK    3  A    between atoms: C_8  and  C_9
REMARK    4  A    between atoms: C_12  and  C_13
REMARK    5  A    between atoms: C_13  and  N_14
REMARK    6  A    between atoms: C_15  and  C_17
REMARK                            x       y       z     vdW  Elec       q    Type
REMARK                         _______ _______ _______ _____ _____    ______ ____
ROOT
ATOM      1  C   UNL     1      47.755   7.896  11.881  0.00  0.00    +0.000 C 
ENDROOT
BRANCH   1   5
ATOM      2  C   UNL     1      49.272   8.247  15.925  0.00  0.00    +0.000 A 
ATOM      3  C   UNL     1      48.432   9.228  15.384  0.00  0.00    +0.000 A 
ATOM      4  C   UNL     1      47.944   9.121  14.080  0.00  0.00    +0.000 A 
ATOM      5  C   UNL     1      48.304   8.034  13.275  0.00  0.00    +0.000 A 
ATOM      6  C   UNL     1      49.203   7.088  13.785  0.00  0.00    +0.000 A 
ATOM      7  C   UNL     1      49.672   7.186  15.099  0.00  0.00    +0.000 A 
BRANCH   2   8
ATOM      8  C   UNL     1      49.734   8.327  17.363  0.00  0.00    +0.000 C 
BRANCH   8  15
ATOM      9  C   UNL     1      47.865   9.734  19.328  0.00  0.00    +0.000 C 
ATOM     10  C   UNL     1      48.030   8.241  19.299  0.00  0.00    +0.000 A 
ATOM     11  C   UNL     1      47.323   7.480  20.248  0.00  0.00    +0.000 A 
ATOM     12  C   UNL     1      47.422   6.090  20.274  0.00  0.00    +0.000 A 
ATOM     13  C   UNL     1      48.214   5.439  19.338  0.00  0.00    +0.000 A 
ATOM     14  C   UNL     1      48.926   6.177  18.392  0.00  0.00    +0.000 A 
ATOM     15  C   UNL     1      48.867   7.585  18.367  0.00  0.00    +0.000 A 
ENDBRANCH   8  15
ENDBRANCH   2   8
ENDBRANCH   1   5
BRANCH   1  16
ATOM     16  N   UNL     1      47.028   6.663  11.715  0.00  0.00    +0.000 N 
ATOM     17  C   UNL     1      45.662   6.635  11.807  0.00  0.00    +0.000 C 
ATOM     18  O   UNL     1      45.000   7.651  11.985  0.00  0.00    +0.000 OA
ATOM     19  H   UNL     1      47.559   5.800  11.792  0.00  0.00    +0.000 HD
BRANCH  17  20
ATOM     20  C   UNL     1      45.016   5.326  11.624  0.00  0.00    +0.000 A 
ATOM     21  C   UNL     1      44.330   4.747  12.683  0.00  0.00    +0.000 A 
ATOM     22  S   UNL     1      43.614   3.248  12.300  0.00  0.00    +0.000 S 
ATOM     23  C   UNL     1      44.232   3.298  10.715  0.00  0.00    +0.000 A 
ATOM     24  N   UNL     1      44.003   2.279   9.844  0.00  0.00    +0.000 NA
ATOM     25  C   UNL     1      44.553   2.434   8.686  0.00  0.00    +0.000 A 
ATOM     26  N   UNL     1      45.303   3.520   8.317  0.00  0.00    +0.000 N 
ATOM     27  C   UNL     1      45.537   4.586   9.154  0.00  0.00    +0.000 A 
ATOM     28  O   UNL     1      46.179   5.562   8.777  0.00  0.00    +0.000 OA
ATOM     29  C   UNL     1      44.955   4.453  10.475  0.00  0.00    +0.000 A 
ATOM     30  H   UNL     1      45.697   3.585   7.390  0.00  0.00    +0.000 HD
ENDBRANCH  17  20
ENDBRANCH   1  16
TORSDOF 5
ENDMDL
