MODEL 1
REMARK VINA RESULT:    -7.692      0.000      0.000
REMARK INTER + INTRA:         -10.738
REMARK INTER:                  -9.941
REMARK INTRA:                  -0.797
REMARK UNBOUND:                -0.797
REMARK  Name = 
REMARK  7 active torsions:
REMARK  status: ('A' for Active; 'I' for Inactive)
REMARK    1  A    between atoms: C_1  and  O_2
REMARK    2  A    between atoms: O_2  and  C_3
REMARK    3  A    between atoms: C_6  and  N_7
REMARK    4  A    between atoms: N_7  and  C_8
REMARK    5  A    between atoms: C_8  and  C_9
REMARK    6  A    between atoms: C_12  and  C_13
REMARK    7  A    between atoms: C_14  and  N_15
REMARK                            x       y       z     vdW  Elec       q    Type
REMARK                         _______ _______ _______ _____ _____    ______ ____
ROOT
ATOM      1  C   UNL     1      43.828   4.978  11.237  0.00  0.00    +0.000 C 
ATOM      2  C   UNL     1      42.850   3.937  11.752  0.00  0.00    +0.000 C 
ATOM      3  C   UNL     1      42.470   5.379  11.804  0.00  0.00    +0.000 C 
ENDROOT
BRANCH   1   4
ATOM      4  C   UNL     1      45.040   5.358  12.079  0.00  0.00    +0.000 A 
ATOM      5  C   UNL     1      45.416   4.613  13.197  0.00  0.00    +0.000 A 
ATOM      6  C   UNL     1      46.535   4.968  13.945  0.00  0.00    +0.000 A 
ATOM      7  C   UNL     1      47.313   6.099  13.616  0.00  0.00    +0.000 A 
ATOM      8  C   UNL     1      48.447   6.413  14.557  0.00  0.00    +0.000 C 
ATOM      9  C   UNL     1      46.978   6.882  12.487  0.00  0.00    +0.000 A 
ATOM     10  C   UNL     1      45.834   6.476  11.760  0.00  0.00    +0.000 A 
BRANCH   9  11
ATOM     11  N   UNL     1      47.681   8.003  12.064  0.00  0.00    +0.000 N 
ATOM     12  C   UNL     1      48.954   7.876  11.338  0.00  0.00    +0.000 C 
ATOM     13  C   UNL     1      50.075   8.563  12.117  0.00  0.00    +0.000 C 
ATOM     14  C   UNL     1      49.721  10.021  12.395  0.00  0.00    +0.000 C 
ATOM     15  C   UNL     1      48.385  10.113  13.121  0.00  0.00    +0.000 C 
ATOM     16  C   UNL     1      47.270   9.368  12.386  0.00  0.00    +0.000 C 
ENDBRANCH   9  11
ENDBRANCH   1   4
BRANCH   1  17
ATOM     17  N   UNL     1      44.047   5.127   9.780  0.00  0.00    +0.000 N 
ATOM     18  H   UNL     1      43.210   5.310   9.237  0.00  0.00    +0.000 HD
BRANCH  17  22
ATOM     19  C   UNL     1      46.357   2.288   7.868  0.00  0.00    +0.000 A 
ATOM     20  C   UNL     1      46.464   3.630   7.530  0.00  0.00    +0.000 A 
ATOM     21  N   UNL     1      45.728   4.605   8.126  0.00  0.00    +0.000 NA
ATOM     22  C   UNL     1      44.873   4.206   9.093  0.00  0.00    +0.000 A 
ATOM     23  C   UNL     1      44.769   2.843   9.407  0.00  0.00    +0.000 A 
ATOM     24  N   UNL     1      45.502   1.862   8.820  0.00  0.00    +0.000 NA
BRANCH  19  26
ATOM     25  C   UNL     1      47.969   2.016   6.204  0.00  0.00    +0.000 C 
ATOM     26  O   UNL     1      47.150   1.389   7.188  0.00  0.00    +0.000 OA
ENDBRANCH  19  26
ENDBRANCH  17  22
ENDBRANCH   1  17
TORSDOF 5
ENDMDL
MODEL 2
REMARK VINA RESULT:    -7.446      1.089      2.172
REMARK INTER + INTRA:         -10.420
REMARK INTER:                  -9.598
REMARK INTRA:                  -0.821
REMARK UNBOUND:                -0.797
REMARK  Name = 
REMARK  7 active torsions:
REMARK  status: ('A' for Active; 'I' for Inactive)
REMARK    1  A    between atoms: C_1  and  O_2
REMARK    2  A    between atoms: O_2  and  C_3
REMARK    3  A    between atoms: C_6  and  N_7
REMARK    4  A    between atoms: N_7  and  C_8
REMARK    5  A    between atoms: C_8  and  C_9
REMARK    6  A    between atoms: C_12  and  C_13
REMARK    7  A    between atoms: C_14  and  N_15
REMARK                            x       y       z     vdW  Elec       q    Type
REMARK                         _______ _______ _______ _____ _____    ______ ____
ROOT
ATOM      1  C   UNL     1      43.980   5.179  11.473  0.00  0.00    +0.000 C 
ATOM      2  C   UNL     1      44.029   4.032  12.466  0.00  0.00    +0.000 C 
ATOM      3  C   UNL     1      42.853   4.949  12.475  0.00  0.00    +0.000 C 
ENDROOT
BRANCH   1   4
ATOM      4  C   UNL     1      44.837   6.417  11.707  0.00  0.00    +0.000 A 
ATOM      5  C   UNL     1      44.369   7.697  11.410  0.00  0.00    +0.000 A 
ATOM      6  C   UNL     1      45.163   8.817  11.643  0.00  0.00    +0.000 A 
ATOM      7  C   UNL     1      46.469   8.698  12.166  0.00  0.00    +0.000 A 
ATOM      8  C   UNL     1      47.245   9.984  12.293  0.00  0.00    +0.000 C 
ATOM      9  C   UNL     1      46.985   7.423  12.492  0.00  0.00    +0.000 A 
ATOM     10  C   UNL     1      46.138   6.319  12.238  0.00  0.00    +0.000 A 
BRANCH   9  11
ATOM     11  N   UNL     1      48.248   7.193  13.025  0.00  0.00    +0.000 N 
ATOM     12  C   UNL     1      48.446   7.031  14.473  0.00  0.00    +0.000 C 
ATOM     13  C   UNL     1      49.396   8.109  14.998  0.00  0.00    +0.000 C 
ATOM     14  C   UNL     1      50.717   8.079  14.234  0.00  0.00    +0.000 C 
ATOM     15  C   UNL     1      50.468   8.220  12.738  0.00  0.00    +0.000 C 
ATOM     16  C   UNL     1      49.465   7.191  12.216  0.00  0.00    +0.000 C 
ENDBRANCH   9  11
ENDBRANCH   1   4
BRANCH   1  17
ATOM     17  N   UNL     1      43.708   4.907  10.043  0.00  0.00    +0.000 N 
ATOM     18  H   UNL     1      42.747   4.667   9.828  0.00  0.00    +0.000 HD
BRANCH  17  22
ATOM     19  C   UNL     1      46.176   2.332   7.961  0.00  0.00    +0.000 A 
ATOM     20  C   UNL     1      46.243   3.702   7.747  0.00  0.00    +0.000 A 
ATOM     21  N   UNL     1      45.455   4.594   8.405  0.00  0.00    +0.000 NA
ATOM     22  C   UNL     1      44.587   4.080   9.303  0.00  0.00    +0.000 A 
ATOM     23  C   UNL     1      44.525   2.691   9.491  0.00  0.00    +0.000 A 
ATOM     24  N   UNL     1      45.310   1.793   8.843  0.00  0.00    +0.000 NA
BRANCH  19  26
ATOM     25  C   UNL     1      48.053   2.262   6.576  0.00  0.00    +0.000 C 
ATOM     26  O   UNL     1      47.022   1.526   7.229  0.00  0.00    +0.000 OA
ENDBRANCH  19  26
ENDBRANCH  17  22
ENDBRANCH   1  17
TORSDOF 5
ENDMDL
MODEL 3
REMARK VINA RESULT:    -7.200      2.815      3.948
REMARK INTER + INTRA:         -10.101
REMARK INTER:                  -9.250
REMARK INTRA:                  -0.851
REMARK UNBOUND:                -0.797
REMARK  Name = 
REMARK  7 active torsions:
REMARK  status: ('A' for Active; 'I' for Inactive)
REMARK    1  A    between atoms: C_1  and  O_2
REMARK    2  A    between atoms: O_2  and  C_3
REMARK    3  A    between atoms: C_6  and  N_7
REMARK    4  A    between atoms: N_7  and  C_8
REMARK    5  A    between atoms: C_8  and  C_9
REMARK    6  A    between atoms: C_12  and  C_13
REMARK    7  A    between atoms: C_14  and  N_15
REMARK                            x       y       z     vdW  Elec       q    Type
REMARK                         _______ _______ _______ _____ _____    ______ ____
ROOT
ATOM      1  C   UNL     1      43.978   5.380  11.682  0.00  0.00    +0.000 C 
ATOM      2  C   UNL     1      44.256   4.302  12.713  0.00  0.00    +0.000 C 
ATOM      3  C   UNL     1      42.993   5.088  12.808  0.00  0.00    +0.000 C 
ENDROOT
BRANCH   1   4
ATOM      4  C   UNL     1      44.711   6.713  11.767  0.00  0.00    +0.000 A 
ATOM      5  C   UNL     1      45.995   6.809  12.303  0.00  0.00    +0.000 A 
ATOM      6  C   UNL     1      46.654   8.034  12.359  0.00  0.00    +0.000 A 
ATOM      7  C   UNL     1      46.044   9.221  11.898  0.00  0.00    +0.000 A 
ATOM      8  C   UNL     1      46.838  10.487  12.093  0.00  0.00    +0.000 C 
ATOM      9  C   UNL     1      44.746   9.175  11.338  0.00  0.00    +0.000 A 
ATOM     10  C   UNL     1      44.123   7.906  11.302  0.00  0.00    +0.000 A 
BRANCH   9  11
ATOM     11  N   UNL     1      44.060  10.276  10.841  0.00  0.00    +0.000 N 
ATOM     12  C   UNL     1      42.920  10.855  11.568  0.00  0.00    +0.000 C 
ATOM     13  C   UNL     1      41.661  10.798  10.702  0.00  0.00    +0.000 C 
ATOM     14  C   UNL     1      41.896  11.492   9.364  0.00  0.00    +0.000 C 
ATOM     15  C   UNL     1      43.101  10.885   8.657  0.00  0.00    +0.000 C 
ATOM     16  C   UNL     1      44.349  10.873   9.539  0.00  0.00    +0.000 C 
ENDBRANCH   9  11
ENDBRANCH   1   4
BRANCH   1  17
ATOM     17  N   UNL     1      43.594   5.001  10.303  0.00  0.00    +0.000 N 
ATOM     18  H   UNL     1      42.609   4.797  10.174  0.00  0.00    +0.000 HD
BRANCH  17  22
ATOM     19  C   UNL     1      45.996   2.426   8.145  0.00  0.00    +0.000 A 
ATOM     20  C   UNL     1      44.995   1.933   8.972  0.00  0.00    +0.000 A 
ATOM     21  N   UNL     1      44.176   2.735   9.704  0.00  0.00    +0.000 NA
ATOM     22  C   UNL     1      44.376   4.065   9.584  0.00  0.00    +0.000 A 
ATOM     23  C   UNL     1      45.404   4.540   8.757  0.00  0.00    +0.000 A 
ATOM     24  N   UNL     1      46.223   3.749   8.018  0.00  0.00    +0.000 NA
BRANCH  19  26
ATOM     25  C   UNL     1      47.892   2.115   6.821  0.00  0.00    +0.000 C 
ATOM     26  O   UNL     1      46.767   1.514   7.458  0.00  0.00    +0.000 OA
ENDBRANCH  19  26
ENDBRANCH  17  22
ENDBRANCH   1  17
TORSDOF 5
ENDMDL
MODEL 4
REMARK VINA RESULT:    -7.188      1.812      3.512
REMARK INTER + INTRA:         -10.087
REMARK INTER:                  -9.947
REMARK INTRA:                  -0.140
REMARK UNBOUND:                -0.797
REMARK  Name = 
REMARK  7 active torsions:
REMARK  status: ('A' for Active; 'I' for Inactive)
REMARK    1  A    between atoms: C_1  and  O_2
REMARK    2  A    between atoms: O_2  and  C_3
REMARK    3  A    between atoms: C_6  and  N_7
REMARK    4  A    between atoms: N_7  and  C_8
REMARK    5  A    between atoms: C_8  and  C_9
REMARK    6  A    between atoms: C_12  and  C_13
REMARK    7  A    between atoms: C_14  and  N_15
REMARK                            x       y       z     vdW  Elec       q    Type
REMARK                         _______ _______ _______ _____ _____    ______ ____
ROOT
ATOM      1  C   UNL     1      44.156   4.847  12.013  0.00  0.00    +0.000 C 
ATOM      2  C   UNL     1      43.557   3.705  12.812  0.00  0.00    +0.000 C 
ATOM      3  C   UNL     1      42.967   5.068  12.941  0.00  0.00    +0.000 C 
ENDROOT
BRANCH   1   4
ATOM      4  C   UNL     1      45.474   5.470  12.457  0.00  0.00    +0.000 A 
ATOM      5  C   UNL     1      46.075   6.502  11.736  0.00  0.00    +0.000 A 
ATOM      6  C   UNL     1      47.272   7.068  12.166  0.00  0.00    +0.000 A 
ATOM      7  C   UNL     1      47.929   6.607  13.327  0.00  0.00    +0.000 A 
ATOM      8  C   UNL     1      49.256   7.254  13.631  0.00  0.00    +0.000 C 
ATOM      9  C   UNL     1      47.356   5.569  14.098  0.00  0.00    +0.000 A 
ATOM     10  C   UNL     1      46.139   5.031  13.619  0.00  0.00    +0.000 A 
BRANCH   9  11
ATOM     11  N   UNL     1      47.908   5.051  15.263  0.00  0.00    +0.000 N 
ATOM     12  C   UNL     1      47.692   3.649  15.652  0.00  0.00    +0.000 C 
ATOM     13  C   UNL     1      46.993   3.582  17.009  0.00  0.00    +0.000 C 
ATOM     14  C   UNL     1      47.787   4.349  18.062  0.00  0.00    +0.000 C 
ATOM     15  C   UNL     1      48.015   5.786  17.611  0.00  0.00    +0.000 C 
ATOM     16  C   UNL     1      48.650   5.866  16.223  0.00  0.00    +0.000 C 
ENDBRANCH   9  11
ENDBRANCH   1   4
BRANCH   1  17
ATOM     17  N   UNL     1      43.925   4.926  10.552  0.00  0.00    +0.000 N 
ATOM     18  H   UNL     1      42.952   4.986  10.275  0.00  0.00    +0.000 HD
BRANCH  17  22
ATOM     19  C   UNL     1      46.044   2.547   7.925  0.00  0.00    +0.000 A 
ATOM     20  C   UNL     1      45.275   1.977   8.931  0.00  0.00    +0.000 A 
ATOM     21  N   UNL     1      44.559   2.713   9.822  0.00  0.00    +0.000 NA
ATOM     22  C   UNL     1      44.621   4.055   9.679  0.00  0.00    +0.000 A 
ATOM     23  C   UNL     1      45.416   4.609   8.666  0.00  0.00    +0.000 A 
ATOM     24  N   UNL     1      46.132   3.883   7.769  0.00  0.00    +0.000 NA
BRANCH  19  26
ATOM     25  C   UNL     1      48.023   2.195   6.738  0.00  0.00    +0.000 C 
ATOM     26  O   UNL     1      46.733   1.698   7.085  0.00  0.00    +0.000 OA
ENDBRANCH  19  26
ENDBRANCH  17  22
ENDBRANCH   1  17
TORSDOF 5
ENDMDL
MODEL 5
REMARK VINA RESULT:    -6.532      4.113      7.602
REMARK INTER + INTRA:          -9.238
REMARK INTER:                  -8.475
REMARK INTRA:                  -0.763
REMARK UNBOUND:                -0.797
REMARK  Name = 
REMARK  7 active torsions:
REMARK  status: ('A' for Active; 'I' for Inactive)
REMARK    1  A    between atoms: C_1  and  O_2
REMARK    2  A    between atoms: O_2  and  C_3
REMARK    3  A    between atoms: C_6  and  N_7
REMARK    4  A    between atoms: N_7  and  C_8
REMARK    5  A    between atoms: C_8  and  C_9
REMARK    6  A    between atoms: C_12  and  C_13
REMARK    7  A    between atoms: C_14  and  N_15
REMARK                            x       y       z     vdW  Elec       q    Type
REMARK                         _______ _______ _______ _____ _____    ______ ____
ROOT
ATOM      1  C   UNL     1      48.717   6.619  15.826  0.00  0.00    +0.000 C 
ATOM      2  C   UNL     1      50.094   7.243  15.960  0.00  0.00    +0.000 C 
ATOM      3  C   UNL     1      48.898   8.026  16.384  0.00  0.00    +0.000 C 
ENDROOT
BRANCH   1   4
ATOM      4  C   UNL     1      48.061   6.526  14.454  0.00  0.00    +0.000 A 
ATOM      5  C   UNL     1      48.519   7.277  13.371  0.00  0.00    +0.000 A 
ATOM      6  C   UNL     1      47.915   7.168  12.122  0.00  0.00    +0.000 A 
ATOM      7  C   UNL     1      46.810   6.315  11.910  0.00  0.00    +0.000 A 
ATOM      8  C   UNL     1      46.205   6.355  10.530  0.00  0.00    +0.000 C 
ATOM      9  C   UNL     1      46.314   5.526  12.973  0.00  0.00    +0.000 A 
ATOM     10  C   UNL     1      46.965   5.673  14.220  0.00  0.00    +0.000 A 
BRANCH   9  11
ATOM     11  N   UNL     1      45.244   4.644  12.871  0.00  0.00    +0.000 N 
ATOM     12  C   UNL     1      45.442   3.255  12.429  0.00  0.00    +0.000 C 
ATOM     13  C   UNL     1      44.631   2.988  11.160  0.00  0.00    +0.000 C 
ATOM     14  C   UNL     1      43.157   3.311  11.386  0.00  0.00    +0.000 C 
ATOM     15  C   UNL     1      42.997   4.746  11.871  0.00  0.00    +0.000 C 
ATOM     16  C   UNL     1      43.858   5.045  13.098  0.00  0.00    +0.000 C 
ENDBRANCH   9  11
ENDBRANCH   1   4
BRANCH   1  17
ATOM     17  N   UNL     1      48.298   5.547  16.758  0.00  0.00    +0.000 N 
ATOM     18  H   UNL     1      48.016   5.866  17.678  0.00  0.00    +0.000 HD
BRANCH  17  22
ATOM     19  C   UNL     1      50.429   2.017  16.988  0.00  0.00    +0.000 A 
ATOM     20  C   UNL     1      50.963   3.198  17.485  0.00  0.00    +0.000 A 
ATOM     21  N   UNL     1      50.305   4.387  17.435  0.00  0.00    +0.000 NA
ATOM     22  C   UNL     1      49.076   4.370  16.875  0.00  0.00    +0.000 A 
ATOM     23  C   UNL     1      48.563   3.169  16.365  0.00  0.00    +0.000 A 
ATOM     24  N   UNL     1      49.209   1.976  16.413  0.00  0.00    +0.000 NA
BRANCH  19  26
ATOM     25  C   UNL     1      52.442   1.105  17.736  0.00  0.00    +0.000 C 
ATOM     26  O   UNL     1      51.193   0.874  17.089  0.00  0.00    +0.000 OA
ENDBRANCH  19  26
ENDBRANCH  17  22
ENDBRANCH   1  17
TORSDOF 5
ENDMDL
MODEL 6
REMARK VINA RESULT:    -6.518      1.523      2.752
REMARK INTER + INTRA:          -9.220
REMARK INTER:                  -8.167
REMARK INTRA:                  -1.053
REMARK UNBOUND:                -0.797
REMARK  Name = 
REMARK  7 active torsions:
REMARK  status: ('A' for Active; 'I' for Inactive)
REMARK    1  A    between atoms: C_1  and  O_2
REMARK    2  A    between atoms: O_2  and  C_3
REMARK    3  A    between atoms: C_6  and  N_7
REMARK    4  A    between atoms: N_7  and  C_8
REMARK    5  A    between atoms: C_8  and  C_9
REMARK    6  A    between atoms: C_12  and  C_13
REMARK    7  A    between atoms: C_14  and  N_15
REMARK                            x       y       z     vdW  Elec       q    Type
REMARK                         _______ _______ _______ _____ _____    ______ ____
ROOT
ATOM      1  C   UNL     1      45.638   5.009  12.467  0.00  0.00    +0.000 C 
ATOM      2  C   UNL     1      46.427   3.872  13.092  0.00  0.00    +0.000 C 
ATOM      3  C   UNL     1      45.346   4.528  13.884  0.00  0.00    +0.000 C 
ENDROOT
BRANCH   1   4
ATOM      4  C   UNL     1      46.269   6.390  12.348  0.00  0.00    +0.000 A 
ATOM      5  C   UNL     1      45.494   7.536  12.173  0.00  0.00    +0.000 A 
ATOM      6  C   UNL     1      46.088   8.792  12.081  0.00  0.00    +0.000 A 
ATOM      7  C   UNL     1      47.490   8.949  12.139  0.00  0.00    +0.000 A 
ATOM      8  C   UNL     1      48.002  10.353  11.946  0.00  0.00    +0.000 C 
ATOM      9  C   UNL     1      48.320   7.819  12.325  0.00  0.00    +0.000 A 
ATOM     10  C   UNL     1      47.665   6.568  12.415  0.00  0.00    +0.000 A 
BRANCH   9  11
ATOM     11  N   UNL     1      49.706   7.861  12.412  0.00  0.00    +0.000 N 
ATOM     12  C   UNL     1      50.382   8.098  13.697  0.00  0.00    +0.000 C 
ATOM     13  C   UNL     1      51.236   9.363  13.616  0.00  0.00    +0.000 C 
ATOM     14  C   UNL     1      52.227   9.270  12.459  0.00  0.00    +0.000 C 
ATOM     15  C   UNL     1      51.492   8.995  11.153  0.00  0.00    +0.000 C 
ATOM     16  C   UNL     1      50.580   7.772  11.245  0.00  0.00    +0.000 C 
ENDBRANCH   9  11
ENDBRANCH   1   4
BRANCH   1  17
ATOM     17  N   UNL     1      44.639   4.720  11.412  0.00  0.00    +0.000 N 
ATOM     18  H   UNL     1      43.792   4.268  11.737  0.00  0.00    +0.000 HD
BRANCH  17  22
ATOM     19  C   UNL     1      45.922   3.218   7.786  0.00  0.00    +0.000 A 
ATOM     20  C   UNL     1      45.379   2.376   8.748  0.00  0.00    +0.000 A 
ATOM     21  N   UNL     1      44.942   2.817   9.957  0.00  0.00    +0.000 NA
ATOM     22  C   UNL     1      45.052   4.144  10.187  0.00  0.00    +0.000 A 
ATOM     23  C   UNL     1      45.618   4.973   9.208  0.00  0.00    +0.000 A 
ATOM     24  N   UNL     1      46.054   4.543   7.996  0.00  0.00    +0.000 NA
BRANCH  19  26
ATOM     25  C   UNL     1      47.163   1.507   6.796  0.00  0.00    +0.000 C 
ATOM     26  O   UNL     1      46.338   2.653   6.600  0.00  0.00    +0.000 OA
ENDBRANCH  19  26
ENDBRANCH  17  22
ENDBRANCH   1  17
TORSDOF 5
ENDMDL
MODEL 7
REMARK VINA RESULT:    -5.983      3.626      6.468
REMARK INTER + INTRA:          -8.529
REMARK INTER:                  -7.556
REMARK INTRA:                  -0.973
REMARK UNBOUND:                -0.797
REMARK  Name = 
REMARK  7 active torsions:
REMARK  status: ('A' for Active; 'I' for Inactive)
REMARK    1  A    between atoms: C_1  and  O_2
REMARK    2  A    between atoms: O_2  and  C_3
REMARK    3  A    between atoms: C_6  and  N_7
REMARK    4  A    between atoms: N_7  and  C_8
REMARK    5  A    between atoms: C_8  and  C_9
REMARK    6  A    between atoms: C_12  and  C_13
REMARK    7  A    between atoms: C_14  and  N_15
REMARK                            x       y       z     vdW  Elec       q    Type
REMARK                         _______ _______ _______ _____ _____    ______ ____
ROOT
ATOM      1  C   UNL     1      49.008   7.706  13.143  0.00  0.00    +0.000 C 
ATOM      2  C   UNL     1      49.099   8.965  12.300  0.00  0.00    +0.000 C 
ATOM      3  C   UNL     1      50.345   8.202  12.602  0.00  0.00    +0.000 C 
ENDROOT
BRANCH   1   4
ATOM      4  C   UNL     1      48.815   7.818  14.650  0.00  0.00    +0.000 A 
ATOM      5  C   UNL     1      48.443   9.019  15.252  0.00  0.00    +0.000 A 
ATOM      6  C   UNL     1      48.258   9.099  16.630  0.00  0.00    +0.000 A 
ATOM      7  C   UNL     1      48.460   7.979  17.466  0.00  0.00    +0.000 A 
ATOM      8  C   UNL     1      48.304   8.226  18.944  0.00  0.00    +0.000 C 
ATOM      9  C   UNL     1      48.830   6.736  16.902  0.00  0.00    +0.000 A 
ATOM     10  C   UNL     1      49.002   6.709  15.498  0.00  0.00    +0.000 A 
BRANCH   9  11
ATOM     11  N   UNL     1      49.039   5.569  17.628  0.00  0.00    +0.000 N 
ATOM     12  C   UNL     1      50.375   5.212  18.128  0.00  0.00    +0.000 C 
ATOM     13  C   UNL     1      50.814   3.870  17.541  0.00  0.00    +0.000 C 
ATOM     14  C   UNL     1      49.783   2.787  17.845  0.00  0.00    +0.000 C 
ATOM     15  C   UNL     1      48.409   3.207  17.340  0.00  0.00    +0.000 C 
ATOM     16  C   UNL     1      47.990   4.580  17.864  0.00  0.00    +0.000 C 
ENDBRANCH   9  11
ENDBRANCH   1   4
BRANCH   1  17
ATOM     17  N   UNL     1      48.436   6.469  12.561  0.00  0.00    +0.000 N 
ATOM     18  H   UNL     1      48.732   6.264  11.614  0.00  0.00    +0.000 HD
BRANCH  17  22
ATOM     19  C   UNL     1      44.453   5.509  13.079  0.00  0.00    +0.000 A 
ATOM     20  C   UNL     1      44.819   6.710  12.487  0.00  0.00    +0.000 A 
ATOM     21  N   UNL     1      46.114   7.076  12.292  0.00  0.00    +0.000 NA
ATOM     22  C   UNL     1      47.054   6.196  12.702  0.00  0.00    +0.000 A 
ATOM     23  C   UNL     1      46.662   4.996  13.313  0.00  0.00    +0.000 A 
ATOM     24  N   UNL     1      45.372   4.620  13.508  0.00  0.00    +0.000 NA
BRANCH  19  26
ATOM     25  C   UNL     1      42.377   5.420  12.017  0.00  0.00    +0.000 C 
ATOM     26  O   UNL     1      43.108   5.251  13.230  0.00  0.00    +0.000 OA
ENDBRANCH  19  26
ENDBRANCH  17  22
ENDBRANCH   1  17
TORSDOF 5
ENDMDL
MODEL 8
REMARK VINA RESULT:    -5.943      5.253      9.083
REMARK INTER + INTRA:          -8.477
REMARK INTER:                  -7.701
REMARK INTRA:                  -0.776
REMARK UNBOUND:                -0.797
REMARK  Name = 
REMARK  7 active torsions:
REMARK  status: ('A' for Active; 'I' for Inactive)
REMARK    1  A    between atoms: C_1  and  O_2
REMARK    2  A    between atoms: O_2  and  C_3
REMARK    3  A    between atoms: C_6  and  N_7
REMARK    4  A    between atoms: N_7  and  C_8
REMARK    5  A    between atoms: C_8  and  C_9
REMARK    6  A    between atoms: C_12  and  C_13
REMARK    7  A    between atoms: C_14  and  N_15
REMARK                            x       y       z     vdW  Elec       q    Type
REMARK                         _______ _______ _______ _____ _____    ______ ____
ROOT
ATOM      1  C   UNL     1      48.164   4.298  16.778  0.00  0.00    +0.000 C 
ATOM      2  C   UNL     1      47.207   3.318  17.432  0.00  0.00    +0.000 C 
ATOM      3  C   UNL     1      48.376   2.792  16.669  0.00  0.00    +0.000 C 
ENDROOT
BRANCH   1   4
ATOM      4  C   UNL     1      47.756   5.009  15.494  0.00  0.00    +0.000 A 
ATOM      5  C   UNL     1      48.452   6.121  15.021  0.00  0.00    +0.000 A 
ATOM      6  C   UNL     1      48.072   6.749  13.838  0.00  0.00    +0.000 A 
ATOM      7  C   UNL     1      46.963   6.301  13.089  0.00  0.00    +0.000 A 
ATOM      8  C   UNL     1      46.615   7.121  11.874  0.00  0.00    +0.000 C 
ATOM      9  C   UNL     1      46.230   5.171  13.522  0.00  0.00    +0.000 A 
ATOM     10  C   UNL     1      46.659   4.569  14.728  0.00  0.00    +0.000 A 
BRANCH   9  11
ATOM     11  N   UNL     1      45.134   4.637  12.855  0.00  0.00    +0.000 N 
ATOM     12  C   UNL     1      45.268   3.449  11.998  0.00  0.00    +0.000 C 
ATOM     13  C   UNL     1      44.852   3.785  10.566  0.00  0.00    +0.000 C 
ATOM     14  C   UNL     1      43.436   4.353  10.536  0.00  0.00    +0.000 C 
ATOM     15  C   UNL     1      43.330   5.561  11.458  0.00  0.00    +0.000 C 
ATOM     16  C   UNL     1      43.810   5.255  12.876  0.00  0.00    +0.000 C 
ENDBRANCH   9  11
ENDBRANCH   1   4
BRANCH   1  17
ATOM     17  N   UNL     1      49.109   5.076  17.613  0.00  0.00    +0.000 N 
ATOM     18  H   UNL     1      50.008   4.634  17.768  0.00  0.00    +0.000 HD
BRANCH  17  22
ATOM     19  C   UNL     1      47.695   6.976  20.997  0.00  0.00    +0.000 A 
ATOM     20  C   UNL     1      48.386   5.775  21.097  0.00  0.00    +0.000 A 
ATOM     21  N   UNL     1      48.872   5.108  20.017  0.00  0.00    +0.000 NA
ATOM     22  C   UNL     1      48.658   5.680  18.812  0.00  0.00    +0.000 A 
ATOM     23  C   UNL     1      47.944   6.884  18.733  0.00  0.00    +0.000 A 
ATOM     24  N   UNL     1      47.458   7.561  19.805  0.00  0.00    +0.000 NA
BRANCH  19  26
ATOM     25  C   UNL     1      46.925   8.935  22.003  0.00  0.00    +0.000 C 
ATOM     26  O   UNL     1      47.244   7.555  22.163  0.00  0.00    +0.000 OA
ENDBRANCH  19  26
ENDBRANCH  17  22
ENDBRANCH   1  17
TORSDOF 5
ENDMDL
MODEL 9
REMARK VINA RESULT:    -5.590      3.212      7.648
REMARK INTER + INTRA:          -8.021
REMARK INTER:                  -7.033
REMARK INTRA:                  -0.988
REMARK UNBOUND:                -0.797
REMARK  Name = 
REMARK  7 active torsions:
REMARK  status: ('A' for Active; 'I' for Inactive)
REMARK    1  A    between atoms: C_1  and  O_2
REMARK    2  A    between atoms: O_2  and  C_3
REMARK    3  A    between atoms: C_6  and  N_7
REMARK    4  A    between atoms: N_7  and  C_8
REMARK    5  A    between atoms: C_8  and  C_9
REMARK    6  A    between atoms: C_12  and  C_13
REMARK    7  A    between atoms: C_14  and  N_15
REMARK                            x       y       z     vdW  Elec       q    Type
REMARK                         _______ _______ _______ _____ _____    ______ ____
ROOT
ATOM      1  C   UNL     1      49.049   8.365  12.667  0.00  0.00    +0.000 C 
ATOM      2  C   UNL     1      50.159   7.757  11.829  0.00  0.00    +0.000 C 
ATOM      3  C   UNL     1      49.796   9.190  11.624  0.00  0.00    +0.000 C 
ENDROOT
BRANCH   1   4
ATOM      4  C   UNL     1      47.595   8.042  12.345  0.00  0.00    +0.000 A 
ATOM      5  C   UNL     1      46.605   9.023  12.371  0.00  0.00    +0.000 A 
ATOM      6  C   UNL     1      45.284   8.711  12.060  0.00  0.00    +0.000 A 
ATOM      7  C   UNL     1      44.897   7.394  11.731  0.00  0.00    +0.000 A 
ATOM      8  C   UNL     1      43.423   7.182  11.496  0.00  0.00    +0.000 C 
ATOM      9  C   UNL     1      45.865   6.365  11.683  0.00  0.00    +0.000 A 
ATOM     10  C   UNL     1      47.192   6.736  12.004  0.00  0.00    +0.000 A 
BRANCH   9  11
ATOM     11  N   UNL     1      45.597   5.041  11.356  0.00  0.00    +0.000 N 
ATOM     12  C   UNL     1      45.386   4.628   9.960  0.00  0.00    +0.000 C 
ATOM     13  C   UNL     1      43.993   4.020   9.797  0.00  0.00    +0.000 C 
ATOM     14  C   UNL     1      43.793   2.863  10.771  0.00  0.00    +0.000 C 
ATOM     15  C   UNL     1      44.049   3.322  12.200  0.00  0.00    +0.000 C 
ATOM     16  C   UNL     1      45.412   3.995  12.360  0.00  0.00    +0.000 C 
ENDBRANCH   9  11
ENDBRANCH   1   4
BRANCH   1  17
ATOM     17  N   UNL     1      49.287   8.669  14.098  0.00  0.00    +0.000 N 
ATOM     18  H   UNL     1      49.959   9.408  14.272  0.00  0.00    +0.000 HD
BRANCH  17  22
ATOM     19  C   UNL     1      50.056   5.637  16.794  0.00  0.00    +0.000 A 
ATOM     20  C   UNL     1      48.752   5.938  16.422  0.00  0.00    +0.000 A 
ATOM     21  N   UNL     1      48.443   6.925  15.540  0.00  0.00    +0.000 NA
ATOM     22  C   UNL     1      49.483   7.613  15.020  0.00  0.00    +0.000 A 
ATOM     23  C   UNL     1      50.790   7.303  15.422  0.00  0.00    +0.000 A 
ATOM     24  N   UNL     1      51.110   6.317  16.299  0.00  0.00    +0.000 NA
BRANCH  19  26
ATOM     25  C   UNL     1      49.568   4.851  18.936  0.00  0.00    +0.000 C 
ATOM     26  O   UNL     1      50.244   4.619  17.703  0.00  0.00    +0.000 OA
ENDBRANCH  19  26
ENDBRANCH  17  22
ENDBRANCH   1  17
TORSDOF 5
ENDMDL
