MODEL 1
REMARK VINA RESULT:    -9.107      0.000      0.000
REMARK INTER + INTRA:         -13.433
REMARK INTER:                 -12.301
REMARK INTRA:                  -1.131
REMARK UNBOUND:                -1.131
REMARK  Name = 
REMARK  6 active torsions:
REMARK  status: ('A' for Active; 'I' for Inactive)
REMARK    1  A    between atoms: C_2  and  C_19
REMARK    2  A    between atoms: N_3  and  C_4
REMARK    3  A    between atoms: C_4  and  C_5
REMARK    4  A    between atoms: C_9  and  O_10
REMARK    5  A    between atoms: O_10  and  C_11
REMARK    6  A    between atoms: C_11  and  C_12
REMARK                            x       y       z     vdW  Elec       q    Type
REMARK                         _______ _______ _______ _____ _____    ______ ____
ROOT
ATOM      1  O   UNL     1      48.844   6.176  13.005  0.00  0.00    +0.000 OA
ATOM      2  C   UNL     1      48.024   6.289  13.912  0.00  0.00    +0.000 C 
ATOM      3  N   UNL     1      46.683   6.440  13.674  0.00  0.00    +0.000 N 
ATOM      4  H   UNL     1      46.063   6.692  14.437  0.00  0.00    +0.000 HD
ENDROOT
BRANCH   2   5
ATOM      5  C   UNL     1      48.428   6.204  15.318  0.00  0.00    +0.000 A 
ATOM      6  C   UNL     1      49.059   7.285  15.918  0.00  0.00    +0.000 A 
ATOM      7  S   UNL     1      49.463   7.018  17.553  0.00  0.00    +0.000 S 
ATOM      8  C   UNL     1      48.772   5.464  17.526  0.00  0.00    +0.000 A 
ATOM      9  N   UNL     1      48.748   4.692  18.645  0.00  0.00    +0.000 NA
ATOM     10  C   UNL     1      48.156   3.550  18.493  0.00  0.00    +0.000 A 
ATOM     11  N   UNL     1      47.602   3.109  17.320  0.00  0.00    +0.000 N 
ATOM     12  C   UNL     1      47.677   3.821  16.146  0.00  0.00    +0.000 A 
ATOM     13  O   UNL     1      47.307   3.333  15.081  0.00  0.00    +0.000 OA
ATOM     14  C   UNL     1      48.275   5.136  16.277  0.00  0.00    +0.000 A 
ATOM     15  H   UNL     1      47.189   2.191  17.259  0.00  0.00    +0.000 HD
ENDBRANCH   2   5
BRANCH   3  16
ATOM     16  C   UNL     1      46.142   6.483  12.343  0.00  0.00    +0.000 C 
BRANCH  16  17
ATOM     17  C   UNL     1      45.240   5.313  12.064  0.00  0.00    +0.000 A 
ATOM     18  C   UNL     1      44.469   4.736  13.081  0.00  0.00    +0.000 A 
ATOM     19  C   UNL     1      43.584   3.697  12.792  0.00  0.00    +0.000 A 
ATOM     20  C   UNL     1      43.486   3.204  11.490  0.00  0.00    +0.000 A 
ATOM     21  C   UNL     1      44.297   3.726  10.482  0.00  0.00    +0.000 A 
ATOM     22  C   UNL     1      45.157   4.787  10.768  0.00  0.00    +0.000 A 
BRANCH  21  23
ATOM     23  O   UNL     1      44.169   3.144   9.248  0.00  0.00    +0.000 OA
BRANCH  23  24
ATOM     24  C   UNL     1      44.844   3.833   8.190  0.00  0.00    +0.000 C 
BRANCH  24  25
ATOM     25  C   UNL     1      45.935   2.956   7.641  0.00  0.00    +0.000 A 
ATOM     26  C   UNL     1      46.123   1.654   8.110  0.00  0.00    +0.000 A 
ATOM     27  C   UNL     1      47.117   0.882   7.527  0.00  0.00    +0.000 A 
ATOM     28  N   UNL     1      47.913   1.311   6.522  0.00  0.00    +0.000 NA
ATOM     29  C   UNL     1      47.711   2.571   6.085  0.00  0.00    +0.000 A 
ATOM     30  C   UNL     1      46.746   3.417   6.601  0.00  0.00    +0.000 A 
ENDBRANCH  24  25
ENDBRANCH  23  24
ENDBRANCH  21  23
ENDBRANCH  16  17
ENDBRANCH   3  16
TORSDOF 6
ENDMDL
MODEL 2
REMARK VINA RESULT:    -8.525      1.856      2.585
REMARK INTER + INTRA:         -12.647
REMARK INTER:                 -11.736
REMARK INTRA:                  -0.911
REMARK UNBOUND:                -1.131
REMARK  Name = 
REMARK  6 active torsions:
REMARK  status: ('A' for Active; 'I' for Inactive)
REMARK    1  A    between atoms: C_2  and  C_19
REMARK    2  A    between atoms: N_3  and  C_4
REMARK    3  A    between atoms: C_4  and  C_5
REMARK    4  A    between atoms: C_9  and  O_10
REMARK    5  A    between atoms: O_10  and  C_11
REMARK    6  A    between atoms: C_11  and  C_12
REMARK                            x       y       z     vdW  Elec       q    Type
REMARK                         _______ _______ _______ _____ _____    ______ ____
ROOT
ATOM      1  O   UNL     1      46.597   3.348  17.028  0.00  0.00    +0.000 OA
ATOM      2  C   UNL     1      47.364   4.093  16.425  0.00  0.00    +0.000 C 
ATOM      3  N   UNL     1      47.071   4.601  15.187  0.00  0.00    +0.000 N 
ATOM      4  H   UNL     1      47.793   5.077  14.656  0.00  0.00    +0.000 HD
ENDROOT
BRANCH   2   5
ATOM      5  C   UNL     1      48.623   4.538  17.029  0.00  0.00    +0.000 A 
ATOM      6  C   UNL     1      48.748   5.848  17.470  0.00  0.00    +0.000 A 
ATOM      7  S   UNL     1      50.275   6.199  18.143  0.00  0.00    +0.000 S 
ATOM      8  C   UNL     1      50.807   4.601  17.905  0.00  0.00    +0.000 A 
ATOM      9  N   UNL     1      52.046   4.211  18.305  0.00  0.00    +0.000 NA
ATOM     10  C   UNL     1      52.305   2.959  18.099  0.00  0.00    +0.000 A 
ATOM     11  N   UNL     1      51.441   2.070  17.515  0.00  0.00    +0.000 N 
ATOM     12  C   UNL     1      50.212   2.440  17.021  0.00  0.00    +0.000 A 
ATOM     13  O   UNL     1      49.527   1.657  16.369  0.00  0.00    +0.000 OA
ATOM     14  C   UNL     1      49.849   3.820  17.284  0.00  0.00    +0.000 A 
ATOM     15  H   UNL     1      51.719   1.116  17.348  0.00  0.00    +0.000 HD
ENDBRANCH   2   5
BRANCH   3  16
ATOM     16  C   UNL     1      45.845   4.292  14.503  0.00  0.00    +0.000 C 
BRANCH  16  17
ATOM     17  C   UNL     1      45.829   4.840  13.103  0.00  0.00    +0.000 A 
ATOM     18  C   UNL     1      46.421   6.074  12.803  0.00  0.00    +0.000 A 
ATOM     19  C   UNL     1      46.460   6.536  11.487  0.00  0.00    +0.000 A 
ATOM     20  C   UNL     1      45.880   5.783  10.465  0.00  0.00    +0.000 A 
ATOM     21  C   UNL     1      45.229   4.585  10.760  0.00  0.00    +0.000 A 
ATOM     22  C   UNL     1      45.221   4.110  12.073  0.00  0.00    +0.000 A 
BRANCH  21  23
ATOM     23  O   UNL     1      44.645   3.942   9.701  0.00  0.00    +0.000 OA
BRANCH  23  24
ATOM     24  C   UNL     1      45.182   4.290   8.421  0.00  0.00    +0.000 C 
BRANCH  24  25
ATOM     25  C   UNL     1      46.055   3.171   7.925  0.00  0.00    +0.000 A 
ATOM     26  C   UNL     1      45.865   1.857   8.361  0.00  0.00    +0.000 A 
ATOM     27  C   UNL     1      46.673   0.864   7.828  0.00  0.00    +0.000 A 
ATOM     28  N   UNL     1      47.631   1.088   6.902  0.00  0.00    +0.000 NA
ATOM     29  C   UNL     1      47.794   2.364   6.495  0.00  0.00    +0.000 A 
ATOM     30  C   UNL     1      47.038   3.423   6.966  0.00  0.00    +0.000 A 
ENDBRANCH  24  25
ENDBRANCH  23  24
ENDBRANCH  21  23
ENDBRANCH  16  17
ENDBRANCH   3  16
TORSDOF 6
ENDMDL
MODEL 3
REMARK VINA RESULT:    -8.012      1.723      2.941
REMARK INTER + INTRA:         -11.953
REMARK INTER:                 -10.748
REMARK INTRA:                  -1.206
REMARK UNBOUND:                -1.131
REMARK  Name = 
REMARK  6 active torsions:
REMARK  status: ('A' for Active; 'I' for Inactive)
REMARK    1  A    between atoms: C_2  and  C_19
REMARK    2  A    between atoms: N_3  and  C_4
REMARK    3  A    between atoms: C_4  and  C_5
REMARK    4  A    between atoms: C_9  and  O_10
REMARK    5  A    between atoms: O_10  and  C_11
REMARK    6  A    between atoms: C_11  and  C_12
REMARK                            x       y       z     vdW  Elec       q    Type
REMARK                         _______ _______ _______ _____ _____    ______ ____
ROOT
ATOM      1  O   UNL     1      48.402   3.522  16.284  0.00  0.00    +0.000 OA
ATOM      2  C   UNL     1      48.035   4.673  16.065  0.00  0.00    +0.000 C 
ATOM      3  N   UNL     1      47.141   4.981  15.073  0.00  0.00    +0.000 N 
ATOM      4  H   UNL     1      46.988   5.951  14.818  0.00  0.00    +0.000 HD
ENDROOT
BRANCH   2   5
ATOM      5  C   UNL     1      48.487   5.788  16.901  0.00  0.00    +0.000 A 
ATOM      6  C   UNL     1      48.186   5.797  18.256  0.00  0.00    +0.000 A 
ATOM      7  S   UNL     1      48.785   7.165  19.078  0.00  0.00    +0.000 S 
ATOM      8  C   UNL     1      49.501   7.773  17.660  0.00  0.00    +0.000 A 
ATOM      9  N   UNL     1      50.218   8.927  17.680  0.00  0.00    +0.000 NA
ATOM     10  C   UNL     1      50.740   9.251  16.540  0.00  0.00    +0.000 A 
ATOM     11  N   UNL     1      50.594   8.530  15.382  0.00  0.00    +0.000 N 
ATOM     12  C   UNL     1      49.810   7.404  15.299  0.00  0.00    +0.000 A 
ATOM     13  O   UNL     1      49.576   6.871  14.218  0.00  0.00    +0.000 OA
ATOM     14  C   UNL     1      49.253   6.964  16.564  0.00  0.00    +0.000 A 
ATOM     15  H   UNL     1      50.995   8.859  14.518  0.00  0.00    +0.000 HD
ENDBRANCH   2   5
BRANCH   3  16
ATOM     16  C   UNL     1      46.574   3.977  14.214  0.00  0.00    +0.000 C 
BRANCH  16  17
ATOM     17  C   UNL     1      46.076   4.559  12.921  0.00  0.00    +0.000 A 
ATOM     18  C   UNL     1      46.219   5.924  12.640  0.00  0.00    +0.000 A 
ATOM     19  C   UNL     1      45.817   6.437  11.406  0.00  0.00    +0.000 A 
ATOM     20  C   UNL     1      45.238   5.594  10.455  0.00  0.00    +0.000 A 
ATOM     21  C   UNL     1      45.030   4.247  10.748  0.00  0.00    +0.000 A 
ATOM     22  C   UNL     1      45.464   3.731  11.970  0.00  0.00    +0.000 A 
BRANCH  21  23
ATOM     23  O   UNL     1      44.408   3.510   9.774  0.00  0.00    +0.000 OA
BRANCH  23  24
ATOM     24  C   UNL     1      44.750   3.881   8.435  0.00  0.00    +0.000 C 
BRANCH  24  25
ATOM     25  C   UNL     1      45.825   2.963   7.922  0.00  0.00    +0.000 A 
ATOM     26  C   UNL     1      45.874   1.621   8.306  0.00  0.00    +0.000 A 
ATOM     27  C   UNL     1      46.863   0.816   7.758  0.00  0.00    +0.000 A 
ATOM     28  N   UNL     1      47.779   1.251   6.865  0.00  0.00    +0.000 NA
ATOM     29  C   UNL     1      47.709   2.550   6.508  0.00  0.00    +0.000 A 
ATOM     30  C   UNL     1      46.761   3.431   6.997  0.00  0.00    +0.000 A 
ENDBRANCH  24  25
ENDBRANCH  23  24
ENDBRANCH  21  23
ENDBRANCH  16  17
ENDBRANCH   3  16
TORSDOF 6
ENDMDL
MODEL 4
REMARK VINA RESULT:    -7.904      1.463      2.300
REMARK INTER + INTRA:         -11.808
REMARK INTER:                 -10.780
REMARK INTRA:                  -1.028
REMARK UNBOUND:                -1.131
REMARK  Name = 
REMARK  6 active torsions:
REMARK  status: ('A' for Active; 'I' for Inactive)
REMARK    1  A    between atoms: C_2  and  C_19
REMARK    2  A    between atoms: N_3  and  C_4
REMARK    3  A    between atoms: C_4  and  C_5
REMARK    4  A    between atoms: C_9  and  O_10
REMARK    5  A    between atoms: O_10  and  C_11
REMARK    6  A    between atoms: C_11  and  C_12
REMARK                            x       y       z     vdW  Elec       q    Type
REMARK                         _______ _______ _______ _____ _____    ______ ____
ROOT
ATOM      1  O   UNL     1      47.707   3.924  13.635  0.00  0.00    +0.000 OA
ATOM      2  C   UNL     1      47.487   4.826  14.439  0.00  0.00    +0.000 C 
ATOM      3  N   UNL     1      46.939   6.025  14.065  0.00  0.00    +0.000 N 
ATOM      4  H   UNL     1      46.925   6.797  14.722  0.00  0.00    +0.000 HD
ENDROOT
BRANCH   2   5
ATOM      5  C   UNL     1      47.742   4.647  15.871  0.00  0.00    +0.000 A 
ATOM      6  C   UNL     1      47.369   3.464  16.493  0.00  0.00    +0.000 A 
ATOM      7  S   UNL     1      47.736   3.422  18.157  0.00  0.00    +0.000 S 
ATOM      8  C   UNL     1      48.443   4.969  18.095  0.00  0.00    +0.000 A 
ATOM      9  N   UNL     1      49.001   5.526  19.203  0.00  0.00    +0.000 NA
ATOM     10  C   UNL     1      49.538   6.687  19.003  0.00  0.00    +0.000 A 
ATOM     11  N   UNL     1      49.552   7.344  17.800  0.00  0.00    +0.000 N 
ATOM     12  C   UNL     1      48.928   6.855  16.677  0.00  0.00    +0.000 A 
ATOM     13  O   UNL     1      48.826   7.534  15.659  0.00  0.00    +0.000 OA
ATOM     14  C   UNL     1      48.365   5.526  16.831  0.00  0.00    +0.000 A 
ATOM     15  H   UNL     1      49.953   8.265  17.722  0.00  0.00    +0.000 HD
ENDBRANCH   2   5
BRANCH   3  16
ATOM     16  C   UNL     1      46.588   6.314  12.701  0.00  0.00    +0.000 C 
BRANCH  16  17
ATOM     17  C   UNL     1      45.320   5.620  12.288  0.00  0.00    +0.000 A 
ATOM     18  C   UNL     1      44.187   5.633  13.111  0.00  0.00    +0.000 A 
ATOM     19  C   UNL     1      42.996   5.047  12.683  0.00  0.00    +0.000 A 
ATOM     20  C   UNL     1      42.937   4.413  11.440  0.00  0.00    +0.000 A 
ATOM     21  C   UNL     1      44.077   4.335  10.639  0.00  0.00    +0.000 A 
ATOM     22  C   UNL     1      45.257   4.952  11.057  0.00  0.00    +0.000 A 
BRANCH  21  23
ATOM     23  O   UNL     1      43.937   3.649   9.462  0.00  0.00    +0.000 OA
BRANCH  23  24
ATOM     24  C   UNL     1      44.588   2.375   9.431  0.00  0.00    +0.000 C 
BRANCH  24  25
ATOM     25  C   UNL     1      45.622   2.370   8.340  0.00  0.00    +0.000 A 
ATOM     26  C   UNL     1      45.904   3.523   7.603  0.00  0.00    +0.000 A 
ATOM     27  C   UNL     1      46.903   3.462   6.643  0.00  0.00    +0.000 A 
ATOM     28  N   UNL     1      47.631   2.354   6.381  0.00  0.00    +0.000 NA
ATOM     29  C   UNL     1      47.342   1.254   7.108  0.00  0.00    +0.000 A 
ATOM     30  C   UNL     1      46.365   1.215   8.087  0.00  0.00    +0.000 A 
ENDBRANCH  24  25
ENDBRANCH  23  24
ENDBRANCH  21  23
ENDBRANCH  16  17
ENDBRANCH   3  16
TORSDOF 6
ENDMDL
MODEL 5
REMARK VINA RESULT:    -7.778      1.851      2.754
REMARK INTER + INTRA:         -11.638
REMARK INTER:                 -10.669
REMARK INTRA:                  -0.969
REMARK UNBOUND:                -1.131
REMARK  Name = 
REMARK  6 active torsions:
REMARK  status: ('A' for Active; 'I' for Inactive)
REMARK    1  A    between atoms: C_2  and  C_19
REMARK    2  A    between atoms: N_3  and  C_4
REMARK    3  A    between atoms: C_4  and  C_5
REMARK    4  A    between atoms: C_9  and  O_10
REMARK    5  A    between atoms: O_10  and  C_11
REMARK    6  A    between atoms: C_11  and  C_12
REMARK                            x       y       z     vdW  Elec       q    Type
REMARK                         _______ _______ _______ _____ _____    ______ ____
ROOT
ATOM      1  O   UNL     1      48.518   3.643  16.290  0.00  0.00    +0.000 OA
ATOM      2  C   UNL     1      48.205   4.811  16.079  0.00  0.00    +0.000 C 
ATOM      3  N   UNL     1      47.208   5.156  15.204  0.00  0.00    +0.000 N 
ATOM      4  H   UNL     1      47.090   6.128  14.935  0.00  0.00    +0.000 HD
ENDROOT
BRANCH   2   5
ATOM      5  C   UNL     1      48.842   5.914  16.805  0.00  0.00    +0.000 A 
ATOM      6  C   UNL     1      49.994   6.496  16.296  0.00  0.00    +0.000 A 
ATOM      7  S   UNL     1      50.604   7.760  17.264  0.00  0.00    +0.000 S 
ATOM      8  C   UNL     1      49.326   7.599  18.375  0.00  0.00    +0.000 A 
ATOM      9  N   UNL     1      49.228   8.425  19.450  0.00  0.00    +0.000 NA
ATOM     10  C   UNL     1      48.186   8.217  20.190  0.00  0.00    +0.000 A 
ATOM     11  N   UNL     1      47.245   7.248  19.957  0.00  0.00    +0.000 N 
ATOM     12  C   UNL     1      47.349   6.338  18.931  0.00  0.00    +0.000 A 
ATOM     13  O   UNL     1      46.575   5.391  18.840  0.00  0.00    +0.000 OA
ATOM     14  C   UNL     1      48.467   6.569  18.035  0.00  0.00    +0.000 A 
ATOM     15  H   UNL     1      46.476   7.113  20.595  0.00  0.00    +0.000 HD
ENDBRANCH   2   5
BRANCH   3  16
ATOM     16  C   UNL     1      46.463   4.173  14.466  0.00  0.00    +0.000 C 
BRANCH  16  17
ATOM     17  C   UNL     1      46.075   4.670  13.101  0.00  0.00    +0.000 A 
ATOM     18  C   UNL     1      46.283   6.004  12.731  0.00  0.00    +0.000 A 
ATOM     19  C   UNL     1      45.984   6.433  11.437  0.00  0.00    +0.000 A 
ATOM     20  C   UNL     1      45.443   5.538  10.512  0.00  0.00    +0.000 A 
ATOM     21  C   UNL     1      45.169   4.223  10.889  0.00  0.00    +0.000 A 
ATOM     22  C   UNL     1      45.501   3.790  12.174  0.00  0.00    +0.000 A 
BRANCH  21  23
ATOM     23  O   UNL     1      44.590   3.432   9.931  0.00  0.00    +0.000 OA
BRANCH  23  24
ATOM     24  C   UNL     1      44.829   3.855   8.585  0.00  0.00    +0.000 C 
BRANCH  24  25
ATOM     25  C   UNL     1      45.843   2.944   7.949  0.00  0.00    +0.000 A 
ATOM     26  C   UNL     1      46.802   3.437   7.060  0.00  0.00    +0.000 A 
ATOM     27  C   UNL     1      47.739   2.552   6.547  0.00  0.00    +0.000 A 
ATOM     28  N   UNL     1      47.788   1.239   6.861  0.00  0.00    +0.000 NA
ATOM     29  C   UNL     1      46.853   0.788   7.724  0.00  0.00    +0.000 A 
ATOM     30  C   UNL     1      45.878   1.590   8.290  0.00  0.00    +0.000 A 
ENDBRANCH  24  25
ENDBRANCH  23  24
ENDBRANCH  21  23
ENDBRANCH  16  17
ENDBRANCH   3  16
TORSDOF 6
ENDMDL
MODEL 6
REMARK VINA RESULT:    -7.427      2.123      2.547
REMARK INTER + INTRA:         -11.163
REMARK INTER:                 -10.128
REMARK INTRA:                  -1.035
REMARK UNBOUND:                -1.131
REMARK  Name = 
REMARK  6 active torsions:
REMARK  status: ('A' for Active; 'I' for Inactive)
REMARK    1  A    between atoms: C_2  and  C_19
REMARK    2  A    between atoms: N_3  and  C_4
REMARK    3  A    between atoms: C_4  and  C_5
REMARK    4  A    between atoms: C_9  and  O_10
REMARK    5  A    between atoms: O_10  and  C_11
REMARK    6  A    between atoms: C_11  and  C_12
REMARK                            x       y       z     vdW  Elec       q    Type
REMARK                         _______ _______ _______ _____ _____    ______ ____
ROOT
ATOM      1  O   UNL     1      47.401   8.648  14.251  0.00  0.00    +0.000 OA
ATOM      2  C   UNL     1      48.239   7.955  13.681  0.00  0.00    +0.000 C 
ATOM      3  N   UNL     1      47.939   7.203  12.575  0.00  0.00    +0.000 N 
ATOM      4  H   UNL     1      48.611   6.523  12.233  0.00  0.00    +0.000 HD
ENDROOT
BRANCH   2   5
ATOM      5  C   UNL     1      49.638   7.941  14.116  0.00  0.00    +0.000 A 
ATOM      6  C   UNL     1      50.581   8.688  13.423  0.00  0.00    +0.000 A 
ATOM      7  S   UNL     1      52.157   8.558  14.060  0.00  0.00    +0.000 S 
ATOM      8  C   UNL     1      51.626   7.530  15.308  0.00  0.00    +0.000 A 
ATOM      9  N   UNL     1      52.493   7.070  16.248  0.00  0.00    +0.000 NA
ATOM     10  C   UNL     1      51.948   6.331  17.161  0.00  0.00    +0.000 A 
ATOM     11  N   UNL     1      50.618   6.001  17.205  0.00  0.00    +0.000 N 
ATOM     12  C   UNL     1      49.724   6.375  16.230  0.00  0.00    +0.000 A 
ATOM     13  O   UNL     1      48.577   5.937  16.217  0.00  0.00    +0.000 OA
ATOM     14  C   UNL     1      50.273   7.257  15.217  0.00  0.00    +0.000 A 
ATOM     15  H   UNL     1      50.264   5.388  17.923  0.00  0.00    +0.000 HD
ENDBRANCH   2   5
BRANCH   3  16
ATOM     16  C   UNL     1      46.619   7.168  12.008  0.00  0.00    +0.000 C 
BRANCH  16  17
ATOM     17  C   UNL     1      46.077   5.768  11.931  0.00  0.00    +0.000 A 
ATOM     18  C   UNL     1      46.197   4.886  13.013  0.00  0.00    +0.000 A 
ATOM     19  C   UNL     1      45.626   3.614  12.953  0.00  0.00    +0.000 A 
ATOM     20  C   UNL     1      44.958   3.202  11.798  0.00  0.00    +0.000 A 
ATOM     21  C   UNL     1      44.890   4.046  10.690  0.00  0.00    +0.000 A 
ATOM     22  C   UNL     1      45.433   5.330  10.766  0.00  0.00    +0.000 A 
BRANCH  21  23
ATOM     23  O   UNL     1      44.261   3.536   9.585  0.00  0.00    +0.000 OA
BRANCH  23  24
ATOM     24  C   UNL     1      44.792   3.985   8.335  0.00  0.00    +0.000 C 
BRANCH  24  25
ATOM     25  C   UNL     1      45.847   3.021   7.866  0.00  0.00    +0.000 A 
ATOM     26  C   UNL     1      45.839   1.685   8.274  0.00  0.00    +0.000 A 
ATOM     27  C   UNL     1      46.813   0.837   7.766  0.00  0.00    +0.000 A 
ATOM     28  N   UNL     1      47.767   1.223   6.891  0.00  0.00    +0.000 NA
ATOM     29  C   UNL     1      47.752   2.517   6.510  0.00  0.00    +0.000 A 
ATOM     30  C   UNL     1      46.823   3.439   6.959  0.00  0.00    +0.000 A 
ENDBRANCH  24  25
ENDBRANCH  23  24
ENDBRANCH  21  23
ENDBRANCH  16  17
ENDBRANCH   3  16
TORSDOF 6
ENDMDL
MODEL 7
REMARK VINA RESULT:    -7.249      3.739      7.845
REMARK INTER + INTRA:         -10.923
REMARK INTER:                  -9.636
REMARK INTRA:                  -1.287
REMARK UNBOUND:                -1.131
REMARK  Name = 
REMARK  6 active torsions:
REMARK  status: ('A' for Active; 'I' for Inactive)
REMARK    1  A    between atoms: C_2  and  C_19
REMARK    2  A    between atoms: N_3  and  C_4
REMARK    3  A    between atoms: C_4  and  C_5
REMARK    4  A    between atoms: C_9  and  O_10
REMARK    5  A    between atoms: O_10  and  C_11
REMARK    6  A    between atoms: C_11  and  C_12
REMARK                            x       y       z     vdW  Elec       q    Type
REMARK                         _______ _______ _______ _____ _____    ______ ____
ROOT
ATOM      1  O   UNL     1      47.836   7.329  11.537  0.00  0.00    +0.000 OA
ATOM      2  C   UNL     1      47.077   6.929  12.416  0.00  0.00    +0.000 C 
ATOM      3  N   UNL     1      47.400   6.989  13.746  0.00  0.00    +0.000 N 
ATOM      4  H   UNL     1      46.823   6.504  14.426  0.00  0.00    +0.000 HD
ENDROOT
BRANCH   2   5
ATOM      5  C   UNL     1      45.742   6.417  12.094  0.00  0.00    +0.000 A 
ATOM      6  C   UNL     1      44.793   7.270  11.549  0.00  0.00    +0.000 A 
ATOM      7  S   UNL     1      43.297   6.515  11.237  0.00  0.00    +0.000 S 
ATOM      8  C   UNL     1      43.880   5.013  11.782  0.00  0.00    +0.000 A 
ATOM      9  N   UNL     1      43.093   3.905  11.748  0.00  0.00    +0.000 NA
ATOM     10  C   UNL     1      43.676   2.822  12.154  0.00  0.00    +0.000 A 
ATOM     11  N   UNL     1      44.969   2.756  12.606  0.00  0.00    +0.000 N 
ATOM     12  C   UNL     1      45.771   3.865  12.736  0.00  0.00    +0.000 A 
ATOM     13  O   UNL     1      46.867   3.796  13.286  0.00  0.00    +0.000 OA
ATOM     14  C   UNL     1      45.185   5.094  12.234  0.00  0.00    +0.000 A 
ATOM     15  H   UNL     1      45.351   1.887  12.946  0.00  0.00    +0.000 HD
ENDBRANCH   2   5
BRANCH   3  16
ATOM     16  C   UNL     1      48.654   7.520  14.207  0.00  0.00    +0.000 C 
BRANCH  16  17
ATOM     17  C   UNL     1      48.667   7.719  15.697  0.00  0.00    +0.000 A 
ATOM     18  C   UNL     1      48.242   8.925  16.269  0.00  0.00    +0.000 A 
ATOM     19  C   UNL     1      48.192   9.069  17.656  0.00  0.00    +0.000 A 
ATOM     20  C   UNL     1      48.598   8.020  18.482  0.00  0.00    +0.000 A 
ATOM     21  C   UNL     1      49.087   6.838  17.924  0.00  0.00    +0.000 A 
ATOM     22  C   UNL     1      49.104   6.686  16.537  0.00  0.00    +0.000 A 
BRANCH  21  23
ATOM     23  O   UNL     1      49.511   5.886  18.813  0.00  0.00    +0.000 OA
BRANCH  23  24
ATOM     24  C   UNL     1      48.598   4.801  19.008  0.00  0.00    +0.000 C 
BRANCH  24  25
ATOM     25  C   UNL     1      48.933   3.690  18.053  0.00  0.00    +0.000 A 
ATOM     26  C   UNL     1      47.980   3.188  17.162  0.00  0.00    +0.000 A 
ATOM     27  C   UNL     1      48.368   2.196  16.274  0.00  0.00    +0.000 A 
ATOM     28  N   UNL     1      49.618   1.688  16.210  0.00  0.00    +0.000 NA
ATOM     29  C   UNL     1      50.521   2.190  17.078  0.00  0.00    +0.000 A 
ATOM     30  C   UNL     1      50.232   3.180  18.000  0.00  0.00    +0.000 A 
ENDBRANCH  24  25
ENDBRANCH  23  24
ENDBRANCH  21  23
ENDBRANCH  16  17
ENDBRANCH   3  16
TORSDOF 6
ENDMDL
MODEL 8
REMARK VINA RESULT:    -7.194      2.765      3.938
REMARK INTER + INTRA:         -10.848
REMARK INTER:                  -9.695
REMARK INTRA:                  -1.153
REMARK UNBOUND:                -1.131
REMARK  Name = 
REMARK  6 active torsions:
REMARK  status: ('A' for Active; 'I' for Inactive)
REMARK    1  A    between atoms: C_2  and  C_19
REMARK    2  A    between atoms: N_3  and  C_4
REMARK    3  A    between atoms: C_4  and  C_5
REMARK    4  A    between atoms: C_9  and  O_10
REMARK    5  A    between atoms: O_10  and  C_11
REMARK    6  A    between atoms: C_11  and  C_12
REMARK                            x       y       z     vdW  Elec       q    Type
REMARK                         _______ _______ _______ _____ _____    ______ ____
ROOT
ATOM      1  O   UNL     1      47.398   8.690  14.284  0.00  0.00    +0.000 OA
ATOM      2  C   UNL     1      48.249   7.980  13.755  0.00  0.00    +0.000 C 
ATOM      3  N   UNL     1      47.976   7.197  12.664  0.00  0.00    +0.000 N 
ATOM      4  H   UNL     1      48.655   6.507  12.359  0.00  0.00    +0.000 HD
ENDROOT
BRANCH   2   5
ATOM      5  C   UNL     1      49.637   7.977  14.226  0.00  0.00    +0.000 A 
ATOM      6  C   UNL     1      49.920   7.579  15.525  0.00  0.00    +0.000 A 
ATOM      7  S   UNL     1      51.580   7.637  15.909  0.00  0.00    +0.000 S 
ATOM      8  C   UNL     1      51.981   8.156  14.340  0.00  0.00    +0.000 A 
ATOM      9  N   UNL     1      53.276   8.363  13.983  0.00  0.00    +0.000 NA
ATOM     10  C   UNL     1      53.440   8.717  12.748  0.00  0.00    +0.000 A 
ATOM     11  N   UNL     1      52.422   8.897  11.847  0.00  0.00    +0.000 N 
ATOM     12  C   UNL     1      51.096   8.780  12.187  0.00  0.00    +0.000 A 
ATOM     13  O   UNL     1      50.207   9.095  11.402  0.00  0.00    +0.000 OA
ATOM     14  C   UNL     1      50.861   8.323  13.545  0.00  0.00    +0.000 A 
ATOM     15  H   UNL     1      52.616   9.212  10.909  0.00  0.00    +0.000 HD
ENDBRANCH   2   5
BRANCH   3  16
ATOM     16  C   UNL     1      46.671   7.147  12.065  0.00  0.00    +0.000 C 
BRANCH  16  17
ATOM     17  C   UNL     1      46.146   5.741  11.975  0.00  0.00    +0.000 A 
ATOM     18  C   UNL     1      46.302   4.842  13.038  0.00  0.00    +0.000 A 
ATOM     19  C   UNL     1      45.748   3.564  12.968  0.00  0.00    +0.000 A 
ATOM     20  C   UNL     1      45.060   3.162  11.821  0.00  0.00    +0.000 A 
ATOM     21  C   UNL     1      44.956   4.025  10.730  0.00  0.00    +0.000 A 
ATOM     22  C   UNL     1      45.483   5.314  10.817  0.00  0.00    +0.000 A 
BRANCH  21  23
ATOM     23  O   UNL     1      44.310   3.525   9.630  0.00  0.00    +0.000 OA
BRANCH  23  24
ATOM     24  C   UNL     1      44.817   3.991   8.376  0.00  0.00    +0.000 C 
BRANCH  24  25
ATOM     25  C   UNL     1      45.863   3.034   7.874  0.00  0.00    +0.000 A 
ATOM     26  C   UNL     1      45.875   1.697   8.279  0.00  0.00    +0.000 A 
ATOM     27  C   UNL     1      46.837   0.855   7.742  0.00  0.00    +0.000 A 
ATOM     28  N   UNL     1      47.763   1.248   6.839  0.00  0.00    +0.000 NA
ATOM     29  C   UNL     1      47.730   2.543   6.462  0.00  0.00    +0.000 A 
ATOM     30  C   UNL     1      46.810   3.459   6.940  0.00  0.00    +0.000 A 
ENDBRANCH  24  25
ENDBRANCH  23  24
ENDBRANCH  21  23
ENDBRANCH  16  17
ENDBRANCH   3  16
TORSDOF 6
ENDMDL
MODEL 9
REMARK VINA RESULT:    -6.934      3.984      9.595
REMARK INTER + INTRA:         -10.497
REMARK INTER:                  -9.324
REMARK INTRA:                  -1.173
REMARK UNBOUND:                -1.131
REMARK  Name = 
REMARK  6 active torsions:
REMARK  status: ('A' for Active; 'I' for Inactive)
REMARK    1  A    between atoms: C_2  and  C_19
REMARK    2  A    between atoms: N_3  and  C_4
REMARK    3  A    between atoms: C_4  and  C_5
REMARK    4  A    between atoms: C_9  and  O_10
REMARK    5  A    between atoms: O_10  and  C_11
REMARK    6  A    between atoms: C_11  and  C_12
REMARK                            x       y       z     vdW  Elec       q    Type
REMARK                         _______ _______ _______ _____ _____    ______ ____
ROOT
ATOM      1  O   UNL     1      47.355   3.107  14.046  0.00  0.00    +0.000 OA
ATOM      2  C   UNL     1      46.803   4.103  14.505  0.00  0.00    +0.000 C 
ATOM      3  N   UNL     1      46.637   4.295  15.851  0.00  0.00    +0.000 N 
ATOM      4  H   UNL     1      46.037   5.044  16.181  0.00  0.00    +0.000 HD
ENDROOT
BRANCH   2   5
ATOM      5  C   UNL     1      46.341   5.186  13.632  0.00  0.00    +0.000 A 
ATOM      6  C   UNL     1      47.179   6.260  13.368  0.00  0.00    +0.000 A 
ATOM      7  S   UNL     1      46.487   7.429  12.338  0.00  0.00    +0.000 S 
ATOM      8  C   UNL     1      45.058   6.520  12.177  0.00  0.00    +0.000 A 
ATOM      9  N   UNL     1      44.044   6.950  11.381  0.00  0.00    +0.000 NA
ATOM     10  C   UNL     1      43.034   6.141  11.319  0.00  0.00    +0.000 A 
ATOM     11  N   UNL     1      42.946   4.951  11.994  0.00  0.00    +0.000 N 
ATOM     12  C   UNL     1      43.911   4.518  12.873  0.00  0.00    +0.000 A 
ATOM     13  O   UNL     1      43.734   3.528  13.575  0.00  0.00    +0.000 OA
ATOM     14  C   UNL     1      45.092   5.359  12.930  0.00  0.00    +0.000 A 
ATOM     15  H   UNL     1      42.114   4.385  11.932  0.00  0.00    +0.000 HD
ENDBRANCH   2   5
BRANCH   3  16
ATOM     16  C   UNL     1      47.093   3.340  16.823  0.00  0.00    +0.000 C 
BRANCH  16  17
ATOM     17  C   UNL     1      48.524   3.577  17.216  0.00  0.00    +0.000 A 
ATOM     18  C   UNL     1      49.477   2.554  17.126  0.00  0.00    +0.000 A 
ATOM     19  C   UNL     1      50.816   2.809  17.426  0.00  0.00    +0.000 A 
ATOM     20  C   UNL     1      51.207   4.080  17.850  0.00  0.00    +0.000 A 
ATOM     21  C   UNL     1      50.257   5.089  18.008  0.00  0.00    +0.000 A 
ATOM     22  C   UNL     1      48.925   4.839  17.675  0.00  0.00    +0.000 A 
BRANCH  21  23
ATOM     23  O   UNL     1      50.726   6.287  18.478  0.00  0.00    +0.000 OA
BRANCH  23  24
ATOM     24  C   UNL     1      51.081   6.286  19.864  0.00  0.00    +0.000 C 
BRANCH  24  25
ATOM     25  C   UNL     1      49.831   6.326  20.699  0.00  0.00    +0.000 A 
ATOM     26  C   UNL     1      48.922   7.381  20.593  0.00  0.00    +0.000 A 
ATOM     27  C   UNL     1      47.765   7.332  21.356  0.00  0.00    +0.000 A 
ATOM     28  N   UNL     1      47.456   6.318  22.194  0.00  0.00    +0.000 NA
ATOM     29  C   UNL     1      48.349   5.309  22.277  0.00  0.00    +0.000 A 
ATOM     30  C   UNL     1      49.529   5.266  21.557  0.00  0.00    +0.000 A 
ENDBRANCH  24  25
ENDBRANCH  23  24
ENDBRANCH  21  23
ENDBRANCH  16  17
ENDBRANCH   3  16
TORSDOF 6
ENDMDL
