MODEL 1
REMARK VINA RESULT:    -8.552      0.000      0.000
REMARK INTER + INTRA:         -15.459
REMARK INTER:                 -13.552
REMARK INTRA:                  -1.908
REMARK UNBOUND:                -1.908
REMARK  Name = 
REMARK  12 active torsions:
REMARK  status: ('A' for Active; 'I' for Inactive)
REMARK    1  A    between atoms: C_1  and  N_2
REMARK    2  A    between atoms: C_4  and  C_5
REMARK    3  A    between atoms: N_7  and  C_8
REMARK    4  A    between atoms: C_8  and  C_9
REMARK    5  A    between atoms: C_12  and  C_13
REMARK    6  A    between atoms: C_13  and  N_14
REMARK    7  A    between atoms: N_14  and  C_15
REMARK    8  A    between atoms: N_14  and  C_18
REMARK    9  A    between atoms: C_15  and  C_16
REMARK   10  A    between atoms: C_16  and  O_17
REMARK   11  A    between atoms: C_18  and  C_19
REMARK   12  A    between atoms: C_28  and  O_29
REMARK                            x       y       z     vdW  Elec       q    Type
REMARK                         _______ _______ _______ _____ _____    ______ ____
ROOT
ATOM      1  C   UNL     1      46.625   7.815  12.679  0.00  0.00    +0.000 A 
ATOM      2  C   UNL     1      47.139   6.729  11.961  0.00  0.00    +0.000 A 
ATOM      3  C   UNL     1      46.310   5.974  11.137  0.00  0.00    +0.000 A 
ATOM      4  C   UNL     1      44.948   6.283  11.042  0.00  0.00    +0.000 A 
ATOM      5  C   UNL     1      44.462   7.443  11.660  0.00  0.00    +0.000 A 
ATOM      6  C   UNL     1      45.297   8.209  12.471  0.00  0.00    +0.000 A 
ENDROOT
BRANCH   1   7
ATOM      7  C   UNL     1      47.498   8.536  13.663  0.00  0.00    +0.000 C 
BRANCH   7  10
ATOM      8  C   UNL     1      49.042   7.143  14.936  0.00  0.00    +0.000 C 
ATOM      9  O   UNL     1      49.952   7.308  14.123  0.00  0.00    +0.000 OA
ATOM     10  N   UNL     1      47.802   7.702  14.790  0.00  0.00    +0.000 N 
ATOM     11  H   UNL     1      47.113   7.622  15.525  0.00  0.00    +0.000 HD
BRANCH   8  15
ATOM     12  C   UNL     1      50.775   5.280  19.236  0.00  0.00    +0.000 C 
ATOM     13  N   UNL     1      49.987   5.472  18.042  0.00  0.00    +0.000 N 
ATOM     14  C   UNL     1      50.195   6.450  17.104  0.00  0.00    +0.000 A 
ATOM     15  C   UNL     1      49.225   6.315  16.113  0.00  0.00    +0.000 A 
ATOM     16  C   UNL     1      48.414   5.192  16.487  0.00  0.00    +0.000 A 
ATOM     17  C   UNL     1      47.303   4.515  15.973  0.00  0.00    +0.000 A 
ATOM     18  N   UNL     1      46.781   3.467  16.632  0.00  0.00    +0.000 NA
ATOM     19  C   UNL     1      47.364   3.107  17.788  0.00  0.00    +0.000 A 
ATOM     20  N   UNL     1      48.432   3.664  18.388  0.00  0.00    +0.000 NA
ATOM     21  C   UNL     1      48.912   4.703  17.687  0.00  0.00    +0.000 A 
BRANCH  17  22
ATOM     22  O   UNL     1      46.668   4.843  14.800  0.00  0.00    +0.000 OA
ATOM     23  H   UNL     1      46.477   5.802  14.822  0.00  0.00    +0.000 HD
ENDBRANCH  17  22
ENDBRANCH   8  15
ENDBRANCH   7  10
ENDBRANCH   1   7
BRANCH   4  24
ATOM     24  C   UNL     1      43.994   5.332  10.358  0.00  0.00    +0.000 C 
BRANCH  24  25
ATOM     25  N   UNL     1      44.569   3.977  10.132  0.00  0.00    +0.000 NA
BRANCH  25  26
ATOM     26  C   UNL     1      43.874   2.954  10.960  0.00  0.00    +0.000 C 
BRANCH  26  27
ATOM     27  C   UNL     1      44.049   3.099  12.487  0.00  0.00    +0.000 C 
BRANCH  27  28
ATOM     28  O   UNL     1      45.412   2.890  12.856  0.00  0.00    +0.000 OA
ATOM     29  H   UNL     1      45.619   3.519  13.569  0.00  0.00    +0.000 HD
ENDBRANCH  27  28
ENDBRANCH  26  27
ENDBRANCH  25  26
BRANCH  25  30
ATOM     30  C   UNL     1      44.435   3.636   8.701  0.00  0.00    +0.000 C 
BRANCH  30  31
ATOM     31  C   UNL     1      45.632   2.930   8.102  0.00  0.00    +0.000 A 
ATOM     32  C   UNL     1      45.853   1.564   8.325  0.00  0.00    +0.000 A 
ATOM     33  C   UNL     1      46.911   0.911   7.690  0.00  0.00    +0.000 A 
ATOM     34  C   UNL     1      47.765   1.620   6.846  0.00  0.00    +0.000 A 
ATOM     35  C   UNL     1      47.576   2.986   6.650  0.00  0.00    +0.000 A 
ATOM     36  C   UNL     1      46.514   3.638   7.274  0.00  0.00    +0.000 A 
ENDBRANCH  30  31
ENDBRANCH  25  30
ENDBRANCH  24  25
ENDBRANCH   4  24
TORSDOF 11
ENDMDL
MODEL 2
REMARK VINA RESULT:    -7.530      2.391      2.826
REMARK INTER + INTRA:         -13.839
REMARK INTER:                 -12.594
REMARK INTRA:                  -1.245
REMARK UNBOUND:                -1.908
REMARK  Name = 
REMARK  12 active torsions:
REMARK  status: ('A' for Active; 'I' for Inactive)
REMARK    1  A    between atoms: C_1  and  N_2
REMARK    2  A    between atoms: C_4  and  C_5
REMARK    3  A    between atoms: N_7  and  C_8
REMARK    4  A    between atoms: C_8  and  C_9
REMARK    5  A    between atoms: C_12  and  C_13
REMARK    6  A    between atoms: C_13  and  N_14
REMARK    7  A    between atoms: N_14  and  C_15
REMARK    8  A    between atoms: N_14  and  C_18
REMARK    9  A    between atoms: C_15  and  C_16
REMARK   10  A    between atoms: C_16  and  O_17
REMARK   11  A    between atoms: C_18  and  C_19
REMARK   12  A    between atoms: C_28  and  O_29
REMARK                            x       y       z     vdW  Elec       q    Type
REMARK                         _______ _______ _______ _____ _____    ______ ____
ROOT
ATOM      1  C   UNL     1      48.421   6.698  13.307  0.00  0.00    +0.000 A 
ATOM      2  C   UNL     1      47.489   5.747  13.740  0.00  0.00    +0.000 A 
ATOM      3  C   UNL     1      46.395   5.421  12.945  0.00  0.00    +0.000 A 
ATOM      4  C   UNL     1      46.206   6.063  11.715  0.00  0.00    +0.000 A 
ATOM      5  C   UNL     1      47.202   6.919  11.228  0.00  0.00    +0.000 A 
ATOM      6  C   UNL     1      48.307   7.233  12.017  0.00  0.00    +0.000 A 
ENDROOT
BRANCH   1   7
ATOM      7  C   UNL     1      49.520   7.137  14.228  0.00  0.00    +0.000 C 
BRANCH   7  10
ATOM      8  C   UNL     1      49.341   6.741  16.627  0.00  0.00    +0.000 C 
ATOM      9  O   UNL     1      50.085   5.762  16.580  0.00  0.00    +0.000 OA
ATOM     10  N   UNL     1      49.002   7.474  15.523  0.00  0.00    +0.000 N 
ATOM     11  H   UNL     1      48.467   8.326  15.617  0.00  0.00    +0.000 HD
BRANCH   8  15
ATOM     12  C   UNL     1      47.101   9.504  20.138  0.00  0.00    +0.000 C 
ATOM     13  N   UNL     1      47.741   8.402  19.460  0.00  0.00    +0.000 N 
ATOM     14  C   UNL     1      48.215   8.431  18.173  0.00  0.00    +0.000 A 
ATOM     15  C   UNL     1      48.749   7.178  17.878  0.00  0.00    +0.000 A 
ATOM     16  C   UNL     1      48.587   6.379  19.058  0.00  0.00    +0.000 A 
ATOM     17  C   UNL     1      48.886   5.072  19.458  0.00  0.00    +0.000 A 
ATOM     18  N   UNL     1      48.560   4.647  20.691  0.00  0.00    +0.000 NA
ATOM     19  C   UNL     1      47.946   5.520  21.506  0.00  0.00    +0.000 A 
ATOM     20  N   UNL     1      47.607   6.797  21.253  0.00  0.00    +0.000 NA
ATOM     21  C   UNL     1      47.956   7.167  20.010  0.00  0.00    +0.000 A 
BRANCH  17  22
ATOM     22  O   UNL     1      49.510   4.140  18.665  0.00  0.00    +0.000 OA
ATOM     23  H   UNL     1      49.908   3.467  19.252  0.00  0.00    +0.000 HD
ENDBRANCH  17  22
ENDBRANCH   8  15
ENDBRANCH   7  10
ENDBRANCH   1   7
BRANCH   4  24
ATOM     24  C   UNL     1      44.905   5.907  10.963  0.00  0.00    +0.000 C 
BRANCH  24  25
ATOM     25  N   UNL     1      44.512   4.487  10.749  0.00  0.00    +0.000 NA
BRANCH  25  26
ATOM     26  C   UNL     1      43.283   4.148  11.518  0.00  0.00    +0.000 C 
BRANCH  26  27
ATOM     27  C   UNL     1      42.473   5.351  12.046  0.00  0.00    +0.000 C 
BRANCH  27  28
ATOM     28  O   UNL     1      42.574   5.437  13.468  0.00  0.00    +0.000 OA
ATOM     29  H   UNL     1      43.475   5.738  13.677  0.00  0.00    +0.000 HD
ENDBRANCH  27  28
ENDBRANCH  26  27
ENDBRANCH  25  26
BRANCH  25  30
ATOM     30  C   UNL     1      44.273   4.271   9.307  0.00  0.00    +0.000 C 
BRANCH  30  31
ATOM     31  C   UNL     1      45.300   3.400   8.618  0.00  0.00    +0.000 A 
ATOM     32  C   UNL     1      45.357   2.020   8.858  0.00  0.00    +0.000 A 
ATOM     33  C   UNL     1      46.250   1.218   8.145  0.00  0.00    +0.000 A 
ATOM     34  C   UNL     1      47.104   1.791   7.203  0.00  0.00    +0.000 A 
ATOM     35  C   UNL     1      47.082   3.167   6.986  0.00  0.00    +0.000 A 
ATOM     36  C   UNL     1      46.184   3.968   7.690  0.00  0.00    +0.000 A 
ENDBRANCH  30  31
ENDBRANCH  25  30
ENDBRANCH  24  25
ENDBRANCH   4  24
TORSDOF 11
ENDMDL
MODEL 3
REMARK VINA RESULT:    -7.294      1.732      2.240
REMARK INTER + INTRA:         -13.465
REMARK INTER:                 -12.201
REMARK INTRA:                  -1.264
REMARK UNBOUND:                -1.908
REMARK  Name = 
REMARK  12 active torsions:
REMARK  status: ('A' for Active; 'I' for Inactive)
REMARK    1  A    between atoms: C_1  and  N_2
REMARK    2  A    between atoms: C_4  and  C_5
REMARK    3  A    between atoms: N_7  and  C_8
REMARK    4  A    between atoms: C_8  and  C_9
REMARK    5  A    between atoms: C_12  and  C_13
REMARK    6  A    between atoms: C_13  and  N_14
REMARK    7  A    between atoms: N_14  and  C_15
REMARK    8  A    between atoms: N_14  and  C_18
REMARK    9  A    between atoms: C_15  and  C_16
REMARK   10  A    between atoms: C_16  and  O_17
REMARK   11  A    between atoms: C_18  and  C_19
REMARK   12  A    between atoms: C_28  and  O_29
REMARK                            x       y       z     vdW  Elec       q    Type
REMARK                         _______ _______ _______ _____ _____    ______ ____
ROOT
ATOM      1  C   UNL     1      47.389   7.298  13.888  0.00  0.00    +0.000 A 
ATOM      2  C   UNL     1      46.439   8.068  13.207  0.00  0.00    +0.000 A 
ATOM      3  C   UNL     1      45.757   7.542  12.115  0.00  0.00    +0.000 A 
ATOM      4  C   UNL     1      46.038   6.244  11.673  0.00  0.00    +0.000 A 
ATOM      5  C   UNL     1      46.894   5.431  12.429  0.00  0.00    +0.000 A 
ATOM      6  C   UNL     1      47.563   5.953  13.534  0.00  0.00    +0.000 A 
ENDROOT
BRANCH   1   7
ATOM      7  C   UNL     1      48.210   7.920  14.978  0.00  0.00    +0.000 C 
BRANCH   7  10
ATOM      8  C   UNL     1      49.233   6.762  16.864  0.00  0.00    +0.000 C 
ATOM      9  O   UNL     1      48.531   7.355  17.683  0.00  0.00    +0.000 OA
ATOM     10  N   UNL     1      49.150   6.979  15.516  0.00  0.00    +0.000 N 
ATOM     11  H   UNL     1      49.675   6.406  14.870  0.00  0.00    +0.000 HD
BRANCH   8  15
ATOM     12  C   UNL     1      53.327   4.665  18.816  0.00  0.00    +0.000 C 
ATOM     13  N   UNL     1      52.053   4.837  18.160  0.00  0.00    +0.000 N 
ATOM     14  C   UNL     1      51.440   6.040  17.924  0.00  0.00    +0.000 A 
ATOM     15  C   UNL     1      50.226   5.791  17.285  0.00  0.00    +0.000 A 
ATOM     16  C   UNL     1      50.131   4.368  17.131  0.00  0.00    +0.000 A 
ATOM     17  C   UNL     1      49.217   3.456  16.594  0.00  0.00    +0.000 A 
ATOM     18  N   UNL     1      49.467   2.136  16.642  0.00  0.00    +0.000 NA
ATOM     19  C   UNL     1      50.614   1.742  17.219  0.00  0.00    +0.000 A 
ATOM     20  N   UNL     1      51.576   2.507  17.766  0.00  0.00    +0.000 NA
ATOM     21  C   UNL     1      51.275   3.814  17.689  0.00  0.00    +0.000 A 
BRANCH  17  22
ATOM     22  O   UNL     1      48.031   3.805  15.996  0.00  0.00    +0.000 OA
ATOM     23  H   UNL     1      48.243   4.265  15.159  0.00  0.00    +0.000 HD
ENDBRANCH  17  22
ENDBRANCH   8  15
ENDBRANCH   7  10
ENDBRANCH   1   7
BRANCH   4  24
ATOM     24  C   UNL     1      45.497   5.752  10.351  0.00  0.00    +0.000 C 
BRANCH  24  25
ATOM     25  N   UNL     1      44.812   4.433  10.445  0.00  0.00    +0.000 NA
BRANCH  25  26
ATOM     26  C   UNL     1      43.638   4.501  11.357  0.00  0.00    +0.000 C 
BRANCH  26  27
ATOM     27  C   UNL     1      43.494   3.329  12.350  0.00  0.00    +0.000 C 
BRANCH  27  28
ATOM     28  O   UNL     1      43.064   2.148  11.672  0.00  0.00    +0.000 OA
ATOM     29  H   UNL     1      43.861   1.694  11.348  0.00  0.00    +0.000 HD
ENDBRANCH  27  28
ENDBRANCH  26  27
ENDBRANCH  25  26
BRANCH  25  30
ATOM     30  C   UNL     1      44.372   4.028   9.094  0.00  0.00    +0.000 C 
BRANCH  30  31
ATOM     31  C   UNL     1      45.368   3.184   8.329  0.00  0.00    +0.000 A 
ATOM     32  C   UNL     1      46.177   3.745   7.331  0.00  0.00    +0.000 A 
ATOM     33  C   UNL     1      47.153   2.972   6.701  0.00  0.00    +0.000 A 
ATOM     34  C   UNL     1      47.315   1.631   7.048  0.00  0.00    +0.000 A 
ATOM     35  C   UNL     1      46.490   1.055   8.011  0.00  0.00    +0.000 A 
ATOM     36  C   UNL     1      45.521   1.828   8.649  0.00  0.00    +0.000 A 
ENDBRANCH  30  31
ENDBRANCH  25  30
ENDBRANCH  24  25
ENDBRANCH   4  24
TORSDOF 11
ENDMDL
MODEL 4
REMARK VINA RESULT:    -7.225      3.018      3.638
REMARK INTER + INTRA:         -13.357
REMARK INTER:                 -12.194
REMARK INTRA:                  -1.163
REMARK UNBOUND:                -1.908
REMARK  Name = 
REMARK  12 active torsions:
REMARK  status: ('A' for Active; 'I' for Inactive)
REMARK    1  A    between atoms: C_1  and  N_2
REMARK    2  A    between atoms: C_4  and  C_5
REMARK    3  A    between atoms: N_7  and  C_8
REMARK    4  A    between atoms: C_8  and  C_9
REMARK    5  A    between atoms: C_12  and  C_13
REMARK    6  A    between atoms: C_13  and  N_14
REMARK    7  A    between atoms: N_14  and  C_15
REMARK    8  A    between atoms: N_14  and  C_18
REMARK    9  A    between atoms: C_15  and  C_16
REMARK   10  A    between atoms: C_16  and  O_17
REMARK   11  A    between atoms: C_18  and  C_19
REMARK   12  A    between atoms: C_28  and  O_29
REMARK                            x       y       z     vdW  Elec       q    Type
REMARK                         _______ _______ _______ _____ _____    ______ ____
ROOT
ATOM      1  C   UNL     1      47.812   6.652  13.707  0.00  0.00    +0.000 A 
ATOM      2  C   UNL     1      47.179   7.715  13.051  0.00  0.00    +0.000 A 
ATOM      3  C   UNL     1      46.192   7.468  12.103  0.00  0.00    +0.000 A 
ATOM      4  C   UNL     1      45.843   6.151  11.781  0.00  0.00    +0.000 A 
ATOM      5  C   UNL     1      46.385   5.095  12.525  0.00  0.00    +0.000 A 
ATOM      6  C   UNL     1      47.362   5.344  13.488  0.00  0.00    +0.000 A 
ENDROOT
BRANCH   1   7
ATOM      7  C   UNL     1      48.965   6.926  14.627  0.00  0.00    +0.000 C 
BRANCH   7  10
ATOM      8  C   UNL     1      48.667   8.157  16.710  0.00  0.00    +0.000 C 
ATOM      9  O   UNL     1      49.175   9.178  16.247  0.00  0.00    +0.000 OA
ATOM     10  N   UNL     1      48.528   7.002  15.991  0.00  0.00    +0.000 N 
ATOM     11  H   UNL     1      48.021   6.216  16.375  0.00  0.00    +0.000 HD
BRANCH   8  15
ATOM     12  C   UNL     1      47.480   6.555  21.293  0.00  0.00    +0.000 C 
ATOM     13  N   UNL     1      47.660   7.404  20.139  0.00  0.00    +0.000 N 
ATOM     14  C   UNL     1      48.161   7.001  18.929  0.00  0.00    +0.000 A 
ATOM     15  C   UNL     1      48.193   8.107  18.080  0.00  0.00    +0.000 A 
ATOM     16  C   UNL     1      47.672   9.212  18.833  0.00  0.00    +0.000 A 
ATOM     17  C   UNL     1      47.425  10.571  18.617  0.00  0.00    +0.000 A 
ATOM     18  N   UNL     1      46.922  11.335  19.601  0.00  0.00    +0.000 NA
ATOM     19  C   UNL     1      46.674  10.744  20.781  0.00  0.00    +0.000 A 
ATOM     20  N   UNL     1      46.860   9.455  21.120  0.00  0.00    +0.000 NA
ATOM     21  C   UNL     1      47.361   8.740  20.101  0.00  0.00    +0.000 A 
BRANCH  17  22
ATOM     22  O   UNL     1      47.662  11.225  17.432  0.00  0.00    +0.000 OA
ATOM     23  H   UNL     1      48.614  11.137  17.228  0.00  0.00    +0.000 HD
ENDBRANCH  17  22
ENDBRANCH   8  15
ENDBRANCH   7  10
ENDBRANCH   1   7
BRANCH   4  24
ATOM     24  C   UNL     1      44.963   5.864  10.587  0.00  0.00    +0.000 C 
BRANCH  24  25
ATOM     25  N   UNL     1      44.579   4.430  10.465  0.00  0.00    +0.000 NA
BRANCH  25  26
ATOM     26  C   UNL     1      43.341   4.138  11.239  0.00  0.00    +0.000 C 
BRANCH  26  27
ATOM     27  C   UNL     1      43.424   2.937  12.204  0.00  0.00    +0.000 C 
BRANCH  27  28
ATOM     28  O   UNL     1      43.062   1.729  11.533  0.00  0.00    +0.000 OA
ATOM     29  H   UNL     1      43.733   1.567  10.848  0.00  0.00    +0.000 HD
ENDBRANCH  27  28
ENDBRANCH  26  27
ENDBRANCH  25  26
BRANCH  25  30
ATOM     30  C   UNL     1      44.361   4.115   9.038  0.00  0.00    +0.000 C 
BRANCH  30  31
ATOM     31  C   UNL     1      45.419   3.231   8.416  0.00  0.00    +0.000 A 
ATOM     32  C   UNL     1      45.481   1.861   8.708  0.00  0.00    +0.000 A 
ATOM     33  C   UNL     1      46.404   1.044   8.054  0.00  0.00    +0.000 A 
ATOM     34  C   UNL     1      47.284   1.591   7.120  0.00  0.00    +0.000 A 
ATOM     35  C   UNL     1      47.256   2.958   6.853  0.00  0.00    +0.000 A 
ATOM     36  C   UNL     1      46.327   3.774   7.497  0.00  0.00    +0.000 A 
ENDBRANCH  30  31
ENDBRANCH  25  30
ENDBRANCH  24  25
ENDBRANCH   4  24
TORSDOF 11
ENDMDL
MODEL 5
REMARK VINA RESULT:    -6.322      1.735      2.196
REMARK INTER + INTRA:         -11.925
REMARK INTER:                 -10.802
REMARK INTRA:                  -1.123
REMARK UNBOUND:                -1.908
REMARK  Name = 
REMARK  12 active torsions:
REMARK  status: ('A' for Active; 'I' for Inactive)
REMARK    1  A    between atoms: C_1  and  N_2
REMARK    2  A    between atoms: C_4  and  C_5
REMARK    3  A    between atoms: N_7  and  C_8
REMARK    4  A    between atoms: C_8  and  C_9
REMARK    5  A    between atoms: C_12  and  C_13
REMARK    6  A    between atoms: C_13  and  N_14
REMARK    7  A    between atoms: N_14  and  C_15
REMARK    8  A    between atoms: N_14  and  C_18
REMARK    9  A    between atoms: C_15  and  C_16
REMARK   10  A    between atoms: C_16  and  O_17
REMARK   11  A    between atoms: C_18  and  C_19
REMARK   12  A    between atoms: C_28  and  O_29
REMARK                            x       y       z     vdW  Elec       q    Type
REMARK                         _______ _______ _______ _____ _____    ______ ____
ROOT
ATOM      1  C   UNL     1      47.136   7.625  13.280  0.00  0.00    +0.000 A 
ATOM      2  C   UNL     1      45.737   7.564  13.249  0.00  0.00    +0.000 A 
ATOM      3  C   UNL     1      45.084   6.910  12.210  0.00  0.00    +0.000 A 
ATOM      4  C   UNL     1      45.824   6.329  11.173  0.00  0.00    +0.000 A 
ATOM      5  C   UNL     1      47.221   6.280  11.270  0.00  0.00    +0.000 A 
ATOM      6  C   UNL     1      47.875   6.920  12.321  0.00  0.00    +0.000 A 
ENDROOT
BRANCH   1   7
ATOM      7  C   UNL     1      47.822   8.444  14.332  0.00  0.00    +0.000 C 
BRANCH   7  10
ATOM      8  C   UNL     1      49.791   7.883  15.656  0.00  0.00    +0.000 C 
ATOM      9  O   UNL     1      50.429   8.842  15.221  0.00  0.00    +0.000 OA
ATOM     10  N   UNL     1      48.508   7.605  15.273  0.00  0.00    +0.000 N 
ATOM     11  H   UNL     1      47.986   6.866  15.723  0.00  0.00    +0.000 HD
BRANCH   8  15
ATOM     12  C   UNL     1      52.956   4.777  17.960  0.00  0.00    +0.000 C 
ATOM     13  N   UNL     1      51.788   5.568  17.654  0.00  0.00    +0.000 N 
ATOM     14  C   UNL     1      51.627   6.343  16.535  0.00  0.00    +0.000 A 
ATOM     15  C   UNL     1      50.378   6.958  16.607  0.00  0.00    +0.000 A 
ATOM     16  C   UNL     1      49.774   6.510  17.829  0.00  0.00    +0.000 A 
ATOM     17  C   UNL     1      48.571   6.716  18.512  0.00  0.00    +0.000 A 
ATOM     18  N   UNL     1      48.348   6.113  19.692  0.00  0.00    +0.000 NA
ATOM     19  C   UNL     1      49.316   5.319  20.177  0.00  0.00    +0.000 A 
ATOM     20  N   UNL     1      50.509   5.032  19.626  0.00  0.00    +0.000 NA
ATOM     21  C   UNL     1      50.678   5.658  18.450  0.00  0.00    +0.000 A 
BRANCH  17  22
ATOM     22  O   UNL     1      47.551   7.518  18.063  0.00  0.00    +0.000 OA
ATOM     23  H   UNL     1      46.739   6.974  18.021  0.00  0.00    +0.000 HD
ENDBRANCH  17  22
ENDBRANCH   8  15
ENDBRANCH   7  10
ENDBRANCH   1   7
BRANCH   4  24
ATOM     24  C   UNL     1      45.133   5.840   9.922  0.00  0.00    +0.000 C 
BRANCH  24  25
ATOM     25  N   UNL     1      44.738   4.405   9.985  0.00  0.00    +0.000 NA
BRANCH  25  26
ATOM     26  C   UNL     1      43.543   4.216  10.851  0.00  0.00    +0.000 C 
BRANCH  26  27
ATOM     27  C   UNL     1      43.514   2.912  11.676  0.00  0.00    +0.000 C 
BRANCH  27  28
ATOM     28  O   UNL     1      44.723   2.765  12.423  0.00  0.00    +0.000 OA
ATOM     29  H   UNL     1      44.616   1.989  12.998  0.00  0.00    +0.000 HD
ENDBRANCH  27  28
ENDBRANCH  26  27
ENDBRANCH  25  26
BRANCH  25  30
ATOM     30  C   UNL     1      44.444   3.932   8.617  0.00  0.00    +0.000 C 
BRANCH  30  31
ATOM     31  C   UNL     1      45.524   3.073   7.998  0.00  0.00    +0.000 A 
ATOM     32  C   UNL     1      46.423   3.603   7.062  0.00  0.00    +0.000 A 
ATOM     33  C   UNL     1      47.469   2.821   6.571  0.00  0.00    +0.000 A 
ATOM     34  C   UNL     1      47.613   1.500   6.995  0.00  0.00    +0.000 A 
ATOM     35  C   UNL     1      46.701   0.952   7.894  0.00  0.00    +0.000 A 
ATOM     36  C   UNL     1      45.661   1.735   8.394  0.00  0.00    +0.000 A 
ENDBRANCH  30  31
ENDBRANCH  25  30
ENDBRANCH  24  25
ENDBRANCH   4  24
TORSDOF 11
ENDMDL
MODEL 6
REMARK VINA RESULT:    -6.182      3.088      8.256
REMARK INTER + INTRA:         -11.704
REMARK INTER:                  -9.390
REMARK INTRA:                  -2.313
REMARK UNBOUND:                -1.908
REMARK  Name = 
REMARK  12 active torsions:
REMARK  status: ('A' for Active; 'I' for Inactive)
REMARK    1  A    between atoms: C_1  and  N_2
REMARK    2  A    between atoms: C_4  and  C_5
REMARK    3  A    between atoms: N_7  and  C_8
REMARK    4  A    between atoms: C_8  and  C_9
REMARK    5  A    between atoms: C_12  and  C_13
REMARK    6  A    between atoms: C_13  and  N_14
REMARK    7  A    between atoms: N_14  and  C_15
REMARK    8  A    between atoms: N_14  and  C_18
REMARK    9  A    between atoms: C_15  and  C_16
REMARK   10  A    between atoms: C_16  and  O_17
REMARK   11  A    between atoms: C_18  and  C_19
REMARK   12  A    between atoms: C_28  and  O_29
REMARK                            x       y       z     vdW  Elec       q    Type
REMARK                         _______ _______ _______ _____ _____    ______ ____
ROOT
ATOM      1  C   UNL     1      49.622   7.586  15.315  0.00  0.00    +0.000 A 
ATOM      2  C   UNL     1      48.597   8.348  15.889  0.00  0.00    +0.000 A 
ATOM      3  C   UNL     1      48.515   8.491  17.270  0.00  0.00    +0.000 A 
ATOM      4  C   UNL     1      49.445   7.850  18.097  0.00  0.00    +0.000 A 
ATOM      5  C   UNL     1      50.541   7.194  17.520  0.00  0.00    +0.000 A 
ATOM      6  C   UNL     1      50.632   7.066  16.136  0.00  0.00    +0.000 A 
ENDROOT
BRANCH   1   7
ATOM      7  C   UNL     1      49.622   7.331  13.837  0.00  0.00    +0.000 C 
BRANCH   7  10
ATOM      8  C   UNL     1      47.615   6.168  13.086  0.00  0.00    +0.000 C 
ATOM      9  O   UNL     1      48.107   5.060  13.301  0.00  0.00    +0.000 OA
ATOM     10  N   UNL     1      48.287   7.338  13.314  0.00  0.00    +0.000 N 
ATOM     11  H   UNL     1      47.817   8.227  13.215  0.00  0.00    +0.000 HD
BRANCH   8  15
ATOM     12  C   UNL     1      43.466   8.059  11.042  0.00  0.00    +0.000 C 
ATOM     13  N   UNL     1      44.410   7.139  11.630  0.00  0.00    +0.000 N 
ATOM     14  C   UNL     1      45.671   7.463  12.059  0.00  0.00    +0.000 A 
ATOM     15  C   UNL     1      46.274   6.307  12.550  0.00  0.00    +0.000 A 
ATOM     16  C   UNL     1      45.310   5.254  12.410  0.00  0.00    +0.000 A 
ATOM     17  C   UNL     1      45.241   3.885  12.690  0.00  0.00    +0.000 A 
ATOM     18  N   UNL     1      44.131   3.187  12.398  0.00  0.00    +0.000 NA
ATOM     19  C   UNL     1      43.110   3.852  11.834  0.00  0.00    +0.000 A 
ATOM     20  N   UNL     1      43.041   5.158  11.519  0.00  0.00    +0.000 NA
ATOM     21  C   UNL     1      44.174   5.806  11.833  0.00  0.00    +0.000 A 
BRANCH  17  22
ATOM     22  O   UNL     1      46.256   3.158  13.262  0.00  0.00    +0.000 OA
ATOM     23  H   UNL     1      46.314   2.303  12.789  0.00  0.00    +0.000 HD
ENDBRANCH  17  22
ENDBRANCH   8  15
ENDBRANCH   7  10
ENDBRANCH   1   7
BRANCH   4  24
ATOM     24  C   UNL     1      49.225   7.788  19.591  0.00  0.00    +0.000 C 
BRANCH  24  25
ATOM     25  N   UNL     1      49.159   6.398  20.123  0.00  0.00    +0.000 NA
BRANCH  25  26
ATOM     26  C   UNL     1      49.179   6.392  21.611  0.00  0.00    +0.000 C 
BRANCH  26  27
ATOM     27  C   UNL     1      49.834   5.158  22.267  0.00  0.00    +0.000 C 
BRANCH  27  28
ATOM     28  O   UNL     1      50.856   4.626  21.423  0.00  0.00    +0.000 OA
ATOM     29  H   UNL     1      51.536   5.314  21.323  0.00  0.00    +0.000 HD
ENDBRANCH  27  28
ENDBRANCH  26  27
ENDBRANCH  25  26
BRANCH  25  30
ATOM     30  C   UNL     1      47.918   5.761  19.638  0.00  0.00    +0.000 C 
BRANCH  30  31
ATOM     31  C   UNL     1      48.115   4.755  18.526  0.00  0.00    +0.000 A 
ATOM     32  C   UNL     1      49.197   3.864  18.538  0.00  0.00    +0.000 A 
ATOM     33  C   UNL     1      49.311   2.882  17.552  0.00  0.00    +0.000 A 
ATOM     34  C   UNL     1      48.358   2.797  16.538  0.00  0.00    +0.000 A 
ATOM     35  C   UNL     1      47.301   3.703  16.495  0.00  0.00    +0.000 A 
ATOM     36  C   UNL     1      47.179   4.678  17.485  0.00  0.00    +0.000 A 
ENDBRANCH  30  31
ENDBRANCH  25  30
ENDBRANCH  24  25
ENDBRANCH   4  24
TORSDOF 11
ENDMDL
MODEL 7
REMARK VINA RESULT:    -5.914      5.275      7.957
REMARK INTER + INTRA:         -11.278
REMARK INTER:                  -9.773
REMARK INTRA:                  -1.505
REMARK UNBOUND:                -1.908
REMARK  Name = 
REMARK  12 active torsions:
REMARK  status: ('A' for Active; 'I' for Inactive)
REMARK    1  A    between atoms: C_1  and  N_2
REMARK    2  A    between atoms: C_4  and  C_5
REMARK    3  A    between atoms: N_7  and  C_8
REMARK    4  A    between atoms: C_8  and  C_9
REMARK    5  A    between atoms: C_12  and  C_13
REMARK    6  A    between atoms: C_13  and  N_14
REMARK    7  A    between atoms: N_14  and  C_15
REMARK    8  A    between atoms: N_14  and  C_18
REMARK    9  A    between atoms: C_15  and  C_16
REMARK   10  A    between atoms: C_16  and  O_17
REMARK   11  A    between atoms: C_18  and  C_19
REMARK   12  A    between atoms: C_28  and  O_29
REMARK                            x       y       z     vdW  Elec       q    Type
REMARK                         _______ _______ _______ _____ _____    ______ ____
ROOT
ATOM      1  C   UNL     1      44.838  10.402  11.062  0.00  0.00    +0.000 A 
ATOM      2  C   UNL     1      43.765   9.502  11.025  0.00  0.00    +0.000 A 
ATOM      3  C   UNL     1      42.578   9.848  10.389  0.00  0.00    +0.000 A 
ATOM      4  C   UNL     1      42.440  11.112   9.802  0.00  0.00    +0.000 A 
ATOM      5  C   UNL     1      43.553  11.960   9.729  0.00  0.00    +0.000 A 
ATOM      6  C   UNL     1      44.748  11.606  10.351  0.00  0.00    +0.000 A 
ENDROOT
BRANCH   1   7
ATOM      7  C   UNL     1      46.061  10.069  11.863  0.00  0.00    +0.000 C 
BRANCH   7  10
ATOM      8  C   UNL     1      47.097   7.919  12.361  0.00  0.00    +0.000 C 
ATOM      9  O   UNL     1      48.187   8.275  11.915  0.00  0.00    +0.000 OA
ATOM     10  N   UNL     1      45.995   8.729  12.372  0.00  0.00    +0.000 N 
ATOM     11  H   UNL     1      45.145   8.434  12.832  0.00  0.00    +0.000 HD
BRANCH   8  15
ATOM     12  C   UNL     1      47.299   3.879  15.297  0.00  0.00    +0.000 C 
ATOM     13  N   UNL     1      46.979   4.768  14.205  0.00  0.00    +0.000 N 
ATOM     14  C   UNL     1      47.442   6.051  14.066  0.00  0.00    +0.000 A 
ATOM     15  C   UNL     1      46.902   6.585  12.897  0.00  0.00    +0.000 A 
ATOM     16  C   UNL     1      46.088   5.554  12.318  0.00  0.00    +0.000 A 
ATOM     17  C   UNL     1      45.283   5.402  11.185  0.00  0.00    +0.000 A 
ATOM     18  N   UNL     1      44.632   4.248  10.964  0.00  0.00    +0.000 NA
ATOM     19  C   UNL     1      44.786   3.266  11.867  0.00  0.00    +0.000 A 
ATOM     20  N   UNL     1      45.528   3.277  12.989  0.00  0.00    +0.000 NA
ATOM     21  C   UNL     1      46.156   4.451  13.158  0.00  0.00    +0.000 A 
BRANCH  17  22
ATOM     22  O   UNL     1      45.089   6.374  10.233  0.00  0.00    +0.000 OA
ATOM     23  H   UNL     1      44.133   6.407  10.031  0.00  0.00    +0.000 HD
ENDBRANCH  17  22
ENDBRANCH   8  15
ENDBRANCH   7  10
ENDBRANCH   1   7
BRANCH   4  24
ATOM     24  C   UNL     1      41.087  11.594   9.333  0.00  0.00    +0.000 C 
BRANCH  24  25
ATOM     25  N   UNL     1      40.015  11.439  10.356  0.00  0.00    +0.000 NA
BRANCH  25  26
ATOM     26  C   UNL     1      40.104  12.506  11.390  0.00  0.00    +0.000 C 
BRANCH  26  27
ATOM     27  C   UNL     1      40.165  12.016  12.852  0.00  0.00    +0.000 C 
BRANCH  27  28
ATOM     28  O   UNL     1      41.454  11.477  13.146  0.00  0.00    +0.000 OA
ATOM     29  H   UNL     1      41.907  12.111  13.728  0.00  0.00    +0.000 HD
ENDBRANCH  27  28
ENDBRANCH  26  27
ENDBRANCH  25  26
BRANCH  25  30
ATOM     30  C   UNL     1      38.702  11.504   9.682  0.00  0.00    +0.000 C 
BRANCH  30  31
ATOM     31  C   UNL     1      37.581  10.797  10.411  0.00  0.00    +0.000 A 
ATOM     32  C   UNL     1      36.258  11.252  10.320  0.00  0.00    +0.000 A 
ATOM     33  C   UNL     1      35.224  10.535  10.924  0.00  0.00    +0.000 A 
ATOM     34  C   UNL     1      35.506   9.371  11.638  0.00  0.00    +0.000 A 
ATOM     35  C   UNL     1      36.822   8.933  11.768  0.00  0.00    +0.000 A 
ATOM     36  C   UNL     1      37.855   9.642  11.156  0.00  0.00    +0.000 A 
ENDBRANCH  30  31
ENDBRANCH  25  30
ENDBRANCH  24  25
ENDBRANCH   4  24
TORSDOF 11
ENDMDL
MODEL 8
REMARK VINA RESULT:    -5.793      2.819      3.961
REMARK INTER + INTRA:         -11.087
REMARK INTER:                 -10.247
REMARK INTRA:                  -0.840
REMARK UNBOUND:                -1.908
REMARK  Name = 
REMARK  12 active torsions:
REMARK  status: ('A' for Active; 'I' for Inactive)
REMARK    1  A    between atoms: C_1  and  N_2
REMARK    2  A    between atoms: C_4  and  C_5
REMARK    3  A    between atoms: N_7  and  C_8
REMARK    4  A    between atoms: C_8  and  C_9
REMARK    5  A    between atoms: C_12  and  C_13
REMARK    6  A    between atoms: C_13  and  N_14
REMARK    7  A    between atoms: N_14  and  C_15
REMARK    8  A    between atoms: N_14  and  C_18
REMARK    9  A    between atoms: C_15  and  C_16
REMARK   10  A    between atoms: C_16  and  O_17
REMARK   11  A    between atoms: C_18  and  C_19
REMARK   12  A    between atoms: C_28  and  O_29
REMARK                            x       y       z     vdW  Elec       q    Type
REMARK                         _______ _______ _______ _____ _____    ______ ____
ROOT
ATOM      1  C   UNL     1      47.508   5.559  14.394  0.00  0.00    +0.000 A 
ATOM      2  C   UNL     1      47.470   6.815  13.776  0.00  0.00    +0.000 A 
ATOM      3  C   UNL     1      46.745   7.000  12.603  0.00  0.00    +0.000 A 
ATOM      4  C   UNL     1      46.069   5.922  12.019  0.00  0.00    +0.000 A 
ATOM      5  C   UNL     1      46.004   4.701  12.703  0.00  0.00    +0.000 A 
ATOM      6  C   UNL     1      46.716   4.520  13.887  0.00  0.00    +0.000 A 
ENDROOT
BRANCH   1   7
ATOM      7  C   UNL     1      48.399   5.340  15.581  0.00  0.00    +0.000 C 
BRANCH   7  10
ATOM      8  C   UNL     1      48.281   6.359  17.792  0.00  0.00    +0.000 C 
ATOM      9  O   UNL     1      48.144   5.271  18.351  0.00  0.00    +0.000 OA
ATOM     10  N   UNL     1      48.407   6.491  16.437  0.00  0.00    +0.000 N 
ATOM     11  H   UNL     1      48.613   7.391  16.026  0.00  0.00    +0.000 HD
BRANCH   8  15
ATOM     12  C   UNL     1      47.011  10.094  20.861  0.00  0.00    +0.000 C 
ATOM     13  N   UNL     1      47.745   9.275  19.925  0.00  0.00    +0.000 N 
ATOM     14  C   UNL     1      47.307   8.088  19.397  0.00  0.00    +0.000 A 
ATOM     15  C   UNL     1      48.298   7.597  18.549  0.00  0.00    +0.000 A 
ATOM     16  C   UNL     1      49.367   8.554  18.576  0.00  0.00    +0.000 A 
ATOM     17  C   UNL     1      50.626   8.698  17.984  0.00  0.00    +0.000 A 
ATOM     18  N   UNL     1      51.391   9.766  18.266  0.00  0.00    +0.000 NA
ATOM     19  C   UNL     1      50.899  10.671  19.129  0.00  0.00    +0.000 A 
ATOM     20  N   UNL     1      49.712  10.658  19.761  0.00  0.00    +0.000 NA
ATOM     21  C   UNL     1      48.991   9.572  19.441  0.00  0.00    +0.000 A 
BRANCH  17  22
ATOM     22  O   UNL     1      51.176   7.803  17.099  0.00  0.00    +0.000 OA
ATOM     23  H   UNL     1      52.147   7.824  17.218  0.00  0.00    +0.000 HD
ENDBRANCH  17  22
ENDBRANCH   8  15
ENDBRANCH   7  10
ENDBRANCH   1   7
BRANCH   4  24
ATOM     24  C   UNL     1      45.492   6.044  10.628  0.00  0.00    +0.000 C 
BRANCH  24  25
ATOM     25  N   UNL     1      45.077   4.739  10.042  0.00  0.00    +0.000 NA
BRANCH  25  26
ATOM     26  C   UNL     1      43.602   4.557  10.131  0.00  0.00    +0.000 C 
BRANCH  26  27
ATOM     27  C   UNL     1      43.074   4.025  11.480  0.00  0.00    +0.000 C 
BRANCH  27  28
ATOM     28  O   UNL     1      42.116   4.927  12.033  0.00  0.00    +0.000 OA
ATOM     29  H   UNL     1      42.138   4.817  12.999  0.00  0.00    +0.000 HD
ENDBRANCH  27  28
ENDBRANCH  26  27
ENDBRANCH  25  26
BRANCH  25  30
ATOM     30  C   UNL     1      45.501   4.696   8.628  0.00  0.00    +0.000 C 
BRANCH  30  31
ATOM     31  C   UNL     1      46.103   3.380   8.187  0.00  0.00    +0.000 A 
ATOM     32  C   UNL     1      45.625   2.161   8.688  0.00  0.00    +0.000 A 
ATOM     33  C   UNL     1      46.130   0.954   8.201  0.00  0.00    +0.000 A 
ATOM     34  C   UNL     1      47.127   0.957   7.226  0.00  0.00    +0.000 A 
ATOM     35  C   UNL     1      47.635   2.163   6.751  0.00  0.00    +0.000 A 
ATOM     36  C   UNL     1      47.125   3.370   7.228  0.00  0.00    +0.000 A 
ENDBRANCH  30  31
ENDBRANCH  25  30
ENDBRANCH  24  25
ENDBRANCH   4  24
TORSDOF 11
ENDMDL
MODEL 9
REMARK VINA RESULT:    -5.697      3.054      7.987
REMARK INTER + INTRA:         -10.934
REMARK INTER:                  -9.429
REMARK INTRA:                  -1.506
REMARK UNBOUND:                -1.908
REMARK  Name = 
REMARK  12 active torsions:
REMARK  status: ('A' for Active; 'I' for Inactive)
REMARK    1  A    between atoms: C_1  and  N_2
REMARK    2  A    between atoms: C_4  and  C_5
REMARK    3  A    between atoms: N_7  and  C_8
REMARK    4  A    between atoms: C_8  and  C_9
REMARK    5  A    between atoms: C_12  and  C_13
REMARK    6  A    between atoms: C_13  and  N_14
REMARK    7  A    between atoms: N_14  and  C_15
REMARK    8  A    between atoms: N_14  and  C_18
REMARK    9  A    between atoms: C_15  and  C_16
REMARK   10  A    between atoms: C_16  and  O_17
REMARK   11  A    between atoms: C_18  and  C_19
REMARK   12  A    between atoms: C_28  and  O_29
REMARK                            x       y       z     vdW  Elec       q    Type
REMARK                         _______ _______ _______ _____ _____    ______ ____
ROOT
ATOM      1  C   UNL     1      48.644   9.390  15.750  0.00  0.00    +0.000 A 
ATOM      2  C   UNL     1      47.970   9.593  16.960  0.00  0.00    +0.000 A 
ATOM      3  C   UNL     1      48.541   9.184  18.161  0.00  0.00    +0.000 A 
ATOM      4  C   UNL     1      49.786   8.543  18.162  0.00  0.00    +0.000 A 
ATOM      5  C   UNL     1      50.514   8.455  16.968  0.00  0.00    +0.000 A 
ATOM      6  C   UNL     1      49.948   8.880  15.768  0.00  0.00    +0.000 A 
ENDROOT
BRANCH   1   7
ATOM      7  C   UNL     1      47.960   9.714  14.454  0.00  0.00    +0.000 C 
BRANCH   7  10
ATOM      8  C   UNL     1      47.043   8.291  12.699  0.00  0.00    +0.000 C 
ATOM      9  O   UNL     1      47.645   8.898  11.813  0.00  0.00    +0.000 OA
ATOM     10  N   UNL     1      47.132   8.624  14.023  0.00  0.00    +0.000 N 
ATOM     11  H   UNL     1      46.700   8.045  14.729  0.00  0.00    +0.000 HD
BRANCH   8  15
ATOM     12  C   UNL     1      43.331   5.514  10.835  0.00  0.00    +0.000 C 
ATOM     13  N   UNL     1      44.514   5.917  11.557  0.00  0.00    +0.000 N 
ATOM     14  C   UNL     1      45.015   7.193  11.608  0.00  0.00    +0.000 A 
ATOM     15  C   UNL     1      46.170   7.175  12.389  0.00  0.00    +0.000 A 
ATOM     16  C   UNL     1      46.346   5.820  12.825  0.00  0.00    +0.000 A 
ATOM     17  C   UNL     1      47.260   5.108  13.608  0.00  0.00    +0.000 A 
ATOM     18  N   UNL     1      47.108   3.786  13.797  0.00  0.00    +0.000 NA
ATOM     19  C   UNL     1      46.058   3.192  13.207  0.00  0.00    +0.000 A 
ATOM     20  N   UNL     1      45.108   3.754  12.438  0.00  0.00    +0.000 NA
ATOM     21  C   UNL     1      45.308   5.073  12.286  0.00  0.00    +0.000 A 
BRANCH  17  22
ATOM     22  O   UNL     1      48.350   5.666  14.231  0.00  0.00    +0.000 OA
ATOM     23  H   UNL     1      48.250   6.638  14.192  0.00  0.00    +0.000 HD
ENDBRANCH  17  22
ENDBRANCH   8  15
ENDBRANCH   7  10
ENDBRANCH   1   7
BRANCH   4  24
ATOM     24  C   UNL     1      50.301   7.875  19.416  0.00  0.00    +0.000 C 
BRANCH  24  25
ATOM     25  N   UNL     1      49.840   6.467  19.569  0.00  0.00    +0.000 NA
BRANCH  25  26
ATOM     26  C   UNL     1      49.023   6.301  20.802  0.00  0.00    +0.000 C 
BRANCH  26  27
ATOM     27  C   UNL     1      49.162   4.942  21.519  0.00  0.00    +0.000 C 
BRANCH  27  28
ATOM     28  O   UNL     1      48.110   4.059  21.126  0.00  0.00    +0.000 OA
ATOM     29  H   UNL     1      47.620   4.494  20.408  0.00  0.00    +0.000 HD
ENDBRANCH  27  28
ENDBRANCH  26  27
ENDBRANCH  25  26
BRANCH  25  30
ATOM     30  C   UNL     1      49.038   6.097  18.385  0.00  0.00    +0.000 C 
BRANCH  30  31
ATOM     31  C   UNL     1      49.325   4.720  17.830  0.00  0.00    +0.000 A 
ATOM     32  C   UNL     1      50.629   4.207  17.803  0.00  0.00    +0.000 A 
ATOM     33  C   UNL     1      50.863   2.900  17.373  0.00  0.00    +0.000 A 
ATOM     34  C   UNL     1      49.799   2.104  16.949  0.00  0.00    +0.000 A 
ATOM     35  C   UNL     1      48.505   2.618  16.935  0.00  0.00    +0.000 A 
ATOM     36  C   UNL     1      48.268   3.920  17.374  0.00  0.00    +0.000 A 
ENDBRANCH  30  31
ENDBRANCH  25  30
ENDBRANCH  24  25
ENDBRANCH   4  24
TORSDOF 11
ENDMDL
