MODEL 1
REMARK VINA RESULT:    -8.316      0.000      0.000
REMARK INTER + INTRA:         -13.704
REMARK INTER:                 -12.449
REMARK INTRA:                  -1.255
REMARK UNBOUND:                -1.255
REMARK  Name = 
REMARK  9 active torsions:
REMARK  status: ('A' for Active; 'I' for Inactive)
REMARK    1  A    between atoms: N_1  and  C_2
REMARK    2  A    between atoms: C_2  and  C_3
REMARK    3  A    between atoms: C_3  and  N_4
REMARK    4  A    between atoms: C_3  and  C_12
REMARK    5  A    between atoms: N_4  and  C_5
REMARK    6  A    between atoms: C_5  and  C_6
REMARK    7  A    between atoms: C_15  and  C_16
REMARK    8  A    between atoms: C_16  and  N_17
REMARK    9  A    between atoms: C_18  and  C_20
REMARK                            x       y       z     vdW  Elec       q    Type
REMARK                         _______ _______ _______ _____ _____    ______ ____
ROOT
ATOM      1  C   UNL     1      45.614   5.040  11.501  0.00  0.00    +0.000 A 
ATOM      2  C   UNL     1      45.847   4.651  12.834  0.00  0.00    +0.000 A 
ATOM      3  C   UNL     1      46.711   5.375  13.660  0.00  0.00    +0.000 A 
ATOM      4  C   UNL     1      47.317   6.548  13.198  0.00  0.00    +0.000 A 
ATOM      5  C   UNL     1      47.080   6.952  11.880  0.00  0.00    +0.000 A 
ATOM      6  C   UNL     1      46.248   6.203  11.040  0.00  0.00    +0.000 A 
ENDROOT
BRANCH   1   7
ATOM      7  C   UNL     1      44.766   4.140  10.597  0.00  0.00    +0.000 C 
BRANCH   7   8
ATOM      8  N   UNL     1      44.737   4.618   9.196  0.00  0.00    +0.000 NA
ATOM      9  H   UNL     1      45.619   5.082   8.979  0.00  0.00    +0.000 HD
BRANCH   8  10
ATOM     10  C   UNL     1      44.478   3.566   8.216  0.00  0.00    +0.000 C 
BRANCH  10  11
ATOM     11  C   UNL     1      45.734   2.853   7.789  0.00  0.00    +0.000 A 
ATOM     12  C   UNL     1      45.936   1.506   8.115  0.00  0.00    +0.000 A 
ATOM     13  C   UNL     1      47.081   0.875   7.665  0.00  0.00    +0.000 A 
ATOM     14  N   UNL     1      48.030   1.485   6.921  0.00  0.00    +0.000 NA
ATOM     15  C   UNL     1      47.818   2.782   6.616  0.00  0.00    +0.000 A 
ATOM     16  C   UNL     1      46.702   3.500   7.020  0.00  0.00    +0.000 A 
ENDBRANCH  10  11
ENDBRANCH   8  10
ENDBRANCH   7   8
BRANCH   7  17
ATOM     17  C   UNL     1      43.305   3.965  11.151  0.00  0.00    +0.000 C 
BRANCH  17  18
ATOM     18  N   UNL     1      42.928   2.600  11.545  0.00  0.00    +0.000 NA
ATOM     19  H   UNL     1      42.268   2.645  12.320  0.00  0.00    +0.000 HD
ATOM     20  H   UNL     1      43.749   2.103  11.887  0.00  0.00    +0.000 HD
ENDBRANCH  17  18
ENDBRANCH   7  17
ENDBRANCH   1   7
BRANCH   4  21
ATOM     21  C   UNL     1      48.255   7.324  14.087  0.00  0.00    +0.000 C 
BRANCH  21  22
ATOM     22  N   UNL     1      48.123   6.890  15.454  0.00  0.00    +0.000 N 
ATOM     23  C   UNL     1      49.188   6.463  16.201  0.00  0.00    +0.000 C 
ATOM     24  O   UNL     1      50.341   6.473  15.774  0.00  0.00    +0.000 OA
ATOM     25  H   UNL     1      47.187   6.648  15.753  0.00  0.00    +0.000 HD
BRANCH  23  26
ATOM     26  C   UNL     1      48.883   6.064  17.580  0.00  0.00    +0.000 A 
ATOM     27  C   UNL     1      49.115   4.761  17.992  0.00  0.00    +0.000 A 
ATOM     28  S   UNL     1      48.794   4.500  19.648  0.00  0.00    +0.000 S 
ATOM     29  C   UNL     1      48.278   6.109  19.856  0.00  0.00    +0.000 A 
ATOM     30  N   UNL     1      47.852   6.556  21.068  0.00  0.00    +0.000 NA
ATOM     31  C   UNL     1      47.455   7.785  21.074  0.00  0.00    +0.000 A 
ATOM     32  N   UNL     1      47.444   8.607  19.977  0.00  0.00    +0.000 N 
ATOM     33  C   UNL     1      47.895   8.210  18.741  0.00  0.00    +0.000 A 
ATOM     34  O   UNL     1      47.917   8.985  17.791  0.00  0.00    +0.000 OA
ATOM     35  C   UNL     1      48.352   6.833  18.681  0.00  0.00    +0.000 A 
ATOM     36  H   UNL     1      47.123   9.561  20.050  0.00  0.00    +0.000 HD
ENDBRANCH  23  26
ENDBRANCH  21  22
ENDBRANCH   4  21
TORSDOF 9
ENDMDL
MODEL 2
REMARK VINA RESULT:    -8.158      1.454      2.222
REMARK INTER + INTRA:         -13.467
REMARK INTER:                 -12.410
REMARK INTRA:                  -1.058
REMARK UNBOUND:                -1.255
REMARK  Name = 
REMARK  9 active torsions:
REMARK  status: ('A' for Active; 'I' for Inactive)
REMARK    1  A    between atoms: N_1  and  C_2
REMARK    2  A    between atoms: C_2  and  C_3
REMARK    3  A    between atoms: C_3  and  N_4
REMARK    4  A    between atoms: C_3  and  C_12
REMARK    5  A    between atoms: N_4  and  C_5
REMARK    6  A    between atoms: C_5  and  C_6
REMARK    7  A    between atoms: C_15  and  C_16
REMARK    8  A    between atoms: C_16  and  N_17
REMARK    9  A    between atoms: C_18  and  C_20
REMARK                            x       y       z     vdW  Elec       q    Type
REMARK                         _______ _______ _______ _____ _____    ______ ____
ROOT
ATOM      1  C   UNL     1      45.229   4.811  11.952  0.00  0.00    +0.000 A 
ATOM      2  C   UNL     1      45.729   6.024  11.438  0.00  0.00    +0.000 A 
ATOM      3  C   UNL     1      46.799   6.683  12.047  0.00  0.00    +0.000 A 
ATOM      4  C   UNL     1      47.446   6.116  13.150  0.00  0.00    +0.000 A 
ATOM      5  C   UNL     1      46.968   4.904  13.660  0.00  0.00    +0.000 A 
ATOM      6  C   UNL     1      45.869   4.265  13.075  0.00  0.00    +0.000 A 
ENDROOT
BRANCH   1   7
ATOM      7  C   UNL     1      43.970   4.198  11.330  0.00  0.00    +0.000 C 
BRANCH   7   8
ATOM      8  N   UNL     1      44.106   3.996   9.870  0.00  0.00    +0.000 NA
ATOM      9  H   UNL     1      44.816   4.631   9.506  0.00  0.00    +0.000 HD
BRANCH   8  10
ATOM     10  C   UNL     1      44.427   2.623   9.488  0.00  0.00    +0.000 C 
BRANCH  10  11
ATOM     11  C   UNL     1      45.545   2.551   8.481  0.00  0.00    +0.000 A 
ATOM     12  C   UNL     1      46.184   1.335   8.211  0.00  0.00    +0.000 A 
ATOM     13  C   UNL     1      47.175   1.302   7.245  0.00  0.00    +0.000 A 
ATOM     14  N   UNL     1      47.569   2.384   6.538  0.00  0.00    +0.000 NA
ATOM     15  C   UNL     1      46.941   3.546   6.813  0.00  0.00    +0.000 A 
ATOM     16  C   UNL     1      45.937   3.680   7.760  0.00  0.00    +0.000 A 
ENDBRANCH  10  11
ENDBRANCH   8  10
ENDBRANCH   7   8
BRANCH   7  17
ATOM     17  C   UNL     1      42.686   5.045  11.654  0.00  0.00    +0.000 C 
BRANCH  17  18
ATOM     18  N   UNL     1      42.485   5.388  13.069  0.00  0.00    +0.000 NA
ATOM     19  H   UNL     1      42.649   6.385  13.200  0.00  0.00    +0.000 HD
ATOM     20  H   UNL     1      43.171   4.900  13.641  0.00  0.00    +0.000 HD
ENDBRANCH  17  18
ENDBRANCH   7  17
ENDBRANCH   1   7
BRANCH   4  21
ATOM     21  C   UNL     1      48.596   6.832  13.811  0.00  0.00    +0.000 C 
BRANCH  21  22
ATOM     22  N   UNL     1      48.348   6.985  15.221  0.00  0.00    +0.000 N 
ATOM     23  C   UNL     1      49.261   6.627  16.177  0.00  0.00    +0.000 C 
ATOM     24  O   UNL     1      50.379   6.201  15.895  0.00  0.00    +0.000 OA
ATOM     25  H   UNL     1      47.379   7.104  15.490  0.00  0.00    +0.000 HD
BRANCH  23  26
ATOM     26  C   UNL     1      48.854   6.857  17.568  0.00  0.00    +0.000 A 
ATOM     27  C   UNL     1      48.409   8.110  17.963  0.00  0.00    +0.000 A 
ATOM     28  S   UNL     1      47.888   8.170  19.586  0.00  0.00    +0.000 S 
ATOM     29  C   UNL     1      48.295   6.536  19.834  0.00  0.00    +0.000 A 
ATOM     30  N   UNL     1      48.104   5.942  21.043  0.00  0.00    +0.000 NA
ATOM     31  C   UNL     1      48.491   4.711  21.100  0.00  0.00    +0.000 A 
ATOM     32  N   UNL     1      49.054   4.021  20.059  0.00  0.00    +0.000 N 
ATOM     33  C   UNL     1      49.237   4.569  18.811  0.00  0.00    +0.000 A 
ATOM     34  O   UNL     1      49.700   3.909  17.887  0.00  0.00    +0.000 OA
ATOM     35  C   UNL     1      48.819   5.954  18.695  0.00  0.00    +0.000 A 
ATOM     36  H   UNL     1      49.333   3.057  20.168  0.00  0.00    +0.000 HD
ENDBRANCH  23  26
ENDBRANCH  21  22
ENDBRANCH   4  21
TORSDOF 9
ENDMDL
MODEL 3
REMARK VINA RESULT:    -7.611      2.583      3.244
REMARK INTER + INTRA:         -12.648
REMARK INTER:                 -11.258
REMARK INTRA:                  -1.390
REMARK UNBOUND:                -1.255
REMARK  Name = 
REMARK  9 active torsions:
REMARK  status: ('A' for Active; 'I' for Inactive)
REMARK    1  A    between atoms: N_1  and  C_2
REMARK    2  A    between atoms: C_2  and  C_3
REMARK    3  A    between atoms: C_3  and  N_4
REMARK    4  A    between atoms: C_3  and  C_12
REMARK    5  A    between atoms: N_4  and  C_5
REMARK    6  A    between atoms: C_5  and  C_6
REMARK    7  A    between atoms: C_15  and  C_16
REMARK    8  A    between atoms: C_16  and  N_17
REMARK    9  A    between atoms: C_18  and  C_20
REMARK                            x       y       z     vdW  Elec       q    Type
REMARK                         _______ _______ _______ _____ _____    ______ ____
ROOT
ATOM      1  C   UNL     1      45.665   4.832  12.508  0.00  0.00    +0.000 A 
ATOM      2  C   UNL     1      45.779   5.896  11.592  0.00  0.00    +0.000 A 
ATOM      3  C   UNL     1      46.819   6.825  11.685  0.00  0.00    +0.000 A 
ATOM      4  C   UNL     1      47.814   6.680  12.658  0.00  0.00    +0.000 A 
ATOM      5  C   UNL     1      47.719   5.618  13.563  0.00  0.00    +0.000 A 
ATOM      6  C   UNL     1      46.654   4.712  13.495  0.00  0.00    +0.000 A 
ENDROOT
BRANCH   1   7
ATOM      7  C   UNL     1      44.435   3.921  12.446  0.00  0.00    +0.000 C 
BRANCH   7   8
ATOM      8  N   UNL     1      44.625   2.784  11.518  0.00  0.00    +0.000 NA
ATOM      9  H   UNL     1      44.204   1.946  11.919  0.00  0.00    +0.000 HD
BRANCH   8  10
ATOM     10  C   UNL     1      44.088   3.016  10.179  0.00  0.00    +0.000 C 
BRANCH  10  11
ATOM     11  C   UNL     1      45.143   2.915   9.109  0.00  0.00    +0.000 A 
ATOM     12  C   UNL     1      45.681   1.672   8.753  0.00  0.00    +0.000 A 
ATOM     13  C   UNL     1      46.615   1.617   7.733  0.00  0.00    +0.000 A 
ATOM     14  N   UNL     1      47.045   2.702   7.051  0.00  0.00    +0.000 NA
ATOM     15  C   UNL     1      46.514   3.890   7.408  0.00  0.00    +0.000 A 
ATOM     16  C   UNL     1      45.573   4.047   8.415  0.00  0.00    +0.000 A 
ENDBRANCH  10  11
ENDBRANCH   8  10
ENDBRANCH   7   8
BRANCH   7  17
ATOM     17  C   UNL     1      43.132   4.722  12.081  0.00  0.00    +0.000 C 
BRANCH  17  18
ATOM     18  N   UNL     1      42.517   5.481  13.179  0.00  0.00    +0.000 NA
ATOM     19  H   UNL     1      41.663   5.924  12.844  0.00  0.00    +0.000 HD
ATOM     20  H   UNL     1      43.143   6.230  13.471  0.00  0.00    +0.000 HD
ENDBRANCH  17  18
ENDBRANCH   7  17
ENDBRANCH   1   7
BRANCH   4  21
ATOM     21  C   UNL     1      48.931   7.687  12.762  0.00  0.00    +0.000 C 
BRANCH  21  22
ATOM     22  N   UNL     1      49.957   7.207  13.651  0.00  0.00    +0.000 N 
ATOM     23  C   UNL     1      50.167   7.740  14.895  0.00  0.00    +0.000 C 
ATOM     24  O   UNL     1      49.458   8.630  15.361  0.00  0.00    +0.000 OA
ATOM     25  H   UNL     1      50.691   6.657  13.224  0.00  0.00    +0.000 HD
BRANCH  23  26
ATOM     26  C   UNL     1      51.248   7.130  15.678  0.00  0.00    +0.000 A 
ATOM     27  C   UNL     1      52.559   7.538  15.488  0.00  0.00    +0.000 A 
ATOM     28  S   UNL     1      53.668   6.793  16.548  0.00  0.00    +0.000 S 
ATOM     29  C   UNL     1      52.440   5.854  17.260  0.00  0.00    +0.000 A 
ATOM     30  N   UNL     1      52.721   4.973  18.258  0.00  0.00    +0.000 NA
ATOM     31  C   UNL     1      51.701   4.301  18.679  0.00  0.00    +0.000 A 
ATOM     32  N   UNL     1      50.427   4.428  18.191  0.00  0.00    +0.000 N 
ATOM     33  C   UNL     1      50.090   5.327  17.207  0.00  0.00    +0.000 A 
ATOM     34  O   UNL     1      48.930   5.450  16.827  0.00  0.00    +0.000 OA
ATOM     35  C   UNL     1      51.203   6.107  16.698  0.00  0.00    +0.000 A 
ATOM     36  H   UNL     1      49.672   3.874  18.568  0.00  0.00    +0.000 HD
ENDBRANCH  23  26
ENDBRANCH  21  22
ENDBRANCH   4  21
TORSDOF 9
ENDMDL
MODEL 4
REMARK VINA RESULT:    -7.579      2.270      2.900
REMARK INTER + INTRA:         -12.600
REMARK INTER:                 -11.439
REMARK INTRA:                  -1.161
REMARK UNBOUND:                -1.255
REMARK  Name = 
REMARK  9 active torsions:
REMARK  status: ('A' for Active; 'I' for Inactive)
REMARK    1  A    between atoms: N_1  and  C_2
REMARK    2  A    between atoms: C_2  and  C_3
REMARK    3  A    between atoms: C_3  and  N_4
REMARK    4  A    between atoms: C_3  and  C_12
REMARK    5  A    between atoms: N_4  and  C_5
REMARK    6  A    between atoms: C_5  and  C_6
REMARK    7  A    between atoms: C_15  and  C_16
REMARK    8  A    between atoms: C_16  and  N_17
REMARK    9  A    between atoms: C_18  and  C_20
REMARK                            x       y       z     vdW  Elec       q    Type
REMARK                         _______ _______ _______ _____ _____    ______ ____
ROOT
ATOM      1  C   UNL     1      45.534   5.470  11.602  0.00  0.00    +0.000 A 
ATOM      2  C   UNL     1      46.417   5.000  12.594  0.00  0.00    +0.000 A 
ATOM      3  C   UNL     1      47.145   5.885  13.393  0.00  0.00    +0.000 A 
ATOM      4  C   UNL     1      46.963   7.267  13.270  0.00  0.00    +0.000 A 
ATOM      5  C   UNL     1      46.076   7.743  12.299  0.00  0.00    +0.000 A 
ATOM      6  C   UNL     1      45.378   6.857  11.470  0.00  0.00    +0.000 A 
ENDROOT
BRANCH   1   7
ATOM      7  C   UNL     1      44.862   4.463  10.663  0.00  0.00    +0.000 C 
BRANCH   7   8
ATOM      8  N   UNL     1      45.045   4.817   9.237  0.00  0.00    +0.000 NA
ATOM      9  H   UNL     1      46.026   5.037   9.066  0.00  0.00    +0.000 HD
BRANCH   8  10
ATOM     10  C   UNL     1      44.600   3.781   8.307  0.00  0.00    +0.000 C 
BRANCH  10  11
ATOM     11  C   UNL     1      45.735   2.922   7.816  0.00  0.00    +0.000 A 
ATOM     12  C   UNL     1      46.751   3.468   7.021  0.00  0.00    +0.000 A 
ATOM     13  C   UNL     1      47.800   2.656   6.628  0.00  0.00    +0.000 A 
ATOM     14  N   UNL     1      47.906   1.352   6.967  0.00  0.00    +0.000 NA
ATOM     15  C   UNL     1      46.918   0.844   7.733  0.00  0.00    +0.000 A 
ATOM     16  C   UNL     1      45.827   1.577   8.178  0.00  0.00    +0.000 A 
ENDBRANCH  10  11
ENDBRANCH   8  10
ENDBRANCH   7   8
BRANCH   7  17
ATOM     17  C   UNL     1      43.336   4.281  10.996  0.00  0.00    +0.000 C 
BRANCH  17  18
ATOM     18  N   UNL     1      42.942   2.956  11.494  0.00  0.00    +0.000 NA
ATOM     19  H   UNL     1      41.951   2.809  11.311  0.00  0.00    +0.000 HD
ATOM     20  H   UNL     1      43.063   2.919  12.504  0.00  0.00    +0.000 HD
ENDBRANCH  17  18
ENDBRANCH   7  17
ENDBRANCH   1   7
BRANCH   4  21
ATOM     21  C   UNL     1      47.754   8.221  14.129  0.00  0.00    +0.000 C 
BRANCH  21  22
ATOM     22  N   UNL     1      48.805   7.519  14.819  0.00  0.00    +0.000 N 
ATOM     23  C   UNL     1      49.175   7.819  16.103  0.00  0.00    +0.000 C 
ATOM     24  O   UNL     1      48.598   8.672  16.775  0.00  0.00    +0.000 OA
ATOM     25  H   UNL     1      49.442   6.991  14.237  0.00  0.00    +0.000 HD
BRANCH  23  26
ATOM     26  C   UNL     1      50.258   7.003  16.664  0.00  0.00    +0.000 A 
ATOM     27  C   UNL     1      51.484   7.581  16.954  0.00  0.00    +0.000 A 
ATOM     28  S   UNL     1      52.590   6.509  17.687  0.00  0.00    +0.000 S 
ATOM     29  C   UNL     1      51.486   5.217  17.587  0.00  0.00    +0.000 A 
ATOM     30  N   UNL     1      51.815   3.978  18.042  0.00  0.00    +0.000 NA
ATOM     31  C   UNL     1      50.897   3.085  17.870  0.00  0.00    +0.000 A 
ATOM     32  N   UNL     1      49.682   3.319  17.281  0.00  0.00    +0.000 N 
ATOM     33  C   UNL     1      49.294   4.559  16.835  0.00  0.00    +0.000 A 
ATOM     34  O   UNL     1      48.180   4.745  16.356  0.00  0.00    +0.000 OA
ATOM     35  C   UNL     1      50.292   5.600  17.005  0.00  0.00    +0.000 A 
ATOM     36  H   UNL     1      49.006   2.576  17.179  0.00  0.00    +0.000 HD
ENDBRANCH  23  26
ENDBRANCH  21  22
ENDBRANCH   4  21
TORSDOF 9
ENDMDL
MODEL 5
REMARK VINA RESULT:    -7.091      4.794      6.895
REMARK INTER + INTRA:         -11.869
REMARK INTER:                 -10.691
REMARK INTRA:                  -1.178
REMARK UNBOUND:                -1.255
REMARK  Name = 
REMARK  9 active torsions:
REMARK  status: ('A' for Active; 'I' for Inactive)
REMARK    1  A    between atoms: N_1  and  C_2
REMARK    2  A    between atoms: C_2  and  C_3
REMARK    3  A    between atoms: C_3  and  N_4
REMARK    4  A    between atoms: C_3  and  C_12
REMARK    5  A    between atoms: N_4  and  C_5
REMARK    6  A    between atoms: C_5  and  C_6
REMARK    7  A    between atoms: C_15  and  C_16
REMARK    8  A    between atoms: C_16  and  N_17
REMARK    9  A    between atoms: C_18  and  C_20
REMARK                            x       y       z     vdW  Elec       q    Type
REMARK                         _______ _______ _______ _____ _____    ______ ____
ROOT
ATOM      1  C   UNL     1      45.786   4.855  12.531  0.00  0.00    +0.000 A 
ATOM      2  C   UNL     1      45.885   5.869  11.558  0.00  0.00    +0.000 A 
ATOM      3  C   UNL     1      46.848   6.876  11.658  0.00  0.00    +0.000 A 
ATOM      4  C   UNL     1      47.785   6.862  12.697  0.00  0.00    +0.000 A 
ATOM      5  C   UNL     1      47.705   5.850  13.659  0.00  0.00    +0.000 A 
ATOM      6  C   UNL     1      46.713   4.865  13.583  0.00  0.00    +0.000 A 
ENDROOT
BRANCH   1   7
ATOM      7  C   UNL     1      44.629   3.853  12.450  0.00  0.00    +0.000 C 
BRANCH   7   8
ATOM      8  N   UNL     1      44.879   2.786  11.456  0.00  0.00    +0.000 NA
ATOM      9  H   UNL     1      44.564   1.892  11.833  0.00  0.00    +0.000 HD
BRANCH   8  10
ATOM     10  C   UNL     1      44.250   3.025  10.159  0.00  0.00    +0.000 C 
BRANCH  10  11
ATOM     11  C   UNL     1      45.221   2.895   9.014  0.00  0.00    +0.000 A 
ATOM     12  C   UNL     1      45.655   4.027   8.314  0.00  0.00    +0.000 A 
ATOM     13  C   UNL     1      46.583   3.870   7.300  0.00  0.00    +0.000 A 
ATOM     14  N   UNL     1      47.102   2.676   6.938  0.00  0.00    +0.000 NA
ATOM     15  C   UNL     1      46.672   1.597   7.624  0.00  0.00    +0.000 A 
ATOM     16  C   UNL     1      45.747   1.652   8.656  0.00  0.00    +0.000 A 
ENDBRANCH  10  11
ENDBRANCH   8  10
ENDBRANCH   7   8
BRANCH   7  17
ATOM     17  C   UNL     1      43.257   4.566  12.163  0.00  0.00    +0.000 C 
BRANCH  17  18
ATOM     18  N   UNL     1      42.756   5.445  13.230  0.00  0.00    +0.000 NA
ATOM     19  H   UNL     1      42.143   6.151  12.824  0.00  0.00    +0.000 HD
ATOM     20  H   UNL     1      43.534   5.942  13.658  0.00  0.00    +0.000 HD
ENDBRANCH  17  18
ENDBRANCH   7  17
ENDBRANCH   1   7
BRANCH   4  21
ATOM     21  C   UNL     1      48.820   7.953  12.807  0.00  0.00    +0.000 C 
BRANCH  21  22
ATOM     22  N   UNL     1      49.734   7.890  11.696  0.00  0.00    +0.000 N 
ATOM     23  C   UNL     1      51.048   8.263  11.797  0.00  0.00    +0.000 C 
ATOM     24  O   UNL     1      51.553   8.623  12.858  0.00  0.00    +0.000 OA
ATOM     25  H   UNL     1      49.311   7.829  10.778  0.00  0.00    +0.000 HD
BRANCH  23  26
ATOM     26  C   UNL     1      51.846   8.130  10.572  0.00  0.00    +0.000 A 
ATOM     27  C   UNL     1      52.202   6.873  10.109  0.00  0.00    +0.000 A 
ATOM     28  S   UNL     1      53.043   6.904   8.625  0.00  0.00    +0.000 S 
ATOM     29  C   UNL     1      53.012   8.605   8.581  0.00  0.00    +0.000 A 
ATOM     30  N   UNL     1      53.582   9.289   7.553  0.00  0.00    +0.000 NA
ATOM     31  C   UNL     1      53.517  10.574   7.666  0.00  0.00    +0.000 A 
ATOM     32  N   UNL     1      52.937  11.237   8.716  0.00  0.00    +0.000 N 
ATOM     33  C   UNL     1      52.321  10.589   9.761  0.00  0.00    +0.000 A 
ATOM     34  O   UNL     1      51.769  11.212  10.661  0.00  0.00    +0.000 OA
ATOM     35  C   UNL     1      52.368   9.140   9.681  0.00  0.00    +0.000 A 
ATOM     36  H   UNL     1      52.917  12.246   8.743  0.00  0.00    +0.000 HD
ENDBRANCH  23  26
ENDBRANCH  21  22
ENDBRANCH   4  21
TORSDOF 9
ENDMDL
MODEL 6
REMARK VINA RESULT:    -7.020      4.114      5.882
REMARK INTER + INTRA:         -11.763
REMARK INTER:                 -10.680
REMARK INTRA:                  -1.083
REMARK UNBOUND:                -1.255
REMARK  Name = 
REMARK  9 active torsions:
REMARK  status: ('A' for Active; 'I' for Inactive)
REMARK    1  A    between atoms: N_1  and  C_2
REMARK    2  A    between atoms: C_2  and  C_3
REMARK    3  A    between atoms: C_3  and  N_4
REMARK    4  A    between atoms: C_3  and  C_12
REMARK    5  A    between atoms: N_4  and  C_5
REMARK    6  A    between atoms: C_5  and  C_6
REMARK    7  A    between atoms: C_15  and  C_16
REMARK    8  A    between atoms: C_16  and  N_17
REMARK    9  A    between atoms: C_18  and  C_20
REMARK                            x       y       z     vdW  Elec       q    Type
REMARK                         _______ _______ _______ _____ _____    ______ ____
ROOT
ATOM      1  C   UNL     1      45.769   5.401  11.810  0.00  0.00    +0.000 A 
ATOM      2  C   UNL     1      46.115   4.822  13.046  0.00  0.00    +0.000 A 
ATOM      3  C   UNL     1      47.175   5.320  13.808  0.00  0.00    +0.000 A 
ATOM      4  C   UNL     1      47.879   6.454  13.388  0.00  0.00    +0.000 A 
ATOM      5  C   UNL     1      47.533   7.046  12.169  0.00  0.00    +0.000 A 
ATOM      6  C   UNL     1      46.498   6.521  11.386  0.00  0.00    +0.000 A 
ENDROOT
BRANCH   1   7
ATOM      7  C   UNL     1      44.688   4.737  10.949  0.00  0.00    +0.000 C 
BRANCH   7   8
ATOM      8  N   UNL     1      44.888   4.988   9.504  0.00  0.00    +0.000 NA
ATOM      9  H   UNL     1      45.877   5.162   9.325  0.00  0.00    +0.000 HD
BRANCH   8  10
ATOM     10  C   UNL     1      44.411   3.909   8.643  0.00  0.00    +0.000 C 
BRANCH  10  11
ATOM     11  C   UNL     1      45.532   3.053   8.115  0.00  0.00    +0.000 A 
ATOM     12  C   UNL     1      45.584   1.685   8.408  0.00  0.00    +0.000 A 
ATOM     13  C   UNL     1      46.605   0.925   7.865  0.00  0.00    +0.000 A 
ATOM     14  N   UNL     1      47.568   1.428   7.061  0.00  0.00    +0.000 NA
ATOM     15  C   UNL     1      47.501   2.748   6.790  0.00  0.00    +0.000 A 
ATOM     16  C   UNL     1      46.517   3.591   7.285  0.00  0.00    +0.000 A 
ENDBRANCH  10  11
ENDBRANCH   8  10
ENDBRANCH   7   8
BRANCH   7  17
ATOM     17  C   UNL     1      43.242   5.168  11.391  0.00  0.00    +0.000 C 
BRANCH  17  18
ATOM     18  N   UNL     1      42.844   6.536  11.031  0.00  0.00    +0.000 NA
ATOM     19  H   UNL     1      42.519   6.549  10.065  0.00  0.00    +0.000 HD
ATOM     20  H   UNL     1      43.654   7.152  11.076  0.00  0.00    +0.000 HD
ENDBRANCH  17  18
ENDBRANCH   7  17
ENDBRANCH   1   7
BRANCH   4  21
ATOM     21  C   UNL     1      49.027   6.986  14.208  0.00  0.00    +0.000 C 
BRANCH  21  22
ATOM     22  N   UNL     1      50.087   7.443  13.347  0.00  0.00    +0.000 N 
ATOM     23  C   UNL     1      50.656   8.683  13.468  0.00  0.00    +0.000 C 
ATOM     24  O   UNL     1      50.338   9.472  14.356  0.00  0.00    +0.000 OA
ATOM     25  H   UNL     1      50.206   6.932  12.482  0.00  0.00    +0.000 HD
BRANCH  23  26
ATOM     26  C   UNL     1      51.731   8.988  12.517  0.00  0.00    +0.000 A 
ATOM     27  C   UNL     1      52.980   8.407  12.672  0.00  0.00    +0.000 A 
ATOM     28  S   UNL     1      54.076   8.798  11.425  0.00  0.00    +0.000 S 
ATOM     29  C   UNL     1      52.935   9.807  10.665  0.00  0.00    +0.000 A 
ATOM     30  N   UNL     1      53.242  10.473   9.519  0.00  0.00    +0.000 NA
ATOM     31  C   UNL     1      52.296  11.230   9.072  0.00  0.00    +0.000 A 
ATOM     32  N   UNL     1      51.072  11.384   9.669  0.00  0.00    +0.000 N 
ATOM     33  C   UNL     1      50.705  10.707  10.808  0.00  0.00    +0.000 A 
ATOM     34  O   UNL     1      49.584  10.830  11.290  0.00  0.00    +0.000 OA
ATOM     35  C   UNL     1      51.736   9.842  11.352  0.00  0.00    +0.000 A 
ATOM     36  H   UNL     1      50.373  11.990   9.265  0.00  0.00    +0.000 HD
ENDBRANCH  23  26
ENDBRANCH  21  22
ENDBRANCH   4  21
TORSDOF 9
ENDMDL
MODEL 7
REMARK VINA RESULT:    -6.706      3.194      9.098
REMARK INTER + INTRA:         -11.293
REMARK INTER:                  -9.513
REMARK INTRA:                  -1.780
REMARK UNBOUND:                -1.255
REMARK  Name = 
REMARK  9 active torsions:
REMARK  status: ('A' for Active; 'I' for Inactive)
REMARK    1  A    between atoms: N_1  and  C_2
REMARK    2  A    between atoms: C_2  and  C_3
REMARK    3  A    between atoms: C_3  and  N_4
REMARK    4  A    between atoms: C_3  and  C_12
REMARK    5  A    between atoms: N_4  and  C_5
REMARK    6  A    between atoms: C_5  and  C_6
REMARK    7  A    between atoms: C_15  and  C_16
REMARK    8  A    between atoms: C_16  and  N_17
REMARK    9  A    between atoms: C_18  and  C_20
REMARK                            x       y       z     vdW  Elec       q    Type
REMARK                         _______ _______ _______ _____ _____    ______ ____
ROOT
ATOM      1  C   UNL     1      49.458   8.170  15.838  0.00  0.00    +0.000 A 
ATOM      2  C   UNL     1      48.268   8.847  15.509  0.00  0.00    +0.000 A 
ATOM      3  C   UNL     1      47.721   8.769  14.225  0.00  0.00    +0.000 A 
ATOM      4  C   UNL     1      48.312   7.957  13.251  0.00  0.00    +0.000 A 
ATOM      5  C   UNL     1      49.486   7.267  13.573  0.00  0.00    +0.000 A 
ATOM      6  C   UNL     1      50.056   7.380  14.846  0.00  0.00    +0.000 A 
ENDROOT
BRANCH   1   7
ATOM      7  C   UNL     1      50.089   8.395  17.216  0.00  0.00    +0.000 C 
BRANCH   7   8
ATOM      8  N   UNL     1      50.317   7.127  17.944  0.00  0.00    +0.000 NA
ATOM      9  H   UNL     1      50.875   7.310  18.777  0.00  0.00    +0.000 HD
BRANCH   8  10
ATOM     10  C   UNL     1      49.089   6.427  18.315  0.00  0.00    +0.000 C 
BRANCH  10  11
ATOM     11  C   UNL     1      48.963   5.086  17.642  0.00  0.00    +0.000 A 
ATOM     12  C   UNL     1      49.887   4.067  17.904  0.00  0.00    +0.000 A 
ATOM     13  C   UNL     1      49.709   2.834  17.301  0.00  0.00    +0.000 A 
ATOM     14  N   UNL     1      48.687   2.550  16.464  0.00  0.00    +0.000 NA
ATOM     15  C   UNL     1      47.808   3.544  16.224  0.00  0.00    +0.000 A 
ATOM     16  C   UNL     1      47.899   4.812  16.781  0.00  0.00    +0.000 A 
ENDBRANCH  10  11
ENDBRANCH   8  10
ENDBRANCH   7   8
BRANCH   7  17
ATOM     17  C   UNL     1      49.242   9.390  18.092  0.00  0.00    +0.000 C 
BRANCH  17  18
ATOM     18  N   UNL     1      49.627  10.806  18.006  0.00  0.00    +0.000 NA
ATOM     19  H   UNL     1      50.643  10.876  17.974  0.00  0.00    +0.000 HD
ATOM     20  H   UNL     1      49.325  11.295  18.846  0.00  0.00    +0.000 HD
ENDBRANCH  17  18
ENDBRANCH   7  17
ENDBRANCH   1   7
BRANCH   4  21
ATOM     21  C   UNL     1      47.726   7.879  11.864  0.00  0.00    +0.000 C 
BRANCH  21  22
ATOM     22  N   UNL     1      46.988   6.653  11.701  0.00  0.00    +0.000 N 
ATOM     23  C   UNL     1      45.620   6.601  11.748  0.00  0.00    +0.000 C 
ATOM     24  O   UNL     1      44.924   7.606  11.878  0.00  0.00    +0.000 OA
ATOM     25  H   UNL     1      47.515   5.798  11.828  0.00  0.00    +0.000 HD
BRANCH  23  26
ATOM     26  C   UNL     1      45.024   5.274  11.554  0.00  0.00    +0.000 A 
ATOM     27  C   UNL     1      44.350   4.656  12.597  0.00  0.00    +0.000 A 
ATOM     28  S   UNL     1      43.641   3.166  12.165  0.00  0.00    +0.000 S 
ATOM     29  C   UNL     1      44.261   3.267  10.583  0.00  0.00    +0.000 A 
ATOM     30  N   UNL     1      44.024   2.285   9.673  0.00  0.00    +0.000 NA
ATOM     31  C   UNL     1      44.585   2.473   8.525  0.00  0.00    +0.000 A 
ATOM     32  N   UNL     1      45.364   3.554   8.205  0.00  0.00    +0.000 N 
ATOM     33  C   UNL     1      45.605   4.586   9.080  0.00  0.00    +0.000 A 
ATOM     34  O   UNL     1      46.267   5.563   8.747  0.00  0.00    +0.000 OA
ATOM     35  C   UNL     1      44.996   4.422  10.388  0.00  0.00    +0.000 A 
ATOM     36  H   UNL     1      45.772   3.643   7.286  0.00  0.00    +0.000 HD
ENDBRANCH  23  26
ENDBRANCH  21  22
ENDBRANCH   4  21
TORSDOF 9
ENDMDL
MODEL 8
REMARK VINA RESULT:    -6.642      2.345      2.720
REMARK INTER + INTRA:         -11.198
REMARK INTER:                 -10.067
REMARK INTRA:                  -1.131
REMARK UNBOUND:                -1.255
REMARK  Name = 
REMARK  9 active torsions:
REMARK  status: ('A' for Active; 'I' for Inactive)
REMARK    1  A    between atoms: N_1  and  C_2
REMARK    2  A    between atoms: C_2  and  C_3
REMARK    3  A    between atoms: C_3  and  N_4
REMARK    4  A    between atoms: C_3  and  C_12
REMARK    5  A    between atoms: N_4  and  C_5
REMARK    6  A    between atoms: C_5  and  C_6
REMARK    7  A    between atoms: C_15  and  C_16
REMARK    8  A    between atoms: C_16  and  N_17
REMARK    9  A    between atoms: C_18  and  C_20
REMARK                            x       y       z     vdW  Elec       q    Type
REMARK                         _______ _______ _______ _____ _____    ______ ____
ROOT
ATOM      1  C   UNL     1      45.394   5.031  12.390  0.00  0.00    +0.000 A 
ATOM      2  C   UNL     1      45.376   6.420  12.156  0.00  0.00    +0.000 A 
ATOM      3  C   UNL     1      46.351   7.259  12.700  0.00  0.00    +0.000 A 
ATOM      4  C   UNL     1      47.412   6.727  13.440  0.00  0.00    +0.000 A 
ATOM      5  C   UNL     1      47.448   5.347  13.665  0.00  0.00    +0.000 A 
ATOM      6  C   UNL     1      46.448   4.511  13.155  0.00  0.00    +0.000 A 
ENDROOT
BRANCH   1   7
ATOM      7  C   UNL     1      44.229   4.173  11.885  0.00  0.00    +0.000 C 
BRANCH   7   8
ATOM      8  N   UNL     1      44.692   2.927  11.232  0.00  0.00    +0.000 NA
ATOM      9  H   UNL     1      44.424   2.126  11.804  0.00  0.00    +0.000 HD
BRANCH   8  10
ATOM     10  C   UNL     1      44.194   2.751   9.870  0.00  0.00    +0.000 C 
BRANCH  10  11
ATOM     11  C   UNL     1      45.300   2.753   8.847  0.00  0.00    +0.000 A 
ATOM     12  C   UNL     1      45.917   1.557   8.462  0.00  0.00    +0.000 A 
ATOM     13  C   UNL     1      46.897   1.596   7.485  0.00  0.00    +0.000 A 
ATOM     14  N   UNL     1      47.300   2.732   6.874  0.00  0.00    +0.000 NA
ATOM     15  C   UNL     1      46.693   3.874   7.258  0.00  0.00    +0.000 A 
ATOM     16  C   UNL     1      45.702   3.937   8.226  0.00  0.00    +0.000 A 
ENDBRANCH  10  11
ENDBRANCH   8  10
ENDBRANCH   7   8
BRANCH   7  17
ATOM     17  C   UNL     1      43.281   4.980  10.924  0.00  0.00    +0.000 C 
BRANCH  17  18
ATOM     18  N   UNL     1      42.000   5.410  11.502  0.00  0.00    +0.000 NA
ATOM     19  H   UNL     1      41.253   5.230  10.833  0.00  0.00    +0.000 HD
ATOM     20  H   UNL     1      42.016   6.416  11.661  0.00  0.00    +0.000 HD
ENDBRANCH  17  18
ENDBRANCH   7  17
ENDBRANCH   1   7
BRANCH   4  21
ATOM     21  C   UNL     1      48.460   7.634  14.033  0.00  0.00    +0.000 C 
BRANCH  21  22
ATOM     22  N   UNL     1      49.261   6.916  14.990  0.00  0.00    +0.000 N 
ATOM     23  C   UNL     1      49.235   7.191  16.332  0.00  0.00    +0.000 C 
ATOM     24  O   UNL     1      48.483   8.033  16.819  0.00  0.00    +0.000 OA
ATOM     25  H   UNL     1      50.044   6.398  14.612  0.00  0.00    +0.000 HD
BRANCH  23  26
ATOM     26  C   UNL     1      50.107   6.361  17.171  0.00  0.00    +0.000 A 
ATOM     27  C   UNL     1      49.860   5.002  17.297  0.00  0.00    +0.000 A 
ATOM     28  S   UNL     1      51.026   4.179  18.231  0.00  0.00    +0.000 S 
ATOM     29  C   UNL     1      51.869   5.622  18.549  0.00  0.00    +0.000 A 
ATOM     30  N   UNL     1      52.991   5.623  19.317  0.00  0.00    +0.000 NA
ATOM     31  C   UNL     1      53.508   6.792  19.507  0.00  0.00    +0.000 A 
ATOM     32  N   UNL     1      53.002   7.960  19.000  0.00  0.00    +0.000 N 
ATOM     33  C   UNL     1      51.890   8.005  18.193  0.00  0.00    +0.000 A 
ATOM     34  O   UNL     1      51.492   9.062  17.715  0.00  0.00    +0.000 OA
ATOM     35  C   UNL     1      51.271   6.715  17.950  0.00  0.00    +0.000 A 
ATOM     36  H   UNL     1      53.457   8.843  19.184  0.00  0.00    +0.000 HD
ENDBRANCH  23  26
ENDBRANCH  21  22
ENDBRANCH   4  21
TORSDOF 9
ENDMDL
MODEL 9
REMARK VINA RESULT:    -6.442      4.956      8.541
REMARK INTER + INTRA:         -10.898
REMARK INTER:                  -9.617
REMARK INTRA:                  -1.282
REMARK UNBOUND:                -1.255
REMARK  Name = 
REMARK  9 active torsions:
REMARK  status: ('A' for Active; 'I' for Inactive)
REMARK    1  A    between atoms: N_1  and  C_2
REMARK    2  A    between atoms: C_2  and  C_3
REMARK    3  A    between atoms: C_3  and  N_4
REMARK    4  A    between atoms: C_3  and  C_12
REMARK    5  A    between atoms: N_4  and  C_5
REMARK    6  A    between atoms: C_5  and  C_6
REMARK    7  A    between atoms: C_15  and  C_16
REMARK    8  A    between atoms: C_16  and  N_17
REMARK    9  A    between atoms: C_18  and  C_20
REMARK                            x       y       z     vdW  Elec       q    Type
REMARK                         _______ _______ _______ _____ _____    ______ ____
ROOT
ATOM      1  C   UNL     1      50.943   8.596  12.061  0.00  0.00    +0.000 A 
ATOM      2  C   UNL     1      50.232   7.574  11.401  0.00  0.00    +0.000 A 
ATOM      3  C   UNL     1      48.837   7.520  11.442  0.00  0.00    +0.000 A 
ATOM      4  C   UNL     1      48.106   8.522  12.089  0.00  0.00    +0.000 A 
ATOM      5  C   UNL     1      48.802   9.550  12.734  0.00  0.00    +0.000 A 
ATOM      6  C   UNL     1      50.201   9.581  12.728  0.00  0.00    +0.000 A 
ENDROOT
BRANCH   1   7
ATOM      7  C   UNL     1      52.474   8.536  12.099  0.00  0.00    +0.000 C 
BRANCH   7   8
ATOM      8  N   UNL     1      53.001   7.275  11.533  0.00  0.00    +0.000 NA
ATOM      9  H   UNL     1      52.225   6.702  11.202  0.00  0.00    +0.000 HD
BRANCH   8  10
ATOM     10  C   UNL     1      53.969   7.467  10.456  0.00  0.00    +0.000 C 
BRANCH  10  11
ATOM     11  C   UNL     1      53.578   6.746   9.193  0.00  0.00    +0.000 A 
ATOM     12  C   UNL     1      52.576   7.259   8.360  0.00  0.00    +0.000 A 
ATOM     13  C   UNL     1      52.278   6.591   7.185  0.00  0.00    +0.000 A 
ATOM     14  N   UNL     1      52.901   5.460   6.787  0.00  0.00    +0.000 NA
ATOM     15  C   UNL     1      53.864   4.982   7.603  0.00  0.00    +0.000 A 
ATOM     16  C   UNL     1      54.235   5.579   8.798  0.00  0.00    +0.000 A 
ENDBRANCH  10  11
ENDBRANCH   8  10
ENDBRANCH   7   8
BRANCH   7  17
ATOM     17  C   UNL     1      53.031   8.765  13.552  0.00  0.00    +0.000 C 
BRANCH  17  18
ATOM     18  N   UNL     1      52.821   7.662  14.500  0.00  0.00    +0.000 NA
ATOM     19  H   UNL     1      53.070   6.782  14.051  0.00  0.00    +0.000 HD
ATOM     20  H   UNL     1      51.834   7.600  14.741  0.00  0.00    +0.000 HD
ENDBRANCH  17  18
ENDBRANCH   7  17
ENDBRANCH   1   7
BRANCH   4  21
ATOM     21  C   UNL     1      46.601   8.458  12.139  0.00  0.00    +0.000 C 
BRANCH  21  22
ATOM     22  N   UNL     1      46.152   7.099  11.985  0.00  0.00    +0.000 N 
ATOM     23  C   UNL     1      44.889   6.780  11.563  0.00  0.00    +0.000 C 
ATOM     24  O   UNL     1      44.067   7.633  11.233  0.00  0.00    +0.000 OA
ATOM     25  H   UNL     1      46.701   6.394  12.461  0.00  0.00    +0.000 HD
BRANCH  23  26
ATOM     26  C   UNL     1      44.594   5.346  11.451  0.00  0.00    +0.000 A 
ATOM     27  C   UNL     1      43.944   4.689  12.484  0.00  0.00    +0.000 A 
ATOM     28  S   UNL     1      43.599   3.053  12.143  0.00  0.00    +0.000 S 
ATOM     29  C   UNL     1      44.362   3.153  10.625  0.00  0.00    +0.000 A 
ATOM     30  N   UNL     1      44.429   2.071   9.803  0.00  0.00    +0.000 NA
ATOM     31  C   UNL     1      45.067   2.278   8.699  0.00  0.00    +0.000 A 
ATOM     32  N   UNL     1      45.646   3.468   8.344  0.00  0.00    +0.000 N 
ATOM     33  C   UNL     1      45.577   4.596   9.127  0.00  0.00    +0.000 A 
ATOM     34  O   UNL     1      46.064   5.660   8.758  0.00  0.00    +0.000 OA
ATOM     35  C   UNL     1      44.869   4.415  10.382  0.00  0.00    +0.000 A 
ATOM     36  H   UNL     1      46.130   3.565   7.463  0.00  0.00    +0.000 HD
ENDBRANCH  23  26
ENDBRANCH  21  22
ENDBRANCH   4  21
TORSDOF 9
ENDMDL
