MODEL 1
REMARK VINA RESULT:    -8.620      0.000      0.000
REMARK INTER + INTRA:         -13.186
REMARK INTER:                 -11.896
REMARK INTRA:                  -1.291
REMARK UNBOUND:                -1.291
REMARK  Name = 
REMARK  7 active torsions:
REMARK  status: ('A' for Active; 'I' for Inactive)
REMARK    1  A    between atoms: C_2  and  C_20
REMARK    2  A    between atoms: N_3  and  C_4
REMARK    3  A    between atoms: C_4  and  C_5
REMARK    4  A    between atoms: C_8  and  C_9
REMARK    5  A    between atoms: C_9  and  C_10
REMARK    6  A    between atoms: C_10  and  O_11
REMARK    7  A    between atoms: C_10  and  C_12
REMARK                            x       y       z     vdW  Elec       q    Type
REMARK                         _______ _______ _______ _____ _____    ______ ____
ROOT
ATOM      1  C   UNL     1      46.694   7.796  13.251  0.00  0.00    +0.000 C 
ENDROOT
BRANCH   1   2
ATOM      2  C   UNL     1      46.017   6.832  12.317  0.00  0.00    +0.000 A 
ATOM      3  C   UNL     1      46.480   6.682  11.006  0.00  0.00    +0.000 A 
ATOM      4  C   UNL     1      45.877   5.769  10.136  0.00  0.00    +0.000 A 
ATOM      5  C   UNL     1      44.793   4.989  10.554  0.00  0.00    +0.000 A 
ATOM      6  C   UNL     1      44.304   5.175  11.857  0.00  0.00    +0.000 A 
ATOM      7  C   UNL     1      44.905   6.091  12.728  0.00  0.00    +0.000 A 
BRANCH   5   8
ATOM      8  C   UNL     1      44.143   3.921   9.690  0.00  0.00    +0.000 C 
BRANCH   8   9
ATOM      9  C   UNL     1      44.882   2.572   9.548  0.00  0.00    +0.000 C 
BRANCH   9  10
ATOM     10  C   UNL     1      45.697   2.399   8.280  0.00  0.00    +0.000 A 
ATOM     11  C   UNL     1      45.761   3.466   7.367  0.00  0.00    +0.000 A 
ATOM     12  C   UNL     1      46.574   3.397   6.235  0.00  0.00    +0.000 A 
ATOM     13  C   UNL     1      47.342   2.261   5.999  0.00  0.00    +0.000 A 
ATOM     14  C   UNL     1      47.291   1.192   6.892  0.00  0.00    +0.000 A 
ATOM     15  C   UNL     1      46.476   1.260   8.024  0.00  0.00    +0.000 A 
ENDBRANCH   9  10
BRANCH   9  16
ATOM     16  O   UNL     1      43.950   1.486   9.569  0.00  0.00    +0.000 OA
ATOM     17  H   UNL     1      44.179   0.899   8.830  0.00  0.00    +0.000 HD
ENDBRANCH   9  16
ENDBRANCH   8   9
ENDBRANCH   5   8
ENDBRANCH   1   2
BRANCH   1  20
ATOM     18  O   UNL     1      49.145   6.541  13.458  0.00  0.00    +0.000 OA
ATOM     19  C   UNL     1      48.441   6.604  14.462  0.00  0.00    +0.000 C 
ATOM     20  N   UNL     1      47.177   7.129  14.433  0.00  0.00    +0.000 N 
ATOM     21  H   UNL     1      46.705   7.349  15.304  0.00  0.00    +0.000 HD
BRANCH  19  22
ATOM     22  C   UNL     1      48.909   6.086  15.753  0.00  0.00    +0.000 A 
ATOM     23  C   UNL     1      49.931   6.741  16.426  0.00  0.00    +0.000 A 
ATOM     24  S   UNL     1      50.336   6.020  17.917  0.00  0.00    +0.000 S 
ATOM     25  C   UNL     1      49.129   4.834  17.735  0.00  0.00    +0.000 A 
ATOM     26  N   UNL     1      48.905   3.909  18.705  0.00  0.00    +0.000 NA
ATOM     27  C   UNL     1      47.932   3.096  18.453  0.00  0.00    +0.000 A 
ATOM     28  N   UNL     1      47.175   3.115  17.312  0.00  0.00    +0.000 N 
ATOM     29  C   UNL     1      47.393   4.004  16.285  0.00  0.00    +0.000 A 
ATOM     30  O   UNL     1      46.740   3.953  15.249  0.00  0.00    +0.000 OA
ATOM     31  C   UNL     1      48.453   4.963  16.536  0.00  0.00    +0.000 A 
ATOM     32  H   UNL     1      46.442   2.437  17.165  0.00  0.00    +0.000 HD
ENDBRANCH  19  22
ENDBRANCH   1  20
TORSDOF 7
ENDMDL
MODEL 2
REMARK VINA RESULT:    -7.937      2.498      4.047
REMARK INTER + INTRA:         -12.244
REMARK INTER:                 -11.060
REMARK INTRA:                  -1.184
REMARK UNBOUND:                -1.291
REMARK  Name = 
REMARK  7 active torsions:
REMARK  status: ('A' for Active; 'I' for Inactive)
REMARK    1  A    between atoms: C_2  and  C_20
REMARK    2  A    between atoms: N_3  and  C_4
REMARK    3  A    between atoms: C_4  and  C_5
REMARK    4  A    between atoms: C_8  and  C_9
REMARK    5  A    between atoms: C_9  and  C_10
REMARK    6  A    between atoms: C_10  and  O_11
REMARK    7  A    between atoms: C_10  and  C_12
REMARK                            x       y       z     vdW  Elec       q    Type
REMARK                         _______ _______ _______ _____ _____    ______ ____
ROOT
ATOM      1  C   UNL     1      47.051   4.971  14.797  0.00  0.00    +0.000 C 
ENDROOT
BRANCH   1   2
ATOM      2  C   UNL     1      46.246   4.722  13.553  0.00  0.00    +0.000 A 
ATOM      3  C   UNL     1      45.621   5.786  12.894  0.00  0.00    +0.000 A 
ATOM      4  C   UNL     1      44.893   5.571  11.721  0.00  0.00    +0.000 A 
ATOM      5  C   UNL     1      44.766   4.287  11.180  0.00  0.00    +0.000 A 
ATOM      6  C   UNL     1      45.358   3.216  11.868  0.00  0.00    +0.000 A 
ATOM      7  C   UNL     1      46.085   3.429  13.045  0.00  0.00    +0.000 A 
BRANCH   5   8
ATOM      8  C   UNL     1      44.060   3.994   9.867  0.00  0.00    +0.000 C 
BRANCH   8   9
ATOM      9  C   UNL     1      44.818   4.323   8.561  0.00  0.00    +0.000 C 
BRANCH   9  10
ATOM     10  C   UNL     1      45.665   3.201   7.993  0.00  0.00    +0.000 A 
ATOM     11  C   UNL     1      46.636   3.511   7.025  0.00  0.00    +0.000 A 
ATOM     12  C   UNL     1      47.508   2.534   6.541  0.00  0.00    +0.000 A 
ATOM     13  C   UNL     1      47.427   1.231   7.022  0.00  0.00    +0.000 A 
ATOM     14  C   UNL     1      46.470   0.904   7.980  0.00  0.00    +0.000 A 
ATOM     15  C   UNL     1      45.596   1.880   8.463  0.00  0.00    +0.000 A 
ENDBRANCH   9  10
BRANCH   9  16
ATOM     16  O   UNL     1      45.707   5.426   8.763  0.00  0.00    +0.000 OA
ATOM     17  H   UNL     1      45.676   5.649   9.708  0.00  0.00    +0.000 HD
ENDBRANCH   9  16
ENDBRANCH   8   9
ENDBRANCH   5   8
ENDBRANCH   1   2
BRANCH   1  20
ATOM     18  O   UNL     1      49.323   5.624  16.223  0.00  0.00    +0.000 OA
ATOM     19  C   UNL     1      48.879   6.452  15.432  0.00  0.00    +0.000 C 
ATOM     20  N   UNL     1      47.710   6.250  14.748  0.00  0.00    +0.000 N 
ATOM     21  H   UNL     1      47.478   6.852  13.964  0.00  0.00    +0.000 HD
BRANCH  19  22
ATOM     22  C   UNL     1      49.565   7.728  15.201  0.00  0.00    +0.000 A 
ATOM     23  C   UNL     1      49.992   8.485  16.283  0.00  0.00    +0.000 A 
ATOM     24  S   UNL     1      50.788   9.925  15.837  0.00  0.00    +0.000 S 
ATOM     25  C   UNL     1      50.630   9.564  14.181  0.00  0.00    +0.000 A 
ATOM     26  N   UNL     1      51.154  10.385  13.233  0.00  0.00    +0.000 NA
ATOM     27  C   UNL     1      50.996   9.969  12.020  0.00  0.00    +0.000 A 
ATOM     28  N   UNL     1      50.346   8.815  11.669  0.00  0.00    +0.000 N 
ATOM     29  C   UNL     1      49.763   7.976  12.590  0.00  0.00    +0.000 A 
ATOM     30  O   UNL     1      49.132   6.985  12.239  0.00  0.00    +0.000 OA
ATOM     31  C   UNL     1      49.944   8.381  13.971  0.00  0.00    +0.000 A 
ATOM     32  H   UNL     1      50.236   8.556  10.700  0.00  0.00    +0.000 HD
ENDBRANCH  19  22
ENDBRANCH   1  20
TORSDOF 7
ENDMDL
MODEL 3
REMARK VINA RESULT:    -7.913      2.239      2.773
REMARK INTER + INTRA:         -12.211
REMARK INTER:                 -11.036
REMARK INTRA:                  -1.175
REMARK UNBOUND:                -1.291
REMARK  Name = 
REMARK  7 active torsions:
REMARK  status: ('A' for Active; 'I' for Inactive)
REMARK    1  A    between atoms: C_2  and  C_20
REMARK    2  A    between atoms: N_3  and  C_4
REMARK    3  A    between atoms: C_4  and  C_5
REMARK    4  A    between atoms: C_8  and  C_9
REMARK    5  A    between atoms: C_9  and  C_10
REMARK    6  A    between atoms: C_10  and  O_11
REMARK    7  A    between atoms: C_10  and  C_12
REMARK                            x       y       z     vdW  Elec       q    Type
REMARK                         _______ _______ _______ _____ _____    ______ ____
ROOT
ATOM      1  C   UNL     1      48.161   7.010  14.078  0.00  0.00    +0.000 C 
ENDROOT
BRANCH   1   2
ATOM      2  C   UNL     1      47.214   6.327  13.132  0.00  0.00    +0.000 A 
ATOM      3  C   UNL     1      46.962   6.877  11.870  0.00  0.00    +0.000 A 
ATOM      4  C   UNL     1      46.106   6.237  10.970  0.00  0.00    +0.000 A 
ATOM      5  C   UNL     1      45.474   5.036  11.312  0.00  0.00    +0.000 A 
ATOM      6  C   UNL     1      45.696   4.510  12.595  0.00  0.00    +0.000 A 
ATOM      7  C   UNL     1      46.551   5.152  13.498  0.00  0.00    +0.000 A 
BRANCH   5   8
ATOM      8  C   UNL     1      44.598   4.245  10.355  0.00  0.00    +0.000 C 
BRANCH   8   9
ATOM      9  C   UNL     1      45.051   2.814   9.989  0.00  0.00    +0.000 C 
BRANCH   9  10
ATOM     10  C   UNL     1      45.797   2.678   8.675  0.00  0.00    +0.000 A 
ATOM     11  C   UNL     1      46.237   1.403   8.277  0.00  0.00    +0.000 A 
ATOM     12  C   UNL     1      46.840   1.206   7.033  0.00  0.00    +0.000 A 
ATOM     13  C   UNL     1      47.009   2.279   6.165  0.00  0.00    +0.000 A 
ATOM     14  C   UNL     1      46.582   3.551   6.543  0.00  0.00    +0.000 A 
ATOM     15  C   UNL     1      45.980   3.749   7.787  0.00  0.00    +0.000 A 
ENDBRANCH   9  10
BRANCH   9  16
ATOM     16  O   UNL     1      43.922   1.940   9.895  0.00  0.00    +0.000 OA
ATOM     17  H   UNL     1      44.165   1.111  10.339  0.00  0.00    +0.000 HD
ENDBRANCH   9  16
ENDBRANCH   8   9
ENDBRANCH   5   8
ENDBRANCH   1   2
BRANCH   1  20
ATOM     18  O   UNL     1      50.227   6.325  15.776  0.00  0.00    +0.000 OA
ATOM     19  C   UNL     1      49.082   6.294  16.217  0.00  0.00    +0.000 C 
ATOM     20  N   UNL     1      47.991   6.533  15.426  0.00  0.00    +0.000 N 
ATOM     21  H   UNL     1      47.086   6.697  15.856  0.00  0.00    +0.000 HD
BRANCH  19  22
ATOM     22  C   UNL     1      48.816   5.965  17.623  0.00  0.00    +0.000 A 
ATOM     23  C   UNL     1      49.140   4.705  18.106  0.00  0.00    +0.000 A 
ATOM     24  S   UNL     1      48.787   4.497  19.760  0.00  0.00    +0.000 S 
ATOM     25  C   UNL     1      48.230   6.100  19.898  0.00  0.00    +0.000 A 
ATOM     26  N   UNL     1      47.815   6.595  21.095  0.00  0.00    +0.000 NA
ATOM     27  C   UNL     1      47.458   7.837  21.063  0.00  0.00    +0.000 A 
ATOM     28  N   UNL     1      47.462   8.622  19.941  0.00  0.00    +0.000 N 
ATOM     29  C   UNL     1      47.831   8.152  18.701  0.00  0.00    +0.000 A 
ATOM     30  O   UNL     1      47.762   8.862  17.704  0.00  0.00    +0.000 OA
ATOM     31  C   UNL     1      48.276   6.771  18.690  0.00  0.00    +0.000 A 
ATOM     32  H   UNL     1      47.149   9.581  19.977  0.00  0.00    +0.000 HD
ENDBRANCH  19  22
ENDBRANCH   1  20
TORSDOF 7
ENDMDL
MODEL 4
REMARK VINA RESULT:    -7.877      1.785      2.329
REMARK INTER + INTRA:         -12.161
REMARK INTER:                 -11.189
REMARK INTRA:                  -0.972
REMARK UNBOUND:                -1.291
REMARK  Name = 
REMARK  7 active torsions:
REMARK  status: ('A' for Active; 'I' for Inactive)
REMARK    1  A    between atoms: C_2  and  C_20
REMARK    2  A    between atoms: N_3  and  C_4
REMARK    3  A    between atoms: C_4  and  C_5
REMARK    4  A    between atoms: C_8  and  C_9
REMARK    5  A    between atoms: C_9  and  C_10
REMARK    6  A    between atoms: C_10  and  O_11
REMARK    7  A    between atoms: C_10  and  C_12
REMARK                            x       y       z     vdW  Elec       q    Type
REMARK                         _______ _______ _______ _____ _____    ______ ____
ROOT
ATOM      1  C   UNL     1      45.873   8.618  12.824  0.00  0.00    +0.000 C 
ENDROOT
BRANCH   1   2
ATOM      2  C   UNL     1      45.564   7.269  12.238  0.00  0.00    +0.000 A 
ATOM      3  C   UNL     1      46.145   6.879  11.027  0.00  0.00    +0.000 A 
ATOM      4  C   UNL     1      45.887   5.617  10.486  0.00  0.00    +0.000 A 
ATOM      5  C   UNL     1      45.037   4.716  11.138  0.00  0.00    +0.000 A 
ATOM      6  C   UNL     1      44.422   5.129  12.331  0.00  0.00    +0.000 A 
ATOM      7  C   UNL     1      44.677   6.394  12.872  0.00  0.00    +0.000 A 
BRANCH   5   8
ATOM      8  C   UNL     1      44.778   3.301  10.649  0.00  0.00    +0.000 C 
BRANCH   8   9
ATOM      9  C   UNL     1      44.404   3.117   9.162  0.00  0.00    +0.000 C 
BRANCH   9  10
ATOM     10  C   UNL     1      45.551   2.765   8.234  0.00  0.00    +0.000 A 
ATOM     11  C   UNL     1      46.080   1.463   8.277  0.00  0.00    +0.000 A 
ATOM     12  C   UNL     1      47.069   1.058   7.379  0.00  0.00    +0.000 A 
ATOM     13  C   UNL     1      47.541   1.946   6.418  0.00  0.00    +0.000 A 
ATOM     14  C   UNL     1      47.031   3.241   6.361  0.00  0.00    +0.000 A 
ATOM     15  C   UNL     1      46.043   3.648   7.261  0.00  0.00    +0.000 A 
ENDBRANCH   9  10
BRANCH   9  16
ATOM     16  O   UNL     1      43.826   4.317   8.638  0.00  0.00    +0.000 OA
ATOM     17  H   UNL     1      44.560   4.878   8.335  0.00  0.00    +0.000 HD
ENDBRANCH   9  16
ENDBRANCH   8   9
ENDBRANCH   5   8
ENDBRANCH   1   2
BRANCH   1  20
ATOM     18  O   UNL     1      48.576   9.126  13.062  0.00  0.00    +0.000 OA
ATOM     19  C   UNL     1      47.948   8.850  14.080  0.00  0.00    +0.000 C 
ATOM     20  N   UNL     1      46.625   8.499  14.046  0.00  0.00    +0.000 N 
ATOM     21  H   UNL     1      46.091   8.474  14.909  0.00  0.00    +0.000 HD
BRANCH  19  22
ATOM     22  C   UNL     1      48.596   8.850  15.397  0.00  0.00    +0.000 A 
ATOM     23  C   UNL     1      48.909  10.056  16.009  0.00  0.00    +0.000 A 
ATOM     24  S   UNL     1      49.636   9.875  17.540  0.00  0.00    +0.000 S 
ATOM     25  C   UNL     1      49.516   8.179  17.458  0.00  0.00    +0.000 A 
ATOM     26  N   UNL     1      49.923   7.399  18.493  0.00  0.00    +0.000 NA
ATOM     27  C   UNL     1      49.736   6.132  18.312  0.00  0.00    +0.000 A 
ATOM     28  N   UNL     1      49.195   5.576  17.184  0.00  0.00    +0.000 N 
ATOM     29  C   UNL     1      48.809   6.323  16.094  0.00  0.00    +0.000 A 
ATOM     30  O   UNL     1      48.388   5.790  15.074  0.00  0.00    +0.000 OA
ATOM     31  C   UNL     1      48.965   7.756  16.262  0.00  0.00    +0.000 A 
ATOM     32  H   UNL     1      49.096   4.576  17.094  0.00  0.00    +0.000 HD
ENDBRANCH  19  22
ENDBRANCH   1  20
TORSDOF 7
ENDMDL
MODEL 5
REMARK VINA RESULT:    -7.455      1.808      2.581
REMARK INTER + INTRA:         -11.578
REMARK INTER:                 -10.156
REMARK INTRA:                  -1.422
REMARK UNBOUND:                -1.291
REMARK  Name = 
REMARK  7 active torsions:
REMARK  status: ('A' for Active; 'I' for Inactive)
REMARK    1  A    between atoms: C_2  and  C_20
REMARK    2  A    between atoms: N_3  and  C_4
REMARK    3  A    between atoms: C_4  and  C_5
REMARK    4  A    between atoms: C_8  and  C_9
REMARK    5  A    between atoms: C_9  and  C_10
REMARK    6  A    between atoms: C_10  and  O_11
REMARK    7  A    between atoms: C_10  and  C_12
REMARK                            x       y       z     vdW  Elec       q    Type
REMARK                         _______ _______ _______ _____ _____    ______ ____
ROOT
ATOM      1  C   UNL     1      48.725   7.149  13.524  0.00  0.00    +0.000 C 
ENDROOT
BRANCH   1   2
ATOM      2  C   UNL     1      47.428   6.424  13.300  0.00  0.00    +0.000 A 
ATOM      3  C   UNL     1      46.278   7.134  12.941  0.00  0.00    +0.000 A 
ATOM      4  C   UNL     1      45.073   6.468  12.703  0.00  0.00    +0.000 A 
ATOM      5  C   UNL     1      44.986   5.076  12.824  0.00  0.00    +0.000 A 
ATOM      6  C   UNL     1      46.132   4.372  13.227  0.00  0.00    +0.000 A 
ATOM      7  C   UNL     1      47.339   5.039  13.468  0.00  0.00    +0.000 A 
BRANCH   5   8
ATOM      8  C   UNL     1      43.732   4.281  12.501  0.00  0.00    +0.000 C 
BRANCH   8   9
ATOM      9  C   UNL     1      43.258   4.264  11.030  0.00  0.00    +0.000 C 
BRANCH   9  10
ATOM     10  C   UNL     1      44.273   3.766  10.018  0.00  0.00    +0.000 A 
ATOM     11  C   UNL     1      44.397   2.381   9.810  0.00  0.00    +0.000 A 
ATOM     12  C   UNL     1      45.243   1.875   8.823  0.00  0.00    +0.000 A 
ATOM     13  C   UNL     1      45.977   2.746   8.023  0.00  0.00    +0.000 A 
ATOM     14  C   UNL     1      45.869   4.122   8.215  0.00  0.00    +0.000 A 
ATOM     15  C   UNL     1      45.023   4.629   9.204  0.00  0.00    +0.000 A 
ENDBRANCH   9  10
BRANCH   9  16
ATOM     16  O   UNL     1      42.891   5.581  10.607  0.00  0.00    +0.000 OA
ATOM     17  H   UNL     1      41.920   5.622  10.611  0.00  0.00    +0.000 HD
ENDBRANCH   9  16
ENDBRANCH   8   9
ENDBRANCH   5   8
ENDBRANCH   1   2
BRANCH   1  20
ATOM     18  O   UNL     1      48.195   8.768  15.697  0.00  0.00    +0.000 OA
ATOM     19  C   UNL     1      48.844   7.742  15.885  0.00  0.00    +0.000 C 
ATOM     20  N   UNL     1      49.228   6.926  14.855  0.00  0.00    +0.000 N 
ATOM     21  H   UNL     1      49.584   5.997  15.057  0.00  0.00    +0.000 HD
BRANCH  19  22
ATOM     22  C   UNL     1      49.275   7.350  17.231  0.00  0.00    +0.000 A 
ATOM     23  C   UNL     1      50.093   8.198  17.965  0.00  0.00    +0.000 A 
ATOM     24  S   UNL     1      50.481   7.601  19.514  0.00  0.00    +0.000 S 
ATOM     25  C   UNL     1      49.533   6.208  19.273  0.00  0.00    +0.000 A 
ATOM     26  N   UNL     1      49.392   5.280  20.257  0.00  0.00    +0.000 NA
ATOM     27  C   UNL     1      48.611   4.295  19.953  0.00  0.00    +0.000 A 
ATOM     28  N   UNL     1      47.974   4.146  18.750  0.00  0.00    +0.000 N 
ATOM     29  C   UNL     1      48.121   5.037  17.711  0.00  0.00    +0.000 A 
ATOM     30  O   UNL     1      47.589   4.841  16.625  0.00  0.00    +0.000 OA
ATOM     31  C   UNL     1      48.960   6.181  18.015  0.00  0.00    +0.000 A 
ATOM     32  H   UNL     1      47.394   3.341  18.566  0.00  0.00    +0.000 HD
ENDBRANCH  19  22
ENDBRANCH   1  20
TORSDOF 7
ENDMDL
MODEL 6
REMARK VINA RESULT:    -7.434      2.682      3.903
REMARK INTER + INTRA:         -11.550
REMARK INTER:                 -10.287
REMARK INTRA:                  -1.262
REMARK UNBOUND:                -1.291
REMARK  Name = 
REMARK  7 active torsions:
REMARK  status: ('A' for Active; 'I' for Inactive)
REMARK    1  A    between atoms: C_2  and  C_20
REMARK    2  A    between atoms: N_3  and  C_4
REMARK    3  A    between atoms: C_4  and  C_5
REMARK    4  A    between atoms: C_8  and  C_9
REMARK    5  A    between atoms: C_9  and  C_10
REMARK    6  A    between atoms: C_10  and  O_11
REMARK    7  A    between atoms: C_10  and  C_12
REMARK                            x       y       z     vdW  Elec       q    Type
REMARK                         _______ _______ _______ _____ _____    ______ ____
ROOT
ATOM      1  C   UNL     1      47.775   4.363  15.619  0.00  0.00    +0.000 C 
ENDROOT
BRANCH   1   2
ATOM      2  C   UNL     1      47.121   4.606  14.287  0.00  0.00    +0.000 A 
ATOM      3  C   UNL     1      46.245   3.657  13.751  0.00  0.00    +0.000 A 
ATOM      4  C   UNL     1      45.610   3.885  12.527  0.00  0.00    +0.000 A 
ATOM      5  C   UNL     1      45.839   5.062  11.807  0.00  0.00    +0.000 A 
ATOM      6  C   UNL     1      46.753   5.992  12.329  0.00  0.00    +0.000 A 
ATOM      7  C   UNL     1      47.392   5.764  13.553  0.00  0.00    +0.000 A 
BRANCH   5   8
ATOM      8  C   UNL     1      45.121   5.411  10.514  0.00  0.00    +0.000 C 
BRANCH   8   9
ATOM      9  C   UNL     1      44.488   4.250   9.714  0.00  0.00    +0.000 C 
BRANCH   9  10
ATOM     10  C   UNL     1      45.441   3.460   8.837  0.00  0.00    +0.000 A 
ATOM     11  C   UNL     1      45.467   2.060   8.957  0.00  0.00    +0.000 A 
ATOM     12  C   UNL     1      46.252   1.279   8.107  0.00  0.00    +0.000 A 
ATOM     13  C   UNL     1      47.020   1.886   7.118  0.00  0.00    +0.000 A 
ATOM     14  C   UNL     1      47.010   3.273   6.985  0.00  0.00    +0.000 A 
ATOM     15  C   UNL     1      46.226   4.055   7.836  0.00  0.00    +0.000 A 
ENDBRANCH   9  10
BRANCH   9  16
ATOM     16  O   UNL     1      43.465   4.742   8.843  0.00  0.00    +0.000 OA
ATOM     17  H   UNL     1      42.819   5.211   9.398  0.00  0.00    +0.000 HD
ENDBRANCH   9  16
ENDBRANCH   8   9
ENDBRANCH   5   8
ENDBRANCH   1   2
BRANCH   1  20
ATOM     18  O   UNL     1      49.324   4.960  17.825  0.00  0.00    +0.000 OA
ATOM     19  C   UNL     1      48.386   5.706  17.558  0.00  0.00    +0.000 C 
ATOM     20  N   UNL     1      47.514   5.441  16.537  0.00  0.00    +0.000 N 
ATOM     21  H   UNL     1      46.880   6.167  16.217  0.00  0.00    +0.000 HD
BRANCH  19  22
ATOM     22  C   UNL     1      48.129   6.917  18.346  0.00  0.00    +0.000 A 
ATOM     23  C   UNL     1      47.939   6.816  19.717  0.00  0.00    +0.000 A 
ATOM     24  S   UNL     1      47.673   8.316  20.481  0.00  0.00    +0.000 S 
ATOM     25  C   UNL     1      47.847   9.157  19.012  0.00  0.00    +0.000 A 
ATOM     26  N   UNL     1      47.780  10.515  18.971  0.00  0.00    +0.000 NA
ATOM     27  C   UNL     1      47.970  11.023  17.797  0.00  0.00    +0.000 A 
ATOM     28  N   UNL     1      48.204  10.296  16.660  0.00  0.00    +0.000 N 
ATOM     29  C   UNL     1      48.238   8.920  16.646  0.00  0.00    +0.000 A 
ATOM     30  O   UNL     1      48.386   8.297  15.601  0.00  0.00    +0.000 OA
ATOM     31  C   UNL     1      48.066   8.302  17.947  0.00  0.00    +0.000 A 
ATOM     32  H   UNL     1      48.323  10.752  15.768  0.00  0.00    +0.000 HD
ENDBRANCH  19  22
ENDBRANCH   1  20
TORSDOF 7
ENDMDL
MODEL 7
REMARK VINA RESULT:    -7.407      2.793      3.546
REMARK INTER + INTRA:         -11.512
REMARK INTER:                 -10.551
REMARK INTRA:                  -0.961
REMARK UNBOUND:                -1.291
REMARK  Name = 
REMARK  7 active torsions:
REMARK  status: ('A' for Active; 'I' for Inactive)
REMARK    1  A    between atoms: C_2  and  C_20
REMARK    2  A    between atoms: N_3  and  C_4
REMARK    3  A    between atoms: C_4  and  C_5
REMARK    4  A    between atoms: C_8  and  C_9
REMARK    5  A    between atoms: C_9  and  C_10
REMARK    6  A    between atoms: C_10  and  O_11
REMARK    7  A    between atoms: C_10  and  C_12
REMARK                            x       y       z     vdW  Elec       q    Type
REMARK                         _______ _______ _______ _____ _____    ______ ____
ROOT
ATOM      1  C   UNL     1      47.330   4.455  15.231  0.00  0.00    +0.000 C 
ENDROOT
BRANCH   1   2
ATOM      2  C   UNL     1      46.558   4.427  13.942  0.00  0.00    +0.000 A 
ATOM      3  C   UNL     1      46.344   3.215  13.277  0.00  0.00    +0.000 A 
ATOM      4  C   UNL     1      45.604   3.172  12.093  0.00  0.00    +0.000 A 
ATOM      5  C   UNL     1      45.063   4.339  11.541  0.00  0.00    +0.000 A 
ATOM      6  C   UNL     1      45.316   5.558  12.190  0.00  0.00    +0.000 A 
ATOM      7  C   UNL     1      46.061   5.603  13.374  0.00  0.00    +0.000 A 
BRANCH   5   8
ATOM      8  C   UNL     1      44.181   4.353  10.305  0.00  0.00    +0.000 C 
BRANCH   8   9
ATOM      9  C   UNL     1      44.862   4.626   8.945  0.00  0.00    +0.000 C 
BRANCH   9  10
ATOM     10  C   UNL     1      45.580   3.444   8.322  0.00  0.00    +0.000 A 
ATOM     11  C   UNL     1      46.590   3.689   7.374  0.00  0.00    +0.000 A 
ATOM     12  C   UNL     1      47.348   2.644   6.844  0.00  0.00    +0.000 A 
ATOM     13  C   UNL     1      47.113   1.336   7.256  0.00  0.00    +0.000 A 
ATOM     14  C   UNL     1      46.115   1.073   8.193  0.00  0.00    +0.000 A 
ATOM     15  C   UNL     1      45.355   2.117   8.723  0.00  0.00    +0.000 A 
ENDBRANCH   9  10
BRANCH   9  16
ATOM     16  O   UNL     1      45.843   5.660   9.074  0.00  0.00    +0.000 OA
ATOM     17  H   UNL     1      46.203   5.824   8.187  0.00  0.00    +0.000 HD
ENDBRANCH   9  16
ENDBRANCH   8   9
ENDBRANCH   5   8
ENDBRANCH   1   2
BRANCH   1  20
ATOM     18  O   UNL     1      49.678   5.286  16.422  0.00  0.00    +0.000 OA
ATOM     19  C   UNL     1      48.831   6.136  16.159  0.00  0.00    +0.000 C 
ATOM     20  N   UNL     1      47.604   5.806  15.649  0.00  0.00    +0.000 N 
ATOM     21  H   UNL     1      47.011   6.532  15.260  0.00  0.00    +0.000 HD
BRANCH  19  22
ATOM     22  C   UNL     1      49.078   7.560  16.410  0.00  0.00    +0.000 A 
ATOM     23  C   UNL     1      49.867   8.286  15.529  0.00  0.00    +0.000 A 
ATOM     24  S   UNL     1      50.033   9.928  15.956  0.00  0.00    +0.000 S 
ATOM     25  C   UNL     1      49.020   9.735  17.311  0.00  0.00    +0.000 A 
ATOM     26  N   UNL     1      48.703  10.793  18.103  0.00  0.00    +0.000 NA
ATOM     27  C   UNL     1      47.893  10.511  19.070  0.00  0.00    +0.000 A 
ATOM     28  N   UNL     1      47.386   9.264  19.326  0.00  0.00    +0.000 N 
ATOM     29  C   UNL     1      47.714   8.156  18.578  0.00  0.00    +0.000 A 
ATOM     30  O   UNL     1      47.295   7.043  18.872  0.00  0.00    +0.000 OA
ATOM     31  C   UNL     1      48.593   8.428  17.456  0.00  0.00    +0.000 A 
ATOM     32  H   UNL     1      46.775   9.104  20.113  0.00  0.00    +0.000 HD
ENDBRANCH  19  22
ENDBRANCH   1  20
TORSDOF 7
ENDMDL
MODEL 8
REMARK VINA RESULT:    -7.197      3.707      7.917
REMARK INTER + INTRA:         -11.222
REMARK INTER:                  -9.558
REMARK INTRA:                  -1.664
REMARK UNBOUND:                -1.291
REMARK  Name = 
REMARK  7 active torsions:
REMARK  status: ('A' for Active; 'I' for Inactive)
REMARK    1  A    between atoms: C_2  and  C_20
REMARK    2  A    between atoms: N_3  and  C_4
REMARK    3  A    between atoms: C_4  and  C_5
REMARK    4  A    between atoms: C_8  and  C_9
REMARK    5  A    between atoms: C_9  and  C_10
REMARK    6  A    between atoms: C_10  and  O_11
REMARK    7  A    between atoms: C_10  and  C_12
REMARK                            x       y       z     vdW  Elec       q    Type
REMARK                         _______ _______ _______ _____ _____    ______ ____
ROOT
ATOM      1  C   UNL     1      48.263   8.126  12.138  0.00  0.00    +0.000 C 
ENDROOT
BRANCH   1   2
ATOM      2  C   UNL     1      48.569   8.021  13.606  0.00  0.00    +0.000 A 
ATOM      3  C   UNL     1      47.845   8.780  14.531  0.00  0.00    +0.000 A 
ATOM      4  C   UNL     1      48.101   8.670  15.901  0.00  0.00    +0.000 A 
ATOM      5  C   UNL     1      49.091   7.804  16.379  0.00  0.00    +0.000 A 
ATOM      6  C   UNL     1      49.843   7.076  15.443  0.00  0.00    +0.000 A 
ATOM      7  C   UNL     1      49.590   7.187  14.071  0.00  0.00    +0.000 A 
BRANCH   5   8
ATOM      8  C   UNL     1      49.365   7.574  17.855  0.00  0.00    +0.000 C 
BRANCH   8   9
ATOM      9  C   UNL     1      48.503   6.519  18.585  0.00  0.00    +0.000 C 
BRANCH   9  10
ATOM     10  C   UNL     1      48.530   5.124  17.990  0.00  0.00    +0.000 A 
ATOM     11  C   UNL     1      47.412   4.677  17.264  0.00  0.00    +0.000 A 
ATOM     12  C   UNL     1      47.423   3.442  16.614  0.00  0.00    +0.000 A 
ATOM     13  C   UNL     1      48.555   2.635  16.675  0.00  0.00    +0.000 A 
ATOM     14  C   UNL     1      49.672   3.059  17.392  0.00  0.00    +0.000 A 
ATOM     15  C   UNL     1      49.661   4.294  18.044  0.00  0.00    +0.000 A 
ENDBRANCH   9  10
BRANCH   9  16
ATOM     16  O   UNL     1      47.129   6.917  18.597  0.00  0.00    +0.000 OA
ATOM     17  H   UNL     1      47.112   7.881  18.717  0.00  0.00    +0.000 HD
ENDBRANCH   9  16
ENDBRANCH   8   9
ENDBRANCH   5   8
ENDBRANCH   1   2
BRANCH   1  20
ATOM     18  O   UNL     1      45.528   7.961  11.795  0.00  0.00    +0.000 OA
ATOM     19  C   UNL     1      46.213   7.001  11.450  0.00  0.00    +0.000 C 
ATOM     20  N   UNL     1      47.565   6.959  11.663  0.00  0.00    +0.000 N 
ATOM     21  H   UNL     1      48.125   6.254  11.193  0.00  0.00    +0.000 HD
BRANCH  19  22
ATOM     22  C   UNL     1      45.609   5.824  10.816  0.00  0.00    +0.000 A 
ATOM     23  C   UNL     1      45.848   5.569   9.473  0.00  0.00    +0.000 A 
ATOM     24  S   UNL     1      45.090   4.153   8.902  0.00  0.00    +0.000 S 
ATOM     25  C   UNL     1      44.453   3.808  10.443  0.00  0.00    +0.000 A 
ATOM     26  N   UNL     1      43.726   2.680  10.662  0.00  0.00    +0.000 NA
ATOM     27  C   UNL     1      43.340   2.524  11.885  0.00  0.00    +0.000 A 
ATOM     28  N   UNL     1      43.600   3.401  12.904  0.00  0.00    +0.000 N 
ATOM     29  C   UNL     1      44.294   4.576  12.720  0.00  0.00    +0.000 A 
ATOM     30  O   UNL     1      44.455   5.371  13.639  0.00  0.00    +0.000 OA
ATOM     31  C   UNL     1      44.782   4.780  11.369  0.00  0.00    +0.000 A 
ATOM     32  H   UNL     1      43.251   3.233  13.836  0.00  0.00    +0.000 HD
ENDBRANCH  19  22
ENDBRANCH   1  20
TORSDOF 7
ENDMDL
