MODEL 1
REMARK VINA RESULT:    -8.276      0.000      0.000
REMARK INTER + INTRA:         -12.259
REMARK INTER:                 -11.179
REMARK INTRA:                  -1.079
REMARK UNBOUND:                -1.079
REMARK  Name = 
REMARK  7 active torsions:
REMARK  status: ('A' for Active; 'I' for Inactive)
REMARK    1  A    between atoms: C_1  and  C_2
REMARK    2  A    between atoms: C_6  and  C_7
REMARK    3  A    between atoms: N_9  and  C_10
REMARK    4  A    between atoms: C_10  and  C_11
REMARK    5  A    between atoms: C_14  and  C_15
REMARK    6  A    between atoms: C_15  and  N_16
REMARK    7  A    between atoms: C_17  and  C_19
REMARK                            x       y       z     vdW  Elec       q    Type
REMARK                         _______ _______ _______ _____ _____    ______ ____
ROOT
ATOM      1  C   UNL     1      45.033   6.314  11.347  0.00  0.00    +0.000 A 
ATOM      2  C   UNL     1      46.256   5.797  11.794  0.00  0.00    +0.000 A 
ATOM      3  C   UNL     1      47.095   6.551  12.627  0.00  0.00    +0.000 A 
ATOM      4  C   UNL     1      46.716   7.832  13.050  0.00  0.00    +0.000 A 
ATOM      5  C   UNL     1      45.499   8.353  12.592  0.00  0.00    +0.000 A 
ATOM      6  C   UNL     1      44.659   7.599  11.762  0.00  0.00    +0.000 A 
ENDROOT
BRANCH   1   7
ATOM      7  C   UNL     1      44.160   5.517  10.411  0.00  0.00    +0.000 C 
BRANCH   7  10
ATOM      8  C   UNL     1      44.686   3.320   9.457  0.00  0.00    +0.000 C 
ATOM      9  O   UNL     1      43.876   2.744  10.176  0.00  0.00    +0.000 OA
ATOM     10  N   UNL     1      44.899   4.686   9.497  0.00  0.00    +0.000 N 
ATOM     11  H   UNL     1      45.602   5.071   8.874  0.00  0.00    +0.000 HD
BRANCH   8  17
ATOM     12  C   UNL     1      47.286   3.161   5.173  0.00  0.00    +0.000 C 
ATOM     13  C   UNL     1      46.763   2.495   6.409  0.00  0.00    +0.000 A 
ATOM     14  C   UNL     1      47.028   1.151   6.682  0.00  0.00    +0.000 A 
ATOM     15  C   UNL     1      46.516   0.589   7.844  0.00  0.00    +0.000 A 
ATOM     16  N   UNL     1      45.763   1.255   8.742  0.00  0.00    +0.000 NA
ATOM     17  C   UNL     1      45.516   2.564   8.461  0.00  0.00    +0.000 A 
ATOM     18  C   UNL     1      45.985   3.215   7.321  0.00  0.00    +0.000 A 
ENDBRANCH   8  17
ENDBRANCH   7  10
ENDBRANCH   1   7
BRANCH   4  19
ATOM     19  C   UNL     1      47.593   8.647  13.969  0.00  0.00    +0.000 C 
BRANCH  19  20
ATOM     20  N   UNL     1      47.919   7.935  15.180  0.00  0.00    +0.000 N 
ATOM     21  C   UNL     1      49.188   7.466  15.410  0.00  0.00    +0.000 C 
ATOM     22  O   UNL     1      50.109   7.658  14.621  0.00  0.00    +0.000 OA
ATOM     23  H   UNL     1      47.143   7.538  15.699  0.00  0.00    +0.000 HD
BRANCH  21  24
ATOM     24  C   UNL     1      49.404   6.767  16.686  0.00  0.00    +0.000 A 
ATOM     25  C   UNL     1      50.206   7.343  17.664  0.00  0.00    +0.000 A 
ATOM     26  S   UNL     1      50.303   6.418  19.095  0.00  0.00    +0.000 S 
ATOM     27  C   UNL     1      49.323   5.194  18.437  0.00  0.00    +0.000 A 
ATOM     28  N   UNL     1      49.024   4.071  19.150  0.00  0.00    +0.000 NA
ATOM     29  C   UNL     1      48.293   3.217  18.513  0.00  0.00    +0.000 A 
ATOM     30  N   UNL     1      47.822   3.388  17.238  0.00  0.00    +0.000 N 
ATOM     31  C   UNL     1      48.072   4.516  16.496  0.00  0.00    +0.000 A 
ATOM     32  O   UNL     1      47.588   4.655  15.372  0.00  0.00    +0.000 OA
ATOM     33  C   UNL     1      48.905   5.500  17.156  0.00  0.00    +0.000 A 
ATOM     34  H   UNL     1      47.240   2.686  16.802  0.00  0.00    +0.000 HD
ENDBRANCH  21  24
ENDBRANCH  19  20
ENDBRANCH   4  19
TORSDOF 6
ENDMDL
MODEL 2
REMARK VINA RESULT:    -7.607      1.373      1.989
REMARK INTER + INTRA:         -11.354
REMARK INTER:                 -10.444
REMARK INTRA:                  -0.910
REMARK UNBOUND:                -1.079
REMARK  Name = 
REMARK  7 active torsions:
REMARK  status: ('A' for Active; 'I' for Inactive)
REMARK    1  A    between atoms: C_1  and  C_2
REMARK    2  A    between atoms: C_6  and  C_7
REMARK    3  A    between atoms: N_9  and  C_10
REMARK    4  A    between atoms: C_10  and  C_11
REMARK    5  A    between atoms: C_14  and  C_15
REMARK    6  A    between atoms: C_15  and  N_16
REMARK    7  A    between atoms: C_17  and  C_19
REMARK                            x       y       z     vdW  Elec       q    Type
REMARK                         _______ _______ _______ _____ _____    ______ ____
ROOT
ATOM      1  C   UNL     1      45.454   6.859  11.860  0.00  0.00    +0.000 A 
ATOM      2  C   UNL     1      45.234   8.182  12.267  0.00  0.00    +0.000 A 
ATOM      3  C   UNL     1      46.098   8.809  13.177  0.00  0.00    +0.000 A 
ATOM      4  C   UNL     1      47.215   8.131  13.682  0.00  0.00    +0.000 A 
ATOM      5  C   UNL     1      47.428   6.804  13.285  0.00  0.00    +0.000 A 
ATOM      6  C   UNL     1      46.566   6.179  12.374  0.00  0.00    +0.000 A 
ENDROOT
BRANCH   1   7
ATOM      7  C   UNL     1      44.493   6.176  10.922  0.00  0.00    +0.000 C 
BRANCH   7  10
ATOM      8  C   UNL     1      44.857   4.063   9.731  0.00  0.00    +0.000 C 
ATOM      9  O   UNL     1      44.060   3.454  10.438  0.00  0.00    +0.000 OA
ATOM     10  N   UNL     1      45.139   5.407   9.890  0.00  0.00    +0.000 N 
ATOM     11  H   UNL     1      45.825   5.821   9.266  0.00  0.00    +0.000 HD
BRANCH   8  17
ATOM     12  C   UNL     1      46.719  -0.107   7.663  0.00  0.00    +0.000 C 
ATOM     13  C   UNL     1      46.480   1.372   7.632  0.00  0.00    +0.000 A 
ATOM     14  C   UNL     1      46.928   2.162   6.571  0.00  0.00    +0.000 A 
ATOM     15  C   UNL     1      46.676   3.527   6.598  0.00  0.00    +0.000 A 
ATOM     16  N   UNL     1      46.024   4.159   7.594  0.00  0.00    +0.000 NA
ATOM     17  C   UNL     1      45.593   3.374   8.620  0.00  0.00    +0.000 A 
ATOM     18  C   UNL     1      45.799   1.997   8.681  0.00  0.00    +0.000 A 
ENDBRANCH   8  17
ENDBRANCH   7  10
ENDBRANCH   1   7
BRANCH   4  19
ATOM     19  C   UNL     1      48.171   8.799  14.641  0.00  0.00    +0.000 C 
BRANCH  19  20
ATOM     20  N   UNL     1      48.189   8.150  15.928  0.00  0.00    +0.000 N 
ATOM     21  C   UNL     1      49.035   8.568  16.924  0.00  0.00    +0.000 C 
ATOM     22  O   UNL     1      49.787   9.529  16.783  0.00  0.00    +0.000 OA
ATOM     23  H   UNL     1      47.792   7.217  15.975  0.00  0.00    +0.000 HD
BRANCH  21  24
ATOM     24  C   UNL     1      48.954   7.840  18.199  0.00  0.00    +0.000 A 
ATOM     25  C   UNL     1      48.937   8.542  19.399  0.00  0.00    +0.000 A 
ATOM     26  S   UNL     1      48.788   7.539  20.772  0.00  0.00    +0.000 S 
ATOM     27  C   UNL     1      48.795   6.133  19.814  0.00  0.00    +0.000 A 
ATOM     28  N   UNL     1      48.718   4.895  20.381  0.00  0.00    +0.000 NA
ATOM     29  C   UNL     1      48.762   3.921  19.533  0.00  0.00    +0.000 A 
ATOM     30  N   UNL     1      48.859   4.069  18.175  0.00  0.00    +0.000 N 
ATOM     31  C   UNL     1      48.907   5.297  17.561  0.00  0.00    +0.000 A 
ATOM     32  O   UNL     1      48.942   5.390  16.333  0.00  0.00    +0.000 OA
ATOM     33  C   UNL     1      48.881   6.426  18.466  0.00  0.00    +0.000 A 
ATOM     34  H   UNL     1      48.872   3.264  17.564  0.00  0.00    +0.000 HD
ENDBRANCH  21  24
ENDBRANCH  19  20
ENDBRANCH   4  19
TORSDOF 6
ENDMDL
MODEL 3
REMARK VINA RESULT:    -7.384      4.250      7.334
REMARK INTER + INTRA:         -11.053
REMARK INTER:                 -10.065
REMARK INTRA:                  -0.988
REMARK UNBOUND:                -1.079
REMARK  Name = 
REMARK  7 active torsions:
REMARK  status: ('A' for Active; 'I' for Inactive)
REMARK    1  A    between atoms: C_1  and  C_2
REMARK    2  A    between atoms: C_6  and  C_7
REMARK    3  A    between atoms: N_9  and  C_10
REMARK    4  A    between atoms: C_10  and  C_11
REMARK    5  A    between atoms: C_14  and  C_15
REMARK    6  A    between atoms: C_15  and  N_16
REMARK    7  A    between atoms: C_17  and  C_19
REMARK                            x       y       z     vdW  Elec       q    Type
REMARK                         _______ _______ _______ _____ _____    ______ ____
ROOT
ATOM      1  C   UNL     1      44.851   9.207  11.880  0.00  0.00    +0.000 A 
ATOM      2  C   UNL     1      44.261   8.037  11.384  0.00  0.00    +0.000 A 
ATOM      3  C   UNL     1      44.753   6.775  11.742  0.00  0.00    +0.000 A 
ATOM      4  C   UNL     1      45.835   6.654  12.624  0.00  0.00    +0.000 A 
ATOM      5  C   UNL     1      46.434   7.825  13.109  0.00  0.00    +0.000 A 
ATOM      6  C   UNL     1      45.940   9.087  12.753  0.00  0.00    +0.000 A 
ENDROOT
BRANCH   1   7
ATOM      7  C   UNL     1      44.348  10.562  11.450  0.00  0.00    +0.000 C 
BRANCH   7  10
ATOM      8  C   UNL     1      41.917  10.882  11.423  0.00  0.00    +0.000 C 
ATOM      9  O   UNL     1      41.814  10.486  10.266  0.00  0.00    +0.000 OA
ATOM     10  N   UNL     1      43.123  10.956  12.095  0.00  0.00    +0.000 N 
ATOM     11  H   UNL     1      43.111  11.312  13.046  0.00  0.00    +0.000 HD
BRANCH   8  17
ATOM     12  C   UNL     1      36.950  10.951  12.103  0.00  0.00    +0.000 C 
ATOM     13  C   UNL     1      38.333  11.346  12.526  0.00  0.00    +0.000 A 
ATOM     14  C   UNL     1      38.552  12.129  13.661  0.00  0.00    +0.000 A 
ATOM     15  C   UNL     1      39.855  12.463  14.005  0.00  0.00    +0.000 A 
ATOM     16  N   UNL     1      40.945  12.084  13.307  0.00  0.00    +0.000 NA
ATOM     17  C   UNL     1      40.713  11.319  12.204  0.00  0.00    +0.000 A 
ATOM     18  C   UNL     1      39.442  10.935  11.781  0.00  0.00    +0.000 A 
ENDBRANCH   8  17
ENDBRANCH   7  10
ENDBRANCH   1   7
BRANCH   4  19
ATOM     19  C   UNL     1      46.362   5.303  13.043  0.00  0.00    +0.000 C 
BRANCH  19  20
ATOM     20  N   UNL     1      46.881   5.317  14.387  0.00  0.00    +0.000 N 
ATOM     21  C   UNL     1      47.346   4.171  14.983  0.00  0.00    +0.000 C 
ATOM     22  O   UNL     1      47.375   3.094  14.394  0.00  0.00    +0.000 OA
ATOM     23  H   UNL     1      46.621   6.107  14.970  0.00  0.00    +0.000 HD
BRANCH  21  24
ATOM     24  C   UNL     1      47.864   4.310  16.352  0.00  0.00    +0.000 A 
ATOM     25  C   UNL     1      47.424   3.450  17.351  0.00  0.00    +0.000 A 
ATOM     26  S   UNL     1      48.169   3.723  18.861  0.00  0.00    +0.000 S 
ATOM     27  C   UNL     1      49.063   5.033  18.246  0.00  0.00    +0.000 A 
ATOM     28  N   UNL     1      49.906   5.748  19.045  0.00  0.00    +0.000 NA
ATOM     29  C   UNL     1      50.496   6.730  18.448  0.00  0.00    +0.000 A 
ATOM     30  N   UNL     1      50.335   7.053  17.127  0.00  0.00    +0.000 N 
ATOM     31  C   UNL     1      49.521   6.342  16.280  0.00  0.00    +0.000 A 
ATOM     32  O   UNL     1      49.442   6.632  15.085  0.00  0.00    +0.000 OA
ATOM     33  C   UNL     1      48.818   5.240  16.902  0.00  0.00    +0.000 A 
ATOM     34  H   UNL     1      50.840   7.826  16.716  0.00  0.00    +0.000 HD
ENDBRANCH  21  24
ENDBRANCH  19  20
ENDBRANCH   4  19
TORSDOF 6
ENDMDL
MODEL 4
REMARK VINA RESULT:    -7.035      2.774      3.789
REMARK INTER + INTRA:         -10.582
REMARK INTER:                  -9.597
REMARK INTRA:                  -0.985
REMARK UNBOUND:                -1.079
REMARK  Name = 
REMARK  7 active torsions:
REMARK  status: ('A' for Active; 'I' for Inactive)
REMARK    1  A    between atoms: C_1  and  C_2
REMARK    2  A    between atoms: C_6  and  C_7
REMARK    3  A    between atoms: N_9  and  C_10
REMARK    4  A    between atoms: C_10  and  C_11
REMARK    5  A    between atoms: C_14  and  C_15
REMARK    6  A    between atoms: C_15  and  N_16
REMARK    7  A    between atoms: C_17  and  C_19
REMARK                            x       y       z     vdW  Elec       q    Type
REMARK                         _______ _______ _______ _____ _____    ______ ____
ROOT
ATOM      1  C   UNL     1      45.678   5.366  12.371  0.00  0.00    +0.000 A 
ATOM      2  C   UNL     1      46.045   4.450  13.366  0.00  0.00    +0.000 A 
ATOM      3  C   UNL     1      47.034   4.768  14.307  0.00  0.00    +0.000 A 
ATOM      4  C   UNL     1      47.662   6.020  14.287  0.00  0.00    +0.000 A 
ATOM      5  C   UNL     1      47.304   6.931  13.284  0.00  0.00    +0.000 A 
ATOM      6  C   UNL     1      46.314   6.614  12.345  0.00  0.00    +0.000 A 
ENDROOT
BRANCH   1   7
ATOM      7  C   UNL     1      44.650   4.998  11.331  0.00  0.00    +0.000 C 
BRANCH   7  10
ATOM      8  C   UNL     1      45.634   4.317   9.190  0.00  0.00    +0.000 C 
ATOM      9  O   UNL     1      45.772   5.477   8.813  0.00  0.00    +0.000 OA
ATOM     10  N   UNL     1      45.092   3.978  10.416  0.00  0.00    +0.000 N 
ATOM     11  H   UNL     1      45.005   2.990  10.634  0.00  0.00    +0.000 HD
BRANCH   8  17
ATOM     12  C   UNL     1      47.765   2.553   5.009  0.00  0.00    +0.000 C 
ATOM     13  C   UNL     1      47.083   2.326   6.324  0.00  0.00    +0.000 A 
ATOM     14  C   UNL     1      46.822   1.038   6.797  0.00  0.00    +0.000 A 
ATOM     15  C   UNL     1      46.187   0.890   8.024  0.00  0.00    +0.000 A 
ATOM     16  N   UNL     1      45.793   1.917   8.803  0.00  0.00    +0.000 NA
ATOM     17  C   UNL     1      46.059   3.165   8.328  0.00  0.00    +0.000 A 
ATOM     18  C   UNL     1      46.688   3.413   7.109  0.00  0.00    +0.000 A 
ENDBRANCH   8  17
ENDBRANCH   7  10
ENDBRANCH   1   7
BRANCH   4  19
ATOM     19  C   UNL     1      48.709   6.390  15.309  0.00  0.00    +0.000 C 
BRANCH  19  20
ATOM     20  N   UNL     1      48.171   7.213  16.363  0.00  0.00    +0.000 N 
ATOM     21  C   UNL     1      48.828   7.360  17.559  0.00  0.00    +0.000 C 
ATOM     22  O   UNL     1      49.916   6.832  17.776  0.00  0.00    +0.000 OA
ATOM     23  H   UNL     1      47.179   7.427  16.314  0.00  0.00    +0.000 HD
BRANCH  21  24
ATOM     24  C   UNL     1      48.189   8.235  18.553  0.00  0.00    +0.000 A 
ATOM     25  C   UNL     1      47.817   7.722  19.790  0.00  0.00    +0.000 A 
ATOM     26  S   UNL     1      47.139   8.889  20.835  0.00  0.00    +0.000 S 
ATOM     27  C   UNL     1      47.270  10.104  19.652  0.00  0.00    +0.000 A 
ATOM     28  N   UNL     1      46.835  11.374  19.895  0.00  0.00    +0.000 NA
ATOM     29  C   UNL     1      46.973  12.181  18.896  0.00  0.00    +0.000 A 
ATOM     30  N   UNL     1      47.517  11.844  17.686  0.00  0.00    +0.000 N 
ATOM     31  C   UNL     1      47.996  10.586  17.409  0.00  0.00    +0.000 A 
ATOM     32  O   UNL     1      48.526  10.334  16.325  0.00  0.00    +0.000 OA
ATOM     33  C   UNL     1      47.848   9.633  18.488  0.00  0.00    +0.000 A 
ATOM     34  H   UNL     1      47.612  12.529  16.949  0.00  0.00    +0.000 HD
ENDBRANCH  21  24
ENDBRANCH  19  20
ENDBRANCH   4  19
TORSDOF 6
ENDMDL
MODEL 5
REMARK VINA RESULT:    -6.826      1.683      2.208
REMARK INTER + INTRA:         -10.300
REMARK INTER:                  -9.341
REMARK INTRA:                  -0.959
REMARK UNBOUND:                -1.079
REMARK  Name = 
REMARK  7 active torsions:
REMARK  status: ('A' for Active; 'I' for Inactive)
REMARK    1  A    between atoms: C_1  and  C_2
REMARK    2  A    between atoms: C_6  and  C_7
REMARK    3  A    between atoms: N_9  and  C_10
REMARK    4  A    between atoms: C_10  and  C_11
REMARK    5  A    between atoms: C_14  and  C_15
REMARK    6  A    between atoms: C_15  and  N_16
REMARK    7  A    between atoms: C_17  and  C_19
REMARK                            x       y       z     vdW  Elec       q    Type
REMARK                         _______ _______ _______ _____ _____    ______ ____
ROOT
ATOM      1  C   UNL     1      46.073   7.732  12.220  0.00  0.00    +0.000 A 
ATOM      2  C   UNL     1      45.910   8.772  13.145  0.00  0.00    +0.000 A 
ATOM      3  C   UNL     1      46.964   9.163  13.982  0.00  0.00    +0.000 A 
ATOM      4  C   UNL     1      48.214   8.535  13.898  0.00  0.00    +0.000 A 
ATOM      5  C   UNL     1      48.372   7.486  12.982  0.00  0.00    +0.000 A 
ATOM      6  C   UNL     1      47.320   7.097  12.143  0.00  0.00    +0.000 A 
ENDROOT
BRANCH   1   7
ATOM      7  C   UNL     1      44.920   7.284  11.358  0.00  0.00    +0.000 C 
BRANCH   7  10
ATOM      8  C   UNL     1      44.372   5.066  10.470  0.00  0.00    +0.000 C 
ATOM      9  O   UNL     1      43.326   4.999  11.108  0.00  0.00    +0.000 OA
ATOM     10  N   UNL     1      45.226   6.151  10.525  0.00  0.00    +0.000 N 
ATOM     11  H   UNL     1      46.077   6.109   9.972  0.00  0.00    +0.000 HD
BRANCH   8  17
ATOM     12  C   UNL     1      46.749   3.453   6.360  0.00  0.00    +0.000 C 
ATOM     13  C   UNL     1      45.943   3.182   7.595  0.00  0.00    +0.000 A 
ATOM     14  C   UNL     1      45.565   1.886   7.949  0.00  0.00    +0.000 A 
ATOM     15  C   UNL     1      44.818   1.697   9.105  0.00  0.00    +0.000 A 
ATOM     16  N   UNL     1      44.420   2.692   9.922  0.00  0.00    +0.000 NA
ATOM     17  C   UNL     1      44.800   3.949   9.563  0.00  0.00    +0.000 A 
ATOM     18  C   UNL     1      45.547   4.237   8.422  0.00  0.00    +0.000 A 
ENDBRANCH   8  17
ENDBRANCH   7  10
ENDBRANCH   1   7
BRANCH   4  19
ATOM     19  C   UNL     1      49.368   8.960  14.772  0.00  0.00    +0.000 C 
BRANCH  19  20
ATOM     20  N   UNL     1      50.103   7.831  15.286  0.00  0.00    +0.000 N 
ATOM     21  C   UNL     1      49.868   7.343  16.547  0.00  0.00    +0.000 C 
ATOM     22  O   UNL     1      49.004   7.816  17.281  0.00  0.00    +0.000 OA
ATOM     23  H   UNL     1      50.979   7.607  14.824  0.00  0.00    +0.000 HD
BRANCH  21  24
ATOM     24  C   UNL     1      50.669   6.180  16.958  0.00  0.00    +0.000 A 
ATOM     25  C   UNL     1      52.012   6.341  17.277  0.00  0.00    +0.000 A 
ATOM     26  S   UNL     1      52.769   4.897  17.781  0.00  0.00    +0.000 S 
ATOM     27  C   UNL     1      51.345   4.000  17.537  0.00  0.00    +0.000 A 
ATOM     28  N   UNL     1      51.312   2.656  17.764  0.00  0.00    +0.000 NA
ATOM     29  C   UNL     1      50.172   2.103  17.511  0.00  0.00    +0.000 A 
ATOM     30  N   UNL     1      49.061   2.770  17.067  0.00  0.00    +0.000 N 
ATOM     31  C   UNL     1      49.041   4.127  16.856  0.00  0.00    +0.000 A 
ATOM     32  O   UNL     1      48.007   4.698  16.506  0.00  0.00    +0.000 OA
ATOM     33  C   UNL     1      50.301   4.795  17.106  0.00  0.00    +0.000 A 
ATOM     34  H   UNL     1      48.193   2.280  16.903  0.00  0.00    +0.000 HD
ENDBRANCH  21  24
ENDBRANCH  19  20
ENDBRANCH   4  19
TORSDOF 6
ENDMDL
MODEL 6
REMARK VINA RESULT:    -6.752      4.364      5.741
REMARK INTER + INTRA:         -10.200
REMARK INTER:                  -9.058
REMARK INTRA:                  -1.142
REMARK UNBOUND:                -1.079
REMARK  Name = 
REMARK  7 active torsions:
REMARK  status: ('A' for Active; 'I' for Inactive)
REMARK    1  A    between atoms: C_1  and  C_2
REMARK    2  A    between atoms: C_6  and  C_7
REMARK    3  A    between atoms: N_9  and  C_10
REMARK    4  A    between atoms: C_10  and  C_11
REMARK    5  A    between atoms: C_14  and  C_15
REMARK    6  A    between atoms: C_15  and  N_16
REMARK    7  A    between atoms: C_17  and  C_19
REMARK                            x       y       z     vdW  Elec       q    Type
REMARK                         _______ _______ _______ _____ _____    ______ ____
ROOT
ATOM      1  C   UNL     1      45.556   7.676  12.591  0.00  0.00    +0.000 A 
ATOM      2  C   UNL     1      46.846   7.592  13.130  0.00  0.00    +0.000 A 
ATOM      3  C   UNL     1      47.713   8.693  13.100  0.00  0.00    +0.000 A 
ATOM      4  C   UNL     1      47.298   9.913  12.548  0.00  0.00    +0.000 A 
ATOM      5  C   UNL     1      46.012   9.993  11.997  0.00  0.00    +0.000 A 
ATOM      6  C   UNL     1      45.145   8.893  12.030  0.00  0.00    +0.000 A 
ENDROOT
BRANCH   1   7
ATOM      7  C   UNL     1      44.648   6.473  12.582  0.00  0.00    +0.000 C 
BRANCH   7  10
ATOM      8  C   UNL     1      44.131   4.988  10.700  0.00  0.00    +0.000 C 
ATOM      9  O   UNL     1      42.973   5.387  10.622  0.00  0.00    +0.000 OA
ATOM     10  N   UNL     1      45.035   5.462  11.632  0.00  0.00    +0.000 N 
ATOM     11  H   UNL     1      45.968   5.061  11.630  0.00  0.00    +0.000 HD
BRANCH   8  17
ATOM     12  C   UNL     1      46.790   3.691   6.652  0.00  0.00    +0.000 C 
ATOM     13  C   UNL     1      45.933   3.323   7.826  0.00  0.00    +0.000 A 
ATOM     14  C   UNL     1      45.594   1.996   8.094  0.00  0.00    +0.000 A 
ATOM     15  C   UNL     1      44.797   1.716   9.196  0.00  0.00    +0.000 A 
ATOM     16  N   UNL     1      44.313   2.650  10.039  0.00  0.00    +0.000 NA
ATOM     17  C   UNL     1      44.656   3.939   9.764  0.00  0.00    +0.000 A 
ATOM     18  C   UNL     1      45.448   4.316   8.682  0.00  0.00    +0.000 A 
ENDBRANCH   8  17
ENDBRANCH   7  10
ENDBRANCH   1   7
BRANCH   4  19
ATOM     19  C   UNL     1      48.207  11.117  12.530  0.00  0.00    +0.000 C 
BRANCH  19  20
ATOM     20  N   UNL     1      49.536  10.787  12.080  0.00  0.00    +0.000 N 
ATOM     21  C   UNL     1      49.920  11.001  10.779  0.00  0.00    +0.000 C 
ATOM     22  O   UNL     1      49.170  11.512   9.952  0.00  0.00    +0.000 OA
ATOM     23  H   UNL     1      50.063  10.133  12.650  0.00  0.00    +0.000 HD
BRANCH  21  24
ATOM     24  C   UNL     1      51.304  10.638  10.439  0.00  0.00    +0.000 A 
ATOM     25  C   UNL     1      52.192  11.617  10.011  0.00  0.00    +0.000 A 
ATOM     26  S   UNL     1      53.764  11.026   9.710  0.00  0.00    +0.000 S 
ATOM     27  C   UNL     1      53.298   9.434  10.090  0.00  0.00    +0.000 A 
ATOM     28  N   UNL     1      54.186   8.402  10.010  0.00  0.00    +0.000 NA
ATOM     29  C   UNL     1      53.684   7.248  10.301  0.00  0.00    +0.000 A 
ATOM     30  N   UNL     1      52.385   7.032  10.677  0.00  0.00    +0.000 N 
ATOM     31  C   UNL     1      51.466   8.045  10.800  0.00  0.00    +0.000 A 
ATOM     32  O   UNL     1      50.320   7.817  11.192  0.00  0.00    +0.000 OA
ATOM     33  C   UNL     1      51.970   9.361  10.467  0.00  0.00    +0.000 A 
ATOM     34  H   UNL     1      52.059   6.103  10.907  0.00  0.00    +0.000 HD
ENDBRANCH  21  24
ENDBRANCH  19  20
ENDBRANCH   4  19
TORSDOF 6
ENDMDL
MODEL 7
REMARK VINA RESULT:    -6.594      3.482      8.610
REMARK INTER + INTRA:          -9.986
REMARK INTER:                  -9.203
REMARK INTRA:                  -0.783
REMARK UNBOUND:                -1.079
REMARK  Name = 
REMARK  7 active torsions:
REMARK  status: ('A' for Active; 'I' for Inactive)
REMARK    1  A    between atoms: C_1  and  C_2
REMARK    2  A    between atoms: C_6  and  C_7
REMARK    3  A    between atoms: N_9  and  C_10
REMARK    4  A    between atoms: C_10  and  C_11
REMARK    5  A    between atoms: C_14  and  C_15
REMARK    6  A    between atoms: C_15  and  N_16
REMARK    7  A    between atoms: C_17  and  C_19
REMARK                            x       y       z     vdW  Elec       q    Type
REMARK                         _______ _______ _______ _____ _____    ______ ____
ROOT
ATOM      1  C   UNL     1      49.763   7.741  15.983  0.00  0.00    +0.000 A 
ATOM      2  C   UNL     1      48.585   8.500  15.951  0.00  0.00    +0.000 A 
ATOM      3  C   UNL     1      47.951   8.793  14.736  0.00  0.00    +0.000 A 
ATOM      4  C   UNL     1      48.469   8.314  13.526  0.00  0.00    +0.000 A 
ATOM      5  C   UNL     1      49.655   7.566  13.557  0.00  0.00    +0.000 A 
ATOM      6  C   UNL     1      50.287   7.271  14.772  0.00  0.00    +0.000 A 
ENDROOT
BRANCH   1   7
ATOM      7  C   UNL     1      50.467   7.473  17.288  0.00  0.00    +0.000 C 
BRANCH   7  10
ATOM      8  C   UNL     1      50.254   5.041  17.515  0.00  0.00    +0.000 C 
ATOM      9  O   UNL     1      49.029   5.091  17.577  0.00  0.00    +0.000 OA
ATOM     10  N   UNL     1      51.052   6.160  17.372  0.00  0.00    +0.000 N 
ATOM     11  H   UNL     1      52.058   6.021  17.345  0.00  0.00    +0.000 HD
BRANCH   8  17
ATOM     12  C   UNL     1      54.281   2.356  18.822  0.00  0.00    +0.000 C 
ATOM     13  C   UNL     1      52.912   2.449  18.219  0.00  0.00    +0.000 A 
ATOM     14  C   UNL     1      52.263   1.324  17.706  0.00  0.00    +0.000 A 
ATOM     15  C   UNL     1      50.995   1.472  17.160  0.00  0.00    +0.000 A 
ATOM     16  N   UNL     1      50.335   2.645  17.081  0.00  0.00    +0.000 NA
ATOM     17  C   UNL     1      50.981   3.731  17.588  0.00  0.00    +0.000 A 
ATOM     18  C   UNL     1      52.254   3.681  18.153  0.00  0.00    +0.000 A 
ENDBRANCH   8  17
ENDBRANCH   7  10
ENDBRANCH   1   7
BRANCH   4  19
ATOM     19  C   UNL     1      47.785   8.596  12.210  0.00  0.00    +0.000 C 
BRANCH  19  20
ATOM     20  N   UNL     1      47.249   7.399  11.611  0.00  0.00    +0.000 N 
ATOM     21  C   UNL     1      45.895   7.187  11.532  0.00  0.00    +0.000 C 
ATOM     22  O   UNL     1      45.080   8.014  11.931  0.00  0.00    +0.000 OA
ATOM     23  H   UNL     1      47.879   6.608  11.529  0.00  0.00    +0.000 HD
BRANCH  21  24
ATOM     24  C   UNL     1      45.466   5.937  10.887  0.00  0.00    +0.000 A 
ATOM     25  C   UNL     1      45.783   5.700   9.555  0.00  0.00    +0.000 A 
ATOM     26  S   UNL     1      45.251   4.181   8.989  0.00  0.00    +0.000 S 
ATOM     27  C   UNL     1      44.535   3.811  10.487  0.00  0.00    +0.000 A 
ATOM     28  N   UNL     1      43.871   2.636  10.679  0.00  0.00    +0.000 NA
ATOM     29  C   UNL     1      43.356   2.505  11.857  0.00  0.00    +0.000 A 
ATOM     30  N   UNL     1      43.456   3.430  12.862  0.00  0.00    +0.000 N 
ATOM     31  C   UNL     1      44.141   4.611  12.721  0.00  0.00    +0.000 A 
ATOM     32  O   UNL     1      44.253   5.395  13.666  0.00  0.00    +0.000 OA
ATOM     33  C   UNL     1      44.724   4.820  11.412  0.00  0.00    +0.000 A 
ATOM     34  H   UNL     1      43.042   3.258  13.768  0.00  0.00    +0.000 HD
ENDBRANCH  21  24
ENDBRANCH  19  20
ENDBRANCH   4  19
TORSDOF 6
ENDMDL
MODEL 8
REMARK VINA RESULT:    -6.550      3.374      9.009
REMARK INTER + INTRA:          -9.927
REMARK INTER:                  -8.959
REMARK INTRA:                  -0.969
REMARK UNBOUND:                -1.079
REMARK  Name = 
REMARK  7 active torsions:
REMARK  status: ('A' for Active; 'I' for Inactive)
REMARK    1  A    between atoms: C_1  and  C_2
REMARK    2  A    between atoms: C_6  and  C_7
REMARK    3  A    between atoms: N_9  and  C_10
REMARK    4  A    between atoms: C_10  and  C_11
REMARK    5  A    between atoms: C_14  and  C_15
REMARK    6  A    between atoms: C_15  and  N_16
REMARK    7  A    between atoms: C_17  and  C_19
REMARK                            x       y       z     vdW  Elec       q    Type
REMARK                         _______ _______ _______ _____ _____    ______ ____
ROOT
ATOM      1  C   UNL     1      49.906   8.138  15.541  0.00  0.00    +0.000 A 
ATOM      2  C   UNL     1      50.494   7.762  14.326  0.00  0.00    +0.000 A 
ATOM      3  C   UNL     1      49.733   7.689  13.151  0.00  0.00    +0.000 A 
ATOM      4  C   UNL     1      48.369   8.012  13.162  0.00  0.00    +0.000 A 
ATOM      5  C   UNL     1      47.780   8.376  14.380  0.00  0.00    +0.000 A 
ATOM      6  C   UNL     1      48.541   8.452  15.554  0.00  0.00    +0.000 A 
ENDROOT
BRANCH   1   7
ATOM      7  C   UNL     1      50.720   8.166  16.810  0.00  0.00    +0.000 C 
BRANCH   7  10
ATOM      8  C   UNL     1      50.981   5.820  17.477  0.00  0.00    +0.000 C 
ATOM      9  O   UNL     1      49.792   5.702  17.758  0.00  0.00    +0.000 OA
ATOM     10  N   UNL     1      51.535   6.994  17.001  0.00  0.00    +0.000 N 
ATOM     11  H   UNL     1      52.532   7.001  16.810  0.00  0.00    +0.000 HD
BRANCH   8  17
ATOM     12  C   UNL     1      51.855   0.892  17.764  0.00  0.00    +0.000 C 
ATOM     13  C   UNL     1      52.346   2.308  17.764  0.00  0.00    +0.000 A 
ATOM     14  C   UNL     1      53.702   2.610  17.902  0.00  0.00    +0.000 A 
ATOM     15  C   UNL     1      54.097   3.942  17.894  0.00  0.00    +0.000 A 
ATOM     16  N   UNL     1      53.251   4.984  17.766  0.00  0.00    +0.000 NA
ATOM     17  C   UNL     1      51.933   4.670  17.630  0.00  0.00    +0.000 A 
ATOM     18  C   UNL     1      51.442   3.366  17.628  0.00  0.00    +0.000 A 
ENDBRANCH   8  17
ENDBRANCH   7  10
ENDBRANCH   1   7
BRANCH   4  19
ATOM     19  C   UNL     1      47.540   7.965  11.902  0.00  0.00    +0.000 C 
BRANCH  19  20
ATOM     20  N   UNL     1      46.846   6.711  11.756  0.00  0.00    +0.000 N 
ATOM     21  C   UNL     1      45.475   6.657  11.707  0.00  0.00    +0.000 C 
ATOM     22  O   UNL     1      44.779   7.669  11.748  0.00  0.00    +0.000 OA
ATOM     23  H   UNL     1      47.365   5.871  11.991  0.00  0.00    +0.000 HD
BRANCH  21  24
ATOM     24  C   UNL     1      44.878   5.323  11.544  0.00  0.00    +0.000 A 
ATOM     25  C   UNL     1      44.169   4.748  12.591  0.00  0.00    +0.000 A 
ATOM     26  S   UNL     1      43.505   3.224  12.206  0.00  0.00    +0.000 S 
ATOM     27  C   UNL     1      44.187   3.257  10.649  0.00  0.00    +0.000 A 
ATOM     28  N   UNL     1      44.019   2.217   9.784  0.00  0.00    +0.000 NA
ATOM     29  C   UNL     1      44.616   2.370   8.648  0.00  0.00    +0.000 A 
ATOM     30  N   UNL     1      45.351   3.469   8.293  0.00  0.00    +0.000 N 
ATOM     31  C   UNL     1      45.520   4.552   9.120  0.00  0.00    +0.000 A 
ATOM     32  O   UNL     1      46.145   5.546   8.745  0.00  0.00    +0.000 OA
ATOM     33  C   UNL     1      44.887   4.426  10.416  0.00  0.00    +0.000 A 
ATOM     34  H   UNL     1      45.781   3.534   7.380  0.00  0.00    +0.000 HD
ENDBRANCH  21  24
ENDBRANCH  19  20
ENDBRANCH   4  19
TORSDOF 6
ENDMDL
MODEL 9
REMARK VINA RESULT:    -6.382      4.172      6.921
REMARK INTER + INTRA:          -9.700
REMARK INTER:                  -8.934
REMARK INTRA:                  -0.766
REMARK UNBOUND:                -1.079
REMARK  Name = 
REMARK  7 active torsions:
REMARK  status: ('A' for Active; 'I' for Inactive)
REMARK    1  A    between atoms: C_1  and  C_2
REMARK    2  A    between atoms: C_6  and  C_7
REMARK    3  A    between atoms: N_9  and  C_10
REMARK    4  A    between atoms: C_10  and  C_11
REMARK    5  A    between atoms: C_14  and  C_15
REMARK    6  A    between atoms: C_15  and  N_16
REMARK    7  A    between atoms: C_17  and  C_19
REMARK                            x       y       z     vdW  Elec       q    Type
REMARK                         _______ _______ _______ _____ _____    ______ ____
ROOT
ATOM      1  C   UNL     1      44.818   8.679  11.511  0.00  0.00    +0.000 A 
ATOM      2  C   UNL     1      44.467   7.333  11.341  0.00  0.00    +0.000 A 
ATOM      3  C   UNL     1      45.222   6.312  11.934  0.00  0.00    +0.000 A 
ATOM      4  C   UNL     1      46.334   6.617  12.730  0.00  0.00    +0.000 A 
ATOM      5  C   UNL     1      46.692   7.962  12.889  0.00  0.00    +0.000 A 
ATOM      6  C   UNL     1      45.936   8.983  12.299  0.00  0.00    +0.000 A 
ENDROOT
BRANCH   1   7
ATOM      7  C   UNL     1      44.031   9.769  10.828  0.00  0.00    +0.000 C 
BRANCH   7  10
ATOM      8  C   UNL     1      41.976  11.066  11.161  0.00  0.00    +0.000 C 
ATOM      9  O   UNL     1      42.457  12.076  10.655  0.00  0.00    +0.000 OA
ATOM     10  N   UNL     1      42.672   9.878  11.291  0.00  0.00    +0.000 N 
ATOM     11  H   UNL     1      42.195   9.101  11.737  0.00  0.00    +0.000 HD
BRANCH   8  17
ATOM     12  C   UNL     1      38.538  12.570  14.485  0.00  0.00    +0.000 C 
ATOM     13  C   UNL     1      38.924  11.779  13.272  0.00  0.00    +0.000 A 
ATOM     14  C   UNL     1      37.992  11.005  12.579  0.00  0.00    +0.000 A 
ATOM     15  C   UNL     1      38.409  10.293  11.461  0.00  0.00    +0.000 A 
ATOM     16  N   UNL     1      39.673  10.290  10.992  0.00  0.00    +0.000 NA
ATOM     17  C   UNL     1      40.568  11.053  11.678  0.00  0.00    +0.000 A 
ATOM     18  C   UNL     1      40.244  11.798  12.810  0.00  0.00    +0.000 A 
ENDBRANCH   8  17
ENDBRANCH   7  10
ENDBRANCH   1   7
BRANCH   4  19
ATOM     19  C   UNL     1      47.142   5.532  13.399  0.00  0.00    +0.000 C 
BRANCH  19  20
ATOM     20  N   UNL     1      47.384   5.817  14.791  0.00  0.00    +0.000 N 
ATOM     21  C   UNL     1      48.574   6.358  15.211  0.00  0.00    +0.000 C 
ATOM     22  O   UNL     1      49.469   6.658  14.426  0.00  0.00    +0.000 OA
ATOM     23  H   UNL     1      46.792   5.341  15.465  0.00  0.00    +0.000 HD
BRANCH  21  24
ATOM     24  C   UNL     1      48.700   6.618  16.653  0.00  0.00    +0.000 A 
ATOM     25  C   UNL     1      48.749   7.926  17.120  0.00  0.00    +0.000 A 
ATOM     26  S   UNL     1      48.845   8.038  18.820  0.00  0.00    +0.000 S 
ATOM     27  C   UNL     1      48.878   6.346  18.986  0.00  0.00    +0.000 A 
ATOM     28  N   UNL     1      48.980   5.760  20.213  0.00  0.00    +0.000 NA
ATOM     29  C   UNL     1      49.021   4.469  20.182  0.00  0.00    +0.000 A 
ATOM     30  N   UNL     1      48.955   3.711  19.043  0.00  0.00    +0.000 N 
ATOM     31  C   UNL     1      48.821   4.258  17.791  0.00  0.00    +0.000 A 
ATOM     32  O   UNL     1      48.712   3.541  16.794  0.00  0.00    +0.000 OA
ATOM     33  C   UNL     1      48.789   5.705  17.764  0.00  0.00    +0.000 A 
ATOM     34  H   UNL     1      48.976   2.702  19.090  0.00  0.00    +0.000 HD
ENDBRANCH  21  24
ENDBRANCH  19  20
ENDBRANCH   4  19
TORSDOF 6
ENDMDL
