MODEL 1
REMARK VINA RESULT:    -7.643      0.000      0.000
REMARK INTER + INTRA:         -13.374
REMARK INTER:                 -12.110
REMARK INTRA:                  -1.264
REMARK UNBOUND:                -1.264
REMARK  Name = 
REMARK  12 active torsions:
REMARK  status: ('A' for Active; 'I' for Inactive)
REMARK    1  A    between atoms: C_1  and  C_2
REMARK    2  A    between atoms: C_2  and  O_3
REMARK    3  A    between atoms: O_3  and  C_4
REMARK    4  A    between atoms: C_6  and  C_7
REMARK    5  A    between atoms: C_7  and  C_8
REMARK    6  A    between atoms: C_8  and  N_9
REMARK    7  A    between atoms: C_13  and  C_14
REMARK    8  A    between atoms: C_20  and  O_21
REMARK    9  A    between atoms: O_21  and  C_22
REMARK   10  A    between atoms: C_22  and  C_23
REMARK   11  A    between atoms: C_24  and  N_25
REMARK   12  A    between atoms: N_25  and  C_26
REMARK                            x       y       z     vdW  Elec       q    Type
REMARK                         _______ _______ _______ _____ _____    ______ ____
ROOT
ATOM      1  C   UNL     1      46.663   5.298  13.707  0.00  0.00    +0.000 A 
ATOM      2  C   UNL     1      45.411   4.794  13.334  0.00  0.00    +0.000 A 
ATOM      3  C   UNL     1      44.425   5.588  12.731  0.00  0.00    +0.000 A 
ATOM      4  C   UNL     1      44.713   6.937  12.515  0.00  0.00    +0.000 A 
ATOM      5  C   UNL     1      45.950   7.482  12.893  0.00  0.00    +0.000 A 
ATOM      6  C   UNL     1      46.948   6.661  13.494  0.00  0.00    +0.000 A 
ENDROOT
BRANCH   6   7
ATOM      7  N   UNL     1      48.170   7.277  13.882  0.00  0.00    +0.000 N 
ATOM      8  H   UNL     1      47.994   8.050  14.517  0.00  0.00    +0.000 HD
BRANCH   7   9
ATOM      9  C   UNL     1      49.435   7.290  13.204  0.00  0.00    +0.000 C 
ATOM     10  C   UNL     1      50.189   8.624  13.405  0.00  0.00    +0.000 C 
ATOM     11  N   UNL     1      50.433   8.713  11.955  0.00  0.00    +0.000 NA
ATOM     12  C   UNL     1      49.419   7.667  11.715  0.00  0.00    +0.000 C 
ATOM     13  H   UNL     1      51.373   8.425  11.685  0.00  0.00    +0.000 HD
ENDBRANCH   7   9
ENDBRANCH   6   7
BRANCH   1  14
ATOM     14  O   UNL     1      47.641   4.495  14.246  0.00  0.00    +0.000 OA
BRANCH  14  16
ATOM     15  C   UNL     1      47.972   4.836  16.601  0.00  0.00    +0.000 C 
ATOM     16  C   UNL     1      47.384   3.930  15.537  0.00  0.00    +0.000 C 
ENDBRANCH  14  16
ENDBRANCH   1  14
BRANCH   3  17
ATOM     17  C   UNL     1      43.066   5.043  12.319  0.00  0.00    +0.000 C 
BRANCH  17  18
ATOM     18  C   UNL     1      43.087   4.329  10.968  0.00  0.00    +0.000 C 
BRANCH  18  19
ATOM     19  N   UNL     1      43.913   4.992   9.959  0.00  0.00    +0.000 N 
ATOM     20  C   UNL     1      44.715   4.032   9.293  0.00  0.00    +0.000 A 
ATOM     21  C   UNL     1      45.575   4.461   8.287  0.00  0.00    +0.000 A 
ATOM     22  C   UNL     1      46.361   3.524   7.610  0.00  0.00    +0.000 A 
ATOM     23  C   UNL     1      46.270   2.175   7.952  0.00  0.00    +0.000 A 
ATOM     24  C   UNL     1      45.398   1.832   8.969  0.00  0.00    +0.000 A 
ATOM     25  N   UNL     1      44.626   2.727   9.624  0.00  0.00    +0.000 NA
ATOM     26  H   UNL     1      44.524   5.697  10.360  0.00  0.00    +0.000 HD
BRANCH  23  27
ATOM     27  C   UNL     1      47.057   1.101   7.316  0.00  0.00    +0.000 C 
ATOM     28  N   UNL     1      46.739  -0.187   7.641  0.00  0.00    +0.000 N 
ATOM     29  O   UNL     1      47.981   1.343   6.551  0.00  0.00    +0.000 OA
ATOM     30  H   UNL     1      46.174  -0.425   8.443  0.00  0.00    +0.000 HD
ATOM     31  H   UNL     1      47.362  -0.898   7.277  0.00  0.00    +0.000 HD
ENDBRANCH  23  27
ENDBRANCH  18  19
ENDBRANCH  17  18
ENDBRANCH   3  17
BRANCH   5  32
ATOM     32  O   UNL     1      46.277   8.812  12.736  0.00  0.00    +0.000 OA
BRANCH  32  33
ATOM     33  C   UNL     1      45.326   9.701  12.147  0.00  0.00    +0.000 C 
ATOM     34  C   UNL     1      45.978  10.983  11.649  0.00  0.00    +0.000 C 
ENDBRANCH  32  33
ENDBRANCH   5  32
TORSDOF 10
ENDMDL
MODEL 2
REMARK VINA RESULT:    -7.618      0.331      3.279
REMARK INTER + INTRA:         -13.336
REMARK INTER:                 -11.941
REMARK INTRA:                  -1.395
REMARK UNBOUND:                -1.264
REMARK  Name = 
REMARK  12 active torsions:
REMARK  status: ('A' for Active; 'I' for Inactive)
REMARK    1  A    between atoms: C_1  and  C_2
REMARK    2  A    between atoms: C_2  and  O_3
REMARK    3  A    between atoms: O_3  and  C_4
REMARK    4  A    between atoms: C_6  and  C_7
REMARK    5  A    between atoms: C_7  and  C_8
REMARK    6  A    between atoms: C_8  and  N_9
REMARK    7  A    between atoms: C_13  and  C_14
REMARK    8  A    between atoms: C_20  and  O_21
REMARK    9  A    between atoms: O_21  and  C_22
REMARK   10  A    between atoms: C_22  and  C_23
REMARK   11  A    between atoms: C_24  and  N_25
REMARK   12  A    between atoms: N_25  and  C_26
REMARK                            x       y       z     vdW  Elec       q    Type
REMARK                         _______ _______ _______ _____ _____    ______ ____
ROOT
ATOM      1  C   UNL     1      45.964   7.638  12.978  0.00  0.00    +0.000 A 
ATOM      2  C   UNL     1      44.731   7.093  12.596  0.00  0.00    +0.000 A 
ATOM      3  C   UNL     1      44.436   5.728  12.723  0.00  0.00    +0.000 A 
ATOM      4  C   UNL     1      45.427   4.889  13.238  0.00  0.00    +0.000 A 
ATOM      5  C   UNL     1      46.680   5.396  13.613  0.00  0.00    +0.000 A 
ATOM      6  C   UNL     1      46.964   6.787  13.490  0.00  0.00    +0.000 A 
ENDROOT
BRANCH   6   7
ATOM      7  N   UNL     1      48.261   7.236  13.859  0.00  0.00    +0.000 N 
ATOM      8  H   UNL     1      48.232   7.715  14.756  0.00  0.00    +0.000 HD
BRANCH   7   9
ATOM      9  C   UNL     1      49.394   7.522  13.027  0.00  0.00    +0.000 C 
ATOM     10  C   UNL     1      49.720   9.033  12.986  0.00  0.00    +0.000 C 
ATOM     11  N   UNL     1      49.791   8.985  11.515  0.00  0.00    +0.000 NA
ATOM     12  C   UNL     1      49.127   7.666  11.520  0.00  0.00    +0.000 C 
ATOM     13  H   UNL     1      50.745   8.948  11.158  0.00  0.00    +0.000 HD
ENDBRANCH   7   9
ENDBRANCH   6   7
BRANCH   1  14
ATOM     14  O   UNL     1      46.220   8.987  12.900  0.00  0.00    +0.000 OA
BRANCH  14  16
ATOM     15  C   UNL     1      46.144  10.981  11.562  0.00  0.00    +0.000 C 
ATOM     16  C   UNL     1      45.378   9.762  12.039  0.00  0.00    +0.000 C 
ENDBRANCH  14  16
ENDBRANCH   1  14
BRANCH   3  17
ATOM     17  C   UNL     1      43.097   5.133  12.315  0.00  0.00    +0.000 C 
BRANCH  17  18
ATOM     18  C   UNL     1      43.162   4.342  11.009  0.00  0.00    +0.000 C 
BRANCH  18  19
ATOM     19  N   UNL     1      43.938   4.997   9.956  0.00  0.00    +0.000 N 
ATOM     20  C   UNL     1      44.743   4.040   9.291  0.00  0.00    +0.000 A 
ATOM     21  C   UNL     1      45.559   4.461   8.246  0.00  0.00    +0.000 A 
ATOM     22  C   UNL     1      46.348   3.526   7.569  0.00  0.00    +0.000 A 
ATOM     23  C   UNL     1      46.302   2.186   7.950  0.00  0.00    +0.000 A 
ATOM     24  C   UNL     1      45.472   1.849   9.004  0.00  0.00    +0.000 A 
ATOM     25  N   UNL     1      44.698   2.742   9.659  0.00  0.00    +0.000 NA
ATOM     26  H   UNL     1      44.543   5.728  10.318  0.00  0.00    +0.000 HD
BRANCH  23  27
ATOM     27  C   UNL     1      47.097   1.114   7.318  0.00  0.00    +0.000 C 
ATOM     28  N   UNL     1      46.760  -0.176   7.616  0.00  0.00    +0.000 N 
ATOM     29  O   UNL     1      48.041   1.359   6.581  0.00  0.00    +0.000 OA
ATOM     30  H   UNL     1      46.173  -0.421   8.401  0.00  0.00    +0.000 HD
ATOM     31  H   UNL     1      47.385  -0.886   7.258  0.00  0.00    +0.000 HD
ENDBRANCH  23  27
ENDBRANCH  18  19
ENDBRANCH  17  18
ENDBRANCH   3  17
BRANCH   5  32
ATOM     32  O   UNL     1      47.707   4.612  14.094  0.00  0.00    +0.000 OA
BRANCH  32  33
ATOM     33  C   UNL     1      47.408   3.548  15.001  0.00  0.00    +0.000 C 
ATOM     34  C   UNL     1      47.501   3.996  16.453  0.00  0.00    +0.000 C 
ENDBRANCH  32  33
ENDBRANCH   5  32
TORSDOF 10
ENDMDL
MODEL 3
REMARK VINA RESULT:    -7.550      1.211      3.580
REMARK INTER + INTRA:         -13.228
REMARK INTER:                 -12.219
REMARK INTRA:                  -1.009
REMARK UNBOUND:                -1.264
REMARK  Name = 
REMARK  12 active torsions:
REMARK  status: ('A' for Active; 'I' for Inactive)
REMARK    1  A    between atoms: C_1  and  C_2
REMARK    2  A    between atoms: C_2  and  O_3
REMARK    3  A    between atoms: O_3  and  C_4
REMARK    4  A    between atoms: C_6  and  C_7
REMARK    5  A    between atoms: C_7  and  C_8
REMARK    6  A    between atoms: C_8  and  N_9
REMARK    7  A    between atoms: C_13  and  C_14
REMARK    8  A    between atoms: C_20  and  O_21
REMARK    9  A    between atoms: O_21  and  C_22
REMARK   10  A    between atoms: C_22  and  C_23
REMARK   11  A    between atoms: C_24  and  N_25
REMARK   12  A    between atoms: N_25  and  C_26
REMARK                            x       y       z     vdW  Elec       q    Type
REMARK                         _______ _______ _______ _____ _____    ______ ____
ROOT
ATOM      1  C   UNL     1      46.269   7.152  12.861  0.00  0.00    +0.000 A 
ATOM      2  C   UNL     1      45.022   6.632  12.493  0.00  0.00    +0.000 A 
ATOM      3  C   UNL     1      44.613   5.334  12.834  0.00  0.00    +0.000 A 
ATOM      4  C   UNL     1      45.503   4.536  13.556  0.00  0.00    +0.000 A 
ATOM      5  C   UNL     1      46.769   5.016  13.925  0.00  0.00    +0.000 A 
ATOM      6  C   UNL     1      47.167   6.342  13.583  0.00  0.00    +0.000 A 
ENDROOT
BRANCH   6   7
ATOM      7  N   UNL     1      48.472   6.761  13.961  0.00  0.00    +0.000 N 
ATOM      8  H   UNL     1      49.174   6.136  13.574  0.00  0.00    +0.000 HD
BRANCH   7   9
ATOM      9  C   UNL     1      48.882   7.554  15.084  0.00  0.00    +0.000 C 
ATOM     10  C   UNL     1      49.853   8.685  14.676  0.00  0.00    +0.000 C 
ATOM     11  N   UNL     1      50.770   8.300  15.763  0.00  0.00    +0.000 NA
ATOM     12  C   UNL     1      50.055   7.017  15.919  0.00  0.00    +0.000 C 
ATOM     13  H   UNL     1      50.696   8.899  16.584  0.00  0.00    +0.000 HD
ENDBRANCH   7   9
ENDBRANCH   6   7
BRANCH   1  14
ATOM     14  O   UNL     1      46.634   8.445  12.568  0.00  0.00    +0.000 OA
BRANCH  14  16
ATOM     15  C   UNL     1      46.202  10.681  11.803  0.00  0.00    +0.000 C 
ATOM     16  C   UNL     1      45.590   9.347  12.184  0.00  0.00    +0.000 C 
ENDBRANCH  14  16
ENDBRANCH   1  14
BRANCH   3  17
ATOM     17  C   UNL     1      43.258   4.767  12.441  0.00  0.00    +0.000 C 
BRANCH  17  18
ATOM     18  C   UNL     1      43.253   4.124  11.053  0.00  0.00    +0.000 C 
BRANCH  18  19
ATOM     19  N   UNL     1      43.963   4.900  10.038  0.00  0.00    +0.000 N 
ATOM     20  C   UNL     1      44.814   4.045   9.293  0.00  0.00    +0.000 A 
ATOM     21  C   UNL     1      45.580   4.591   8.268  0.00  0.00    +0.000 A 
ATOM     22  C   UNL     1      46.412   3.758   7.513  0.00  0.00    +0.000 A 
ATOM     23  C   UNL     1      46.458   2.394   7.799  0.00  0.00    +0.000 A 
ATOM     24  C   UNL     1      45.674   1.932   8.839  0.00  0.00    +0.000 A 
ATOM     25  N   UNL     1      44.859   2.725   9.569  0.00  0.00    +0.000 NA
ATOM     26  H   UNL     1      44.529   5.641  10.441  0.00  0.00    +0.000 HD
BRANCH  23  27
ATOM     27  C   UNL     1      47.306   1.423   7.080  0.00  0.00    +0.000 C 
ATOM     28  N   UNL     1      48.427   1.903   6.465  0.00  0.00    +0.000 N 
ATOM     29  O   UNL     1      47.010   0.238   7.003  0.00  0.00    +0.000 OA
ATOM     30  H   UNL     1      48.573   2.886   6.283  0.00  0.00    +0.000 HD
ATOM     31  H   UNL     1      48.931   1.239   5.890  0.00  0.00    +0.000 HD
ENDBRANCH  23  27
ENDBRANCH  18  19
ENDBRANCH  17  18
ENDBRANCH   3  17
BRANCH   5  32
ATOM     32  O   UNL     1      47.701   4.264  14.607  0.00  0.00    +0.000 OA
BRANCH  32  33
ATOM     33  C   UNL     1      47.587   4.127  16.025  0.00  0.00    +0.000 C 
ATOM     34  C   UNL     1      48.114   2.785  16.513  0.00  0.00    +0.000 C 
ENDBRANCH  32  33
ENDBRANCH   5  32
TORSDOF 10
ENDMDL
MODEL 4
REMARK VINA RESULT:    -7.528      1.663      2.073
REMARK INTER + INTRA:         -13.193
REMARK INTER:                 -11.773
REMARK INTRA:                  -1.420
REMARK UNBOUND:                -1.264
REMARK  Name = 
REMARK  12 active torsions:
REMARK  status: ('A' for Active; 'I' for Inactive)
REMARK    1  A    between atoms: C_1  and  C_2
REMARK    2  A    between atoms: C_2  and  O_3
REMARK    3  A    between atoms: O_3  and  C_4
REMARK    4  A    between atoms: C_6  and  C_7
REMARK    5  A    between atoms: C_7  and  C_8
REMARK    6  A    between atoms: C_8  and  N_9
REMARK    7  A    between atoms: C_13  and  C_14
REMARK    8  A    between atoms: C_20  and  O_21
REMARK    9  A    between atoms: O_21  and  C_22
REMARK   10  A    between atoms: C_22  and  C_23
REMARK   11  A    between atoms: C_24  and  N_25
REMARK   12  A    between atoms: N_25  and  C_26
REMARK                            x       y       z     vdW  Elec       q    Type
REMARK                         _______ _______ _______ _____ _____    ______ ____
ROOT
ATOM      1  C   UNL     1      47.145   5.370  13.810  0.00  0.00    +0.000 A 
ATOM      2  C   UNL     1      45.808   5.174  13.443  0.00  0.00    +0.000 A 
ATOM      3  C   UNL     1      45.156   5.982  12.500  0.00  0.00    +0.000 A 
ATOM      4  C   UNL     1      45.879   7.029  11.924  0.00  0.00    +0.000 A 
ATOM      5  C   UNL     1      47.214   7.268  12.281  0.00  0.00    +0.000 A 
ATOM      6  C   UNL     1      47.869   6.432  13.233  0.00  0.00    +0.000 A 
ENDROOT
BRANCH   6   7
ATOM      7  N   UNL     1      49.214   6.742  13.575  0.00  0.00    +0.000 N 
ATOM      8  H   UNL     1      49.844   6.019  13.237  0.00  0.00    +0.000 HD
BRANCH   7   9
ATOM      9  C   UNL     1      49.713   7.571  14.635  0.00  0.00    +0.000 C 
ATOM     10  C   UNL     1      50.059   6.753  15.900  0.00  0.00    +0.000 C 
ATOM     11  N   UNL     1      49.301   7.704  16.731  0.00  0.00    +0.000 NA
ATOM     12  C   UNL     1      48.667   8.265  15.521  0.00  0.00    +0.000 C 
ATOM     13  H   UNL     1      49.893   8.376  17.217  0.00  0.00    +0.000 HD
ENDBRANCH   7   9
ENDBRANCH   6   7
BRANCH   1  14
ATOM     14  O   UNL     1      47.788   4.536  14.695  0.00  0.00    +0.000 OA
BRANCH  14  16
ATOM     15  C   UNL     1      47.922   3.234  16.710  0.00  0.00    +0.000 C 
ATOM     16  C   UNL     1      47.132   4.274  15.940  0.00  0.00    +0.000 C 
ENDBRANCH  14  16
ENDBRANCH   1  14
BRANCH   3  17
ATOM     17  C   UNL     1      43.706   5.768  12.094  0.00  0.00    +0.000 C 
BRANCH  17  18
ATOM     18  C   UNL     1      43.553   5.172  10.695  0.00  0.00    +0.000 C 
BRANCH  18  19
ATOM     19  N   UNL     1      43.726   3.721  10.646  0.00  0.00    +0.000 N 
ATOM     20  C   UNL     1      44.630   3.382   9.609  0.00  0.00    +0.000 A 
ATOM     21  C   UNL     1      44.936   2.042   9.398  0.00  0.00    +0.000 A 
ATOM     22  C   UNL     1      45.839   1.693   8.388  0.00  0.00    +0.000 A 
ATOM     23  C   UNL     1      46.419   2.695   7.611  0.00  0.00    +0.000 A 
ATOM     24  C   UNL     1      46.056   4.002   7.878  0.00  0.00    +0.000 A 
ATOM     25  N   UNL     1      45.193   4.352   8.857  0.00  0.00    +0.000 NA
ATOM     26  H   UNL     1      42.852   3.230  10.481  0.00  0.00    +0.000 HD
BRANCH  23  27
ATOM     27  C   UNL     1      47.373   2.446   6.512  0.00  0.00    +0.000 C 
ATOM     28  N   UNL     1      47.323   3.285   5.436  0.00  0.00    +0.000 N 
ATOM     29  O   UNL     1      48.161   1.510   6.539  0.00  0.00    +0.000 OA
ATOM     30  H   UNL     1      46.538   3.895   5.254  0.00  0.00    +0.000 HD
ATOM     31  H   UNL     1      47.910   3.029   4.652  0.00  0.00    +0.000 HD
ENDBRANCH  23  27
ENDBRANCH  18  19
ENDBRANCH  17  18
ENDBRANCH   3  17
BRANCH   5  32
ATOM     32  O   UNL     1      47.966   8.306  11.773  0.00  0.00    +0.000 OA
BRANCH  32  33
ATOM     33  C   UNL     1      47.627   9.650  12.120  0.00  0.00    +0.000 C 
ATOM     34  C   UNL     1      48.302  10.662  11.206  0.00  0.00    +0.000 C 
ENDBRANCH  32  33
ENDBRANCH   5  32
TORSDOF 10
ENDMDL
MODEL 5
REMARK VINA RESULT:    -6.338      2.093      4.069
REMARK INTER + INTRA:         -11.308
REMARK INTER:                 -10.128
REMARK INTRA:                  -1.179
REMARK UNBOUND:                -1.264
REMARK  Name = 
REMARK  12 active torsions:
REMARK  status: ('A' for Active; 'I' for Inactive)
REMARK    1  A    between atoms: C_1  and  C_2
REMARK    2  A    between atoms: C_2  and  O_3
REMARK    3  A    between atoms: O_3  and  C_4
REMARK    4  A    between atoms: C_6  and  C_7
REMARK    5  A    between atoms: C_7  and  C_8
REMARK    6  A    between atoms: C_8  and  N_9
REMARK    7  A    between atoms: C_13  and  C_14
REMARK    8  A    between atoms: C_20  and  O_21
REMARK    9  A    between atoms: O_21  and  C_22
REMARK   10  A    between atoms: C_22  and  C_23
REMARK   11  A    between atoms: C_24  and  N_25
REMARK   12  A    between atoms: N_25  and  C_26
REMARK                            x       y       z     vdW  Elec       q    Type
REMARK                         _______ _______ _______ _____ _____    ______ ____
ROOT
ATOM      1  C   UNL     1      44.928   9.098  11.553  0.00  0.00    +0.000 A 
ATOM      2  C   UNL     1      44.219   7.893  11.474  0.00  0.00    +0.000 A 
ATOM      3  C   UNL     1      44.614   6.736  12.162  0.00  0.00    +0.000 A 
ATOM      4  C   UNL     1      45.771   6.802  12.942  0.00  0.00    +0.000 A 
ATOM      5  C   UNL     1      46.518   7.986  13.030  0.00  0.00    +0.000 A 
ATOM      6  C   UNL     1      46.099   9.158  12.334  0.00  0.00    +0.000 A 
ENDROOT
BRANCH   6   7
ATOM      7  N   UNL     1      46.913  10.320  12.439  0.00  0.00    +0.000 N 
ATOM      8  H   UNL     1      46.546  10.950  13.148  0.00  0.00    +0.000 HD
BRANCH   7   9
ATOM      9  C   UNL     1      47.790  10.905  11.466  0.00  0.00    +0.000 C 
ATOM     10  C   UNL     1      49.202  11.167  12.038  0.00  0.00    +0.000 C 
ATOM     11  N   UNL     1      49.169  12.541  11.508  0.00  0.00    +0.000 NA
ATOM     12  C   UNL     1      47.713  12.430  11.293  0.00  0.00    +0.000 C 
ATOM     13  H   UNL     1      49.692  12.651  10.640  0.00  0.00    +0.000 HD
ENDBRANCH   7   9
ENDBRANCH   6   7
BRANCH   1  14
ATOM     14  O   UNL     1      44.499  10.239  10.917  0.00  0.00    +0.000 OA
BRANCH  14  16
ATOM     15  C   UNL     1      42.707  11.645  10.150  0.00  0.00    +0.000 C 
ATOM     16  C   UNL     1      43.191  10.719  11.249  0.00  0.00    +0.000 C 
ENDBRANCH  14  16
ENDBRANCH   1  14
BRANCH   3  17
ATOM     17  C   UNL     1      43.844   5.427  12.084  0.00  0.00    +0.000 C 
BRANCH  17  18
ATOM     18  C   UNL     1      43.633   4.938  10.651  0.00  0.00    +0.000 C 
BRANCH  18  19
ATOM     19  N   UNL     1      43.870   3.506  10.471  0.00  0.00    +0.000 N 
ATOM     20  C   UNL     1      44.766   3.303   9.392  0.00  0.00    +0.000 A 
ATOM     21  C   UNL     1      45.127   2.002   9.057  0.00  0.00    +0.000 A 
ATOM     22  C   UNL     1      46.023   1.786   8.006  0.00  0.00    +0.000 A 
ATOM     23  C   UNL     1      46.541   2.878   7.310  0.00  0.00    +0.000 A 
ATOM     24  C   UNL     1      46.125   4.138   7.698  0.00  0.00    +0.000 A 
ATOM     25  N   UNL     1      45.268   4.360   8.719  0.00  0.00    +0.000 NA
ATOM     26  H   UNL     1      43.016   2.992  10.278  0.00  0.00    +0.000 HD
BRANCH  23  27
ATOM     27  C   UNL     1      47.482   2.771   6.178  0.00  0.00    +0.000 C 
ATOM     28  N   UNL     1      48.790   2.512   6.472  0.00  0.00    +0.000 N 
ATOM     29  O   UNL     1      47.122   2.937   5.020  0.00  0.00    +0.000 OA
ATOM     30  H   UNL     1      49.175   2.623   7.399  0.00  0.00    +0.000 HD
ATOM     31  H   UNL     1      49.432   2.552   5.689  0.00  0.00    +0.000 HD
ENDBRANCH  23  27
ENDBRANCH  18  19
ENDBRANCH  17  18
ENDBRANCH   3  17
BRANCH   5  32
ATOM     32  O   UNL     1      47.685   8.100  13.755  0.00  0.00    +0.000 OA
BRANCH  32  33
ATOM     33  C   UNL     1      48.787   7.246  13.443  0.00  0.00    +0.000 C 
ATOM     34  C   UNL     1      49.212   7.373  11.987  0.00  0.00    +0.000 C 
ENDBRANCH  32  33
ENDBRANCH   5  32
TORSDOF 10
ENDMDL
MODEL 6
REMARK VINA RESULT:    -6.294      2.812      8.450
REMARK INTER + INTRA:         -11.238
REMARK INTER:                  -9.899
REMARK INTRA:                  -1.338
REMARK UNBOUND:                -1.264
REMARK  Name = 
REMARK  12 active torsions:
REMARK  status: ('A' for Active; 'I' for Inactive)
REMARK    1  A    between atoms: C_1  and  C_2
REMARK    2  A    between atoms: C_2  and  O_3
REMARK    3  A    between atoms: O_3  and  C_4
REMARK    4  A    between atoms: C_6  and  C_7
REMARK    5  A    between atoms: C_7  and  C_8
REMARK    6  A    between atoms: C_8  and  N_9
REMARK    7  A    between atoms: C_13  and  C_14
REMARK    8  A    between atoms: C_20  and  O_21
REMARK    9  A    between atoms: O_21  and  C_22
REMARK   10  A    between atoms: C_22  and  C_23
REMARK   11  A    between atoms: C_24  and  N_25
REMARK   12  A    between atoms: N_25  and  C_26
REMARK                            x       y       z     vdW  Elec       q    Type
REMARK                         _______ _______ _______ _____ _____    ______ ____
ROOT
ATOM      1  C   UNL     1      46.202   5.842  11.584  0.00  0.00    +0.000 A 
ATOM      2  C   UNL     1      47.154   6.843  11.813  0.00  0.00    +0.000 A 
ATOM      3  C   UNL     1      47.978   6.858  12.948  0.00  0.00    +0.000 A 
ATOM      4  C   UNL     1      47.818   5.836  13.886  0.00  0.00    +0.000 A 
ATOM      5  C   UNL     1      46.861   4.828  13.700  0.00  0.00    +0.000 A 
ATOM      6  C   UNL     1      46.038   4.816  12.536  0.00  0.00    +0.000 A 
ENDROOT
BRANCH   6   7
ATOM      7  N   UNL     1      45.067   3.785  12.418  0.00  0.00    +0.000 N 
ATOM      8  H   UNL     1      45.393   3.058  11.786  0.00  0.00    +0.000 HD
BRANCH   7   9
ATOM      9  C   UNL     1      43.651   3.842  12.639  0.00  0.00    +0.000 C 
ATOM     10  C   UNL     1      42.867   4.111  11.334  0.00  0.00    +0.000 C 
ATOM     11  N   UNL     1      42.104   5.178  12.003  0.00  0.00    +0.000 NA
ATOM     12  C   UNL     1      43.077   5.187  13.113  0.00  0.00    +0.000 C 
ATOM     13  H   UNL     1      41.172   4.885  12.294  0.00  0.00    +0.000 HD
ENDBRANCH   7   9
ENDBRANCH   6   7
BRANCH   1  14
ATOM     14  O   UNL     1      45.440   5.810  10.440  0.00  0.00    +0.000 OA
BRANCH  14  16
ATOM     15  C   UNL     1      45.223   4.248   8.627  0.00  0.00    +0.000 C 
ATOM     16  C   UNL     1      46.075   5.339   9.246  0.00  0.00    +0.000 C 
ENDBRANCH  14  16
ENDBRANCH   1  14
BRANCH   3  17
ATOM     17  C   UNL     1      49.018   7.940  13.197  0.00  0.00    +0.000 C 
BRANCH  17  18
ATOM     18  C   UNL     1      49.405   8.075  14.670  0.00  0.00    +0.000 C 
BRANCH  18  19
ATOM     19  N   UNL     1      50.522   7.219  15.071  0.00  0.00    +0.000 N 
ATOM     20  C   UNL     1      50.227   6.599  16.311  0.00  0.00    +0.000 A 
ATOM     21  C   UNL     1      51.165   5.736  16.867  0.00  0.00    +0.000 A 
ATOM     22  C   UNL     1      50.882   5.104  18.082  0.00  0.00    +0.000 A 
ATOM     23  C   UNL     1      49.664   5.348  18.715  0.00  0.00    +0.000 A 
ATOM     24  C   UNL     1      48.790   6.226  18.102  0.00  0.00    +0.000 A 
ATOM     25  N   UNL     1      49.048   6.835  16.923  0.00  0.00    +0.000 NA
ATOM     26  H   UNL     1      51.391   7.736  15.170  0.00  0.00    +0.000 HD
BRANCH  23  27
ATOM     27  C   UNL     1      49.262   4.749  20.003  0.00  0.00    +0.000 C 
ATOM     28  N   UNL     1      48.511   3.609  19.957  0.00  0.00    +0.000 N 
ATOM     29  O   UNL     1      49.557   5.261  21.074  0.00  0.00    +0.000 OA
ATOM     30  H   UNL     1      48.034   3.302  19.122  0.00  0.00    +0.000 HD
ATOM     31  H   UNL     1      48.158   3.281  20.848  0.00  0.00    +0.000 HD
ENDBRANCH  23  27
ENDBRANCH  18  19
ENDBRANCH  17  18
ENDBRANCH   3  17
BRANCH   5  32
ATOM     32  O   UNL     1      46.635   3.814  14.607  0.00  0.00    +0.000 OA
BRANCH  32  33
ATOM     33  C   UNL     1      47.086   3.968  15.955  0.00  0.00    +0.000 C 
ATOM     34  C   UNL     1      48.134   2.929  16.327  0.00  0.00    +0.000 C 
ENDBRANCH  32  33
ENDBRANCH   5  32
TORSDOF 10
ENDMDL
MODEL 7
REMARK VINA RESULT:    -6.036      2.856      8.334
REMARK INTER + INTRA:         -10.829
REMARK INTER:                  -9.309
REMARK INTRA:                  -1.520
REMARK UNBOUND:                -1.264
REMARK  Name = 
REMARK  12 active torsions:
REMARK  status: ('A' for Active; 'I' for Inactive)
REMARK    1  A    between atoms: C_1  and  C_2
REMARK    2  A    between atoms: C_2  and  O_3
REMARK    3  A    between atoms: O_3  and  C_4
REMARK    4  A    between atoms: C_6  and  C_7
REMARK    5  A    between atoms: C_7  and  C_8
REMARK    6  A    between atoms: C_8  and  N_9
REMARK    7  A    between atoms: C_13  and  C_14
REMARK    8  A    between atoms: C_20  and  O_21
REMARK    9  A    between atoms: O_21  and  C_22
REMARK   10  A    between atoms: C_22  and  C_23
REMARK   11  A    between atoms: C_24  and  N_25
REMARK   12  A    between atoms: N_25  and  C_26
REMARK                            x       y       z     vdW  Elec       q    Type
REMARK                         _______ _______ _______ _____ _____    ______ ____
ROOT
ATOM      1  C   UNL     1      45.520   7.627  12.187  0.00  0.00    +0.000 A 
ATOM      2  C   UNL     1      46.832   8.117  12.220  0.00  0.00    +0.000 A 
ATOM      3  C   UNL     1      47.895   7.394  12.782  0.00  0.00    +0.000 A 
ATOM      4  C   UNL     1      47.614   6.146  13.342  0.00  0.00    +0.000 A 
ATOM      5  C   UNL     1      46.308   5.632  13.345  0.00  0.00    +0.000 A 
ATOM      6  C   UNL     1      45.239   6.371  12.759  0.00  0.00    +0.000 A 
ENDROOT
BRANCH   6   7
ATOM      7  N   UNL     1      43.933   5.811  12.818  0.00  0.00    +0.000 N 
ATOM      8  H   UNL     1      43.667   5.628  13.782  0.00  0.00    +0.000 HD
BRANCH   7   9
ATOM      9  C   UNL     1      43.211   5.085  11.814  0.00  0.00    +0.000 C 
ATOM     10  C   UNL     1      43.246   3.559  12.059  0.00  0.00    +0.000 C 
ATOM     11  N   UNL     1      43.635   3.336  10.655  0.00  0.00    +0.000 NA
ATOM     12  C   UNL     1      43.963   4.768  10.512  0.00  0.00    +0.000 C 
ATOM     13  H   UNL     1      42.858   3.045  10.063  0.00  0.00    +0.000 HD
ENDBRANCH   7   9
ENDBRANCH   6   7
BRANCH   1  14
ATOM     14  O   UNL     1      44.499   8.322  11.583  0.00  0.00    +0.000 OA
BRANCH  14  16
ATOM     15  C   UNL     1      43.956  10.302  10.335  0.00  0.00    +0.000 C 
ATOM     16  C   UNL     1      44.580   9.751  11.602  0.00  0.00    +0.000 C 
ENDBRANCH  14  16
ENDBRANCH   1  14
BRANCH   3  17
ATOM     17  C   UNL     1      49.322   7.919  12.815  0.00  0.00    +0.000 C 
BRANCH  17  18
ATOM     18  C   UNL     1      49.794   8.293  14.220  0.00  0.00    +0.000 C 
BRANCH  18  19
ATOM     19  N   UNL     1      50.746   7.345  14.798  0.00  0.00    +0.000 N 
ATOM     20  C   UNL     1      50.228   6.831  16.013  0.00  0.00    +0.000 A 
ATOM     21  C   UNL     1      50.983   5.904  16.724  0.00  0.00    +0.000 A 
ATOM     22  C   UNL     1      50.479   5.375  17.916  0.00  0.00    +0.000 A 
ATOM     23  C   UNL     1      49.227   5.784  18.372  0.00  0.00    +0.000 A 
ATOM     24  C   UNL     1      48.543   6.716  17.614  0.00  0.00    +0.000 A 
ATOM     25  N   UNL     1      49.016   7.226  16.455  0.00  0.00    +0.000 NA
ATOM     26  H   UNL     1      51.649   7.769  14.990  0.00  0.00    +0.000 HD
BRANCH  23  27
ATOM     27  C   UNL     1      48.600   5.305  19.620  0.00  0.00    +0.000 C 
ATOM     28  N   UNL     1      48.602   3.957  19.845  0.00  0.00    +0.000 N 
ATOM     29  O   UNL     1      48.069   6.070  20.413  0.00  0.00    +0.000 OA
ATOM     30  H   UNL     1      48.790   3.281  19.119  0.00  0.00    +0.000 HD
ATOM     31  H   UNL     1      48.073   3.647  20.651  0.00  0.00    +0.000 HD
ENDBRANCH  23  27
ENDBRANCH  18  19
ENDBRANCH  17  18
ENDBRANCH   3  17
BRANCH   5  32
ATOM     32  O   UNL     1      45.966   4.423  13.912  0.00  0.00    +0.000 OA
BRANCH  32  33
ATOM     33  C   UNL     1      46.999   3.540  14.354  0.00  0.00    +0.000 C 
ATOM     34  C   UNL     1      47.349   3.761  15.819  0.00  0.00    +0.000 C 
ENDBRANCH  32  33
ENDBRANCH   5  32
TORSDOF 10
ENDMDL
MODEL 8
REMARK VINA RESULT:    -6.035      2.832      7.549
REMARK INTER + INTRA:         -10.828
REMARK INTER:                  -9.407
REMARK INTRA:                  -1.421
REMARK UNBOUND:                -1.264
REMARK  Name = 
REMARK  12 active torsions:
REMARK  status: ('A' for Active; 'I' for Inactive)
REMARK    1  A    between atoms: C_1  and  C_2
REMARK    2  A    between atoms: C_2  and  O_3
REMARK    3  A    between atoms: O_3  and  C_4
REMARK    4  A    between atoms: C_6  and  C_7
REMARK    5  A    between atoms: C_7  and  C_8
REMARK    6  A    between atoms: C_8  and  N_9
REMARK    7  A    between atoms: C_13  and  C_14
REMARK    8  A    between atoms: C_20  and  O_21
REMARK    9  A    between atoms: O_21  and  C_22
REMARK   10  A    between atoms: C_22  and  C_23
REMARK   11  A    between atoms: C_24  and  N_25
REMARK   12  A    between atoms: N_25  and  C_26
REMARK                            x       y       z     vdW  Elec       q    Type
REMARK                         _______ _______ _______ _____ _____    ______ ____
ROOT
ATOM      1  C   UNL     1      46.214   5.512  13.180  0.00  0.00    +0.000 A 
ATOM      2  C   UNL     1      47.516   6.007  13.034  0.00  0.00    +0.000 A 
ATOM      3  C   UNL     1      47.797   7.216  12.381  0.00  0.00    +0.000 A 
ATOM      4  C   UNL     1      46.726   7.936  11.847  0.00  0.00    +0.000 A 
ATOM      5  C   UNL     1      45.410   7.461  11.957  0.00  0.00    +0.000 A 
ATOM      6  C   UNL     1      45.136   6.237  12.634  0.00  0.00    +0.000 A 
ENDROOT
BRANCH   6   7
ATOM      7  N   UNL     1      43.786   5.795  12.688  0.00  0.00    +0.000 N 
ATOM      8  H   UNL     1      43.448   5.799  13.646  0.00  0.00    +0.000 HD
BRANCH   7   9
ATOM      9  C   UNL     1      43.066   4.965  11.766  0.00  0.00    +0.000 C 
ATOM     10  C   UNL     1      43.257   3.460  12.064  0.00  0.00    +0.000 C 
ATOM     11  N   UNL     1      43.567   3.211  10.645  0.00  0.00    +0.000 NA
ATOM     12  C   UNL     1      43.753   4.660  10.426  0.00  0.00    +0.000 C 
ATOM     13  H   UNL     1      42.781   2.828  10.122  0.00  0.00    +0.000 HD
ENDBRANCH   7   9
ENDBRANCH   6   7
BRANCH   1  14
ATOM     14  O   UNL     1      45.949   4.353  13.872  0.00  0.00    +0.000 OA
BRANCH  14  16
ATOM     15  C   UNL     1      47.130   4.092  15.947  0.00  0.00    +0.000 C 
ATOM     16  C   UNL     1      47.059   3.691  14.487  0.00  0.00    +0.000 C 
ENDBRANCH  14  16
ENDBRANCH   1  14
BRANCH   3  17
ATOM     17  C   UNL     1      49.209   7.759  12.225  0.00  0.00    +0.000 C 
BRANCH  17  18
ATOM     18  C   UNL     1      49.999   7.768  13.533  0.00  0.00    +0.000 C 
BRANCH  18  19
ATOM     19  N   UNL     1      49.308   8.428  14.640  0.00  0.00    +0.000 N 
ATOM     20  C   UNL     1      49.398   7.627  15.805  0.00  0.00    +0.000 A 
ATOM     21  C   UNL     1      48.804   8.081  16.978  0.00  0.00    +0.000 A 
ATOM     22  C   UNL     1      48.898   7.309  18.140  0.00  0.00    +0.000 A 
ATOM     23  C   UNL     1      49.587   6.098  18.105  0.00  0.00    +0.000 A 
ATOM     24  C   UNL     1      50.141   5.712  16.899  0.00  0.00    +0.000 A 
ATOM     25  N   UNL     1      50.065   6.454  15.772  0.00  0.00    +0.000 NA
ATOM     26  H   UNL     1      48.326   8.593  14.441  0.00  0.00    +0.000 HD
BRANCH  23  27
ATOM     27  C   UNL     1      49.741   5.195  19.264  0.00  0.00    +0.000 C 
ATOM     28  N   UNL     1      49.486   3.868  19.063  0.00  0.00    +0.000 N 
ATOM     29  O   UNL     1      50.052   5.612  20.371  0.00  0.00    +0.000 OA
ATOM     30  H   UNL     1      48.987   3.523  18.256  0.00  0.00    +0.000 HD
ATOM     31  H   UNL     1      49.493   3.290  19.894  0.00  0.00    +0.000 HD
ENDBRANCH  23  27
ENDBRANCH  18  19
ENDBRANCH  17  18
ENDBRANCH   3  17
BRANCH   5  32
ATOM     32  O   UNL     1      44.319   8.110  11.421  0.00  0.00    +0.000 OA
BRANCH  32  33
ATOM     33  C   UNL     1      44.344   9.534  11.295  0.00  0.00    +0.000 C 
ATOM     34  C   UNL     1      43.194  10.051  10.442  0.00  0.00    +0.000 C 
ENDBRANCH  32  33
ENDBRANCH   5  32
TORSDOF 10
ENDMDL
MODEL 9
REMARK VINA RESULT:    -5.637      3.692      8.534
REMARK INTER + INTRA:         -10.197
REMARK INTER:                  -9.131
REMARK INTRA:                  -1.065
REMARK UNBOUND:                -1.264
REMARK  Name = 
REMARK  12 active torsions:
REMARK  status: ('A' for Active; 'I' for Inactive)
REMARK    1  A    between atoms: C_1  and  C_2
REMARK    2  A    between atoms: C_2  and  O_3
REMARK    3  A    between atoms: O_3  and  C_4
REMARK    4  A    between atoms: C_6  and  C_7
REMARK    5  A    between atoms: C_7  and  C_8
REMARK    6  A    between atoms: C_8  and  N_9
REMARK    7  A    between atoms: C_13  and  C_14
REMARK    8  A    between atoms: C_20  and  O_21
REMARK    9  A    between atoms: O_21  and  C_22
REMARK   10  A    between atoms: C_22  and  C_23
REMARK   11  A    between atoms: C_24  and  N_25
REMARK   12  A    between atoms: N_25  and  C_26
REMARK                            x       y       z     vdW  Elec       q    Type
REMARK                         _______ _______ _______ _____ _____    ______ ____
ROOT
ATOM      1  C   UNL     1      46.746   6.739  12.751  0.00  0.00    +0.000 A 
ATOM      2  C   UNL     1      47.931   7.377  13.138  0.00  0.00    +0.000 A 
ATOM      3  C   UNL     1      48.714   6.930  14.213  0.00  0.00    +0.000 A 
ATOM      4  C   UNL     1      48.273   5.812  14.924  0.00  0.00    +0.000 A 
ATOM      5  C   UNL     1      47.080   5.159  14.576  0.00  0.00    +0.000 A 
ATOM      6  C   UNL     1      46.300   5.616  13.474  0.00  0.00    +0.000 A 
ENDROOT
BRANCH   6   7
ATOM      7  N   UNL     1      45.087   4.931  13.189  0.00  0.00    +0.000 N 
ATOM      8  H   UNL     1      44.475   4.935  14.001  0.00  0.00    +0.000 HD
BRANCH   7   9
ATOM      9  C   UNL     1      44.826   3.920  12.205  0.00  0.00    +0.000 C 
ATOM     10  C   UNL     1      43.910   4.435  11.071  0.00  0.00    +0.000 C 
ATOM     11  N   UNL     1      43.055   3.243  11.210  0.00  0.00    +0.000 NA
ATOM     12  C   UNL     1      43.685   2.936  12.509  0.00  0.00    +0.000 C 
ATOM     13  H   UNL     1      43.236   2.532  10.503  0.00  0.00    +0.000 HD
ENDBRANCH   7   9
ENDBRANCH   6   7
BRANCH   1  14
ATOM     14  O   UNL     1      46.019   7.155  11.660  0.00  0.00    +0.000 OA
BRANCH  14  16
ATOM     15  C   UNL     1      45.362   9.418  12.133  0.00  0.00    +0.000 C 
ATOM     16  C   UNL     1      44.887   7.995  11.912  0.00  0.00    +0.000 C 
ENDBRANCH  14  16
ENDBRANCH   1  14
BRANCH   3  17
ATOM     17  C   UNL     1      50.005   7.616  14.634  0.00  0.00    +0.000 C 
BRANCH  17  18
ATOM     18  C   UNL     1      50.377   7.355  16.094  0.00  0.00    +0.000 C 
BRANCH  18  19
ATOM     19  N   UNL     1      51.814   7.215  16.324  0.00  0.00    +0.000 N 
ATOM     20  C   UNL     1      52.091   5.927  16.844  0.00  0.00    +0.000 A 
ATOM     21  C   UNL     1      53.410   5.589  17.130  0.00  0.00    +0.000 A 
ATOM     22  C   UNL     1      53.701   4.316  17.629  0.00  0.00    +0.000 A 
ATOM     23  C   UNL     1      52.665   3.404  17.830  0.00  0.00    +0.000 A 
ATOM     24  C   UNL     1      51.381   3.820  17.530  0.00  0.00    +0.000 A 
ATOM     25  N   UNL     1      51.089   5.044  17.039  0.00  0.00    +0.000 NA
ATOM     26  H   UNL     1      52.172   7.907  16.976  0.00  0.00    +0.000 HD
BRANCH  23  27
ATOM     27  C   UNL     1      52.851   2.040  18.361  0.00  0.00    +0.000 C 
ATOM     28  N   UNL     1      51.855   1.134  18.127  0.00  0.00    +0.000 N 
ATOM     29  O   UNL     1      53.837   1.729  19.015  0.00  0.00    +0.000 OA
ATOM     30  H   UNL     1      50.929   1.405  17.827  0.00  0.00    +0.000 HD
ATOM     31  H   UNL     1      51.956   0.241  18.592  0.00  0.00    +0.000 HD
ENDBRANCH  23  27
ENDBRANCH  18  19
ENDBRANCH  17  18
ENDBRANCH   3  17
BRANCH   5  32
ATOM     32  O   UNL     1      46.578   4.074  15.262  0.00  0.00    +0.000 OA
BRANCH  32  33
ATOM     33  C   UNL     1      46.936   3.885  16.632  0.00  0.00    +0.000 C 
ATOM     34  C   UNL     1      47.901   2.722  16.814  0.00  0.00    +0.000 C 
ENDBRANCH  32  33
ENDBRANCH   5  32
TORSDOF 10
ENDMDL
