MODEL 1
REMARK VINA RESULT:    -8.721      0.000      0.000
REMARK INTER + INTRA:         -12.840
REMARK INTER:                 -11.780
REMARK INTRA:                  -1.060
REMARK UNBOUND:                -1.060
REMARK  Name = 
REMARK  6 active torsions:
REMARK  status: ('A' for Active; 'I' for Inactive)
REMARK    1  A    between atoms: C_2  and  C_25
REMARK    2  A    between atoms: N_3  and  C_4
REMARK    3  A    between atoms: C_4  and  C_5
REMARK    4  A    between atoms: C_9  and  C_10
REMARK    5  A    between atoms: C_10  and  N_11
REMARK    6  A    between atoms: C_12  and  C_14
REMARK                            x       y       z     vdW  Elec       q    Type
REMARK                         _______ _______ _______ _____ _____    ______ ____
ROOT
ATOM      1  C   UNL     1      45.645   5.680  11.555  0.00  0.00    +0.000 A 
ATOM      2  C   UNL     1      46.460   6.819  11.539  0.00  0.00    +0.000 A 
ATOM      3  C   UNL     1      47.330   7.079  12.597  0.00  0.00    +0.000 A 
ATOM      4  C   UNL     1      47.369   6.223  13.698  0.00  0.00    +0.000 A 
ATOM      5  C   UNL     1      46.526   5.107  13.761  0.00  0.00    +0.000 A 
ATOM      6  C   UNL     1      45.687   4.827  12.670  0.00  0.00    +0.000 A 
ENDROOT
BRANCH   1   7
ATOM      7  C   UNL     1      44.701   5.405  10.416  0.00  0.00    +0.000 C 
BRANCH   7  10
ATOM      8  O   UNL     1      44.635   2.649   9.957  0.00  0.00    +0.000 OA
ATOM      9  C   UNL     1      45.271   3.363   9.187  0.00  0.00    +0.000 C 
ATOM     10  N   UNL     1      45.363   4.731   9.328  0.00  0.00    +0.000 N 
ATOM     11  H   UNL     1      45.909   5.259   8.653  0.00  0.00    +0.000 HD
BRANCH   9  12
ATOM     12  C   UNL     1      45.984   2.769   8.020  0.00  0.00    +0.000 A 
ATOM     13  C   UNL     1      46.207   3.521   6.876  0.00  0.00    +0.000 A 
ATOM     14  C   UNL     1      46.875   2.919   5.817  0.00  0.00    +0.000 A 
ATOM     15  C   UNL     1      47.279   1.605   5.963  0.00  0.00    +0.000 A 
ATOM     16  N   UNL     1      47.049   0.894   7.089  0.00  0.00    +0.000 NA
ATOM     17  N   UNL     1      46.393   1.483   8.134  0.00  0.00    +0.000 NA
ENDBRANCH   9  12
ENDBRANCH   7  10
ENDBRANCH   1   7
BRANCH   5  18
ATOM     18  C   UNL     1      46.517   4.228  14.984  0.00  0.00    +0.000 C 
BRANCH  18  19
ATOM     19  N   UNL     1      47.795   4.213  15.645  0.00  0.00    +0.000 N 
ATOM     20  C   UNL     1      47.879   4.333  17.010  0.00  0.00    +0.000 C 
ATOM     21  O   UNL     1      46.880   4.402  17.719  0.00  0.00    +0.000 OA
ATOM     22  H   UNL     1      48.611   4.408  15.074  0.00  0.00    +0.000 HD
BRANCH  20  23
ATOM     23  C   UNL     1      49.228   4.307  17.589  0.00  0.00    +0.000 A 
ATOM     24  C   UNL     1      49.683   5.396  18.321  0.00  0.00    +0.000 A 
ATOM     25  S   UNL     1      51.238   5.173  18.983  0.00  0.00    +0.000 S 
ATOM     26  C   UNL     1      51.381   3.635  18.269  0.00  0.00    +0.000 A 
ATOM     27  N   UNL     1      52.507   2.890  18.431  0.00  0.00    +0.000 NA
ATOM     28  C   UNL     1      52.494   1.760  17.806  0.00  0.00    +0.000 A 
ATOM     29  N   UNL     1      51.456   1.308  17.034  0.00  0.00    +0.000 N 
ATOM     30  C   UNL     1      50.289   2.014  16.862  0.00  0.00    +0.000 A 
ATOM     31  O   UNL     1      49.367   1.567  16.187  0.00  0.00    +0.000 OA
ATOM     32  C   UNL     1      50.254   3.293  17.542  0.00  0.00    +0.000 A 
ATOM     33  H   UNL     1      51.506   0.412  16.573  0.00  0.00    +0.000 HD
ENDBRANCH  20  23
ENDBRANCH  18  19
ENDBRANCH   5  18
TORSDOF 6
ENDMDL
MODEL 2
REMARK VINA RESULT:    -8.557      2.069      2.825
REMARK INTER + INTRA:         -12.618
REMARK INTER:                 -11.453
REMARK INTRA:                  -1.165
REMARK UNBOUND:                -1.060
REMARK  Name = 
REMARK  6 active torsions:
REMARK  status: ('A' for Active; 'I' for Inactive)
REMARK    1  A    between atoms: C_2  and  C_25
REMARK    2  A    between atoms: N_3  and  C_4
REMARK    3  A    between atoms: C_4  and  C_5
REMARK    4  A    between atoms: C_9  and  C_10
REMARK    5  A    between atoms: C_10  and  N_11
REMARK    6  A    between atoms: C_12  and  C_14
REMARK                            x       y       z     vdW  Elec       q    Type
REMARK                         _______ _______ _______ _____ _____    ______ ____
ROOT
ATOM      1  C   UNL     1      45.163   6.298  11.228  0.00  0.00    +0.000 A 
ATOM      2  C   UNL     1      44.424   7.470  11.443  0.00  0.00    +0.000 A 
ATOM      3  C   UNL     1      45.051   8.621  11.919  0.00  0.00    +0.000 A 
ATOM      4  C   UNL     1      46.414   8.604  12.217  0.00  0.00    +0.000 A 
ATOM      5  C   UNL     1      47.161   7.430  12.060  0.00  0.00    +0.000 A 
ATOM      6  C   UNL     1      46.532   6.289  11.535  0.00  0.00    +0.000 A 
ENDROOT
BRANCH   1   7
ATOM      7  C   UNL     1      44.484   5.055  10.721  0.00  0.00    +0.000 C 
BRANCH   7  10
ATOM      8  O   UNL     1      44.065   2.456   9.784  0.00  0.00    +0.000 OA
ATOM      9  C   UNL     1      44.963   3.128   9.287  0.00  0.00    +0.000 C 
ATOM     10  N   UNL     1      45.248   4.418   9.679  0.00  0.00    +0.000 N 
ATOM     11  H   UNL     1      46.009   4.914   9.224  0.00  0.00    +0.000 HD
BRANCH   9  12
ATOM     12  C   UNL     1      45.807   2.569   8.192  0.00  0.00    +0.000 A 
ATOM     13  C   UNL     1      46.145   3.349   7.096  0.00  0.00    +0.000 A 
ATOM     14  C   UNL     1      46.933   2.779   6.104  0.00  0.00    +0.000 A 
ATOM     15  C   UNL     1      47.335   1.466   6.265  0.00  0.00    +0.000 A 
ATOM     16  N   UNL     1      46.991   0.726   7.342  0.00  0.00    +0.000 NA
ATOM     17  N   UNL     1      46.217   1.284   8.321  0.00  0.00    +0.000 NA
ENDBRANCH   9  12
ENDBRANCH   7  10
ENDBRANCH   1   7
BRANCH   5  18
ATOM     18  C   UNL     1      48.615   7.395  12.454  0.00  0.00    +0.000 C 
BRANCH  18  19
ATOM     19  N   UNL     1      48.827   6.638  13.660  0.00  0.00    +0.000 N 
ATOM     20  C   UNL     1      48.865   7.263  14.881  0.00  0.00    +0.000 C 
ATOM     21  O   UNL     1      48.669   8.469  15.001  0.00  0.00    +0.000 OA
ATOM     22  H   UNL     1      49.232   5.713  13.558  0.00  0.00    +0.000 HD
BRANCH  20  23
ATOM     23  C   UNL     1      49.087   6.405  16.052  0.00  0.00    +0.000 A 
ATOM     24  C   UNL     1      50.092   6.722  16.956  0.00  0.00    +0.000 A 
ATOM     25  S   UNL     1      50.167   5.666  18.292  0.00  0.00    +0.000 S 
ATOM     26  C   UNL     1      48.896   4.714  17.681  0.00  0.00    +0.000 A 
ATOM     27  N   UNL     1      48.462   3.612  18.350  0.00  0.00    +0.000 NA
ATOM     28  C   UNL     1      47.517   2.965  17.755  0.00  0.00    +0.000 A 
ATOM     29  N   UNL     1      46.964   3.321  16.553  0.00  0.00    +0.000 N 
ATOM     30  C   UNL     1      47.352   4.439  15.853  0.00  0.00    +0.000 A 
ATOM     31  O   UNL     1      46.816   4.746  14.793  0.00  0.00    +0.000 OA
ATOM     32  C   UNL     1      48.415   5.201  16.478  0.00  0.00    +0.000 A 
ATOM     33  H   UNL     1      46.223   2.773  16.141  0.00  0.00    +0.000 HD
ENDBRANCH  20  23
ENDBRANCH  18  19
ENDBRANCH   5  18
TORSDOF 6
ENDMDL
MODEL 3
REMARK VINA RESULT:    -8.012      2.592      3.651
REMARK INTER + INTRA:         -11.882
REMARK INTER:                 -10.897
REMARK INTRA:                  -0.985
REMARK UNBOUND:                -1.060
REMARK  Name = 
REMARK  6 active torsions:
REMARK  status: ('A' for Active; 'I' for Inactive)
REMARK    1  A    between atoms: C_2  and  C_25
REMARK    2  A    between atoms: N_3  and  C_4
REMARK    3  A    between atoms: C_4  and  C_5
REMARK    4  A    between atoms: C_9  and  C_10
REMARK    5  A    between atoms: C_10  and  N_11
REMARK    6  A    between atoms: C_12  and  C_14
REMARK                            x       y       z     vdW  Elec       q    Type
REMARK                         _______ _______ _______ _____ _____    ______ ____
ROOT
ATOM      1  C   UNL     1      45.133   8.061  11.729  0.00  0.00    +0.000 A 
ATOM      2  C   UNL     1      44.517   9.254  11.328  0.00  0.00    +0.000 A 
ATOM      3  C   UNL     1      45.172  10.474  11.487  0.00  0.00    +0.000 A 
ATOM      4  C   UNL     1      46.434  10.519  12.080  0.00  0.00    +0.000 A 
ATOM      5  C   UNL     1      47.048   9.346  12.536  0.00  0.00    +0.000 A 
ATOM      6  C   UNL     1      46.401   8.117  12.328  0.00  0.00    +0.000 A 
ENDROOT
BRANCH   1   7
ATOM      7  C   UNL     1      44.422   6.746  11.563  0.00  0.00    +0.000 C 
BRANCH   7  10
ATOM      8  O   UNL     1      43.317   4.456  10.403  0.00  0.00    +0.000 OA
ATOM      9  C   UNL     1      44.459   4.783  10.097  0.00  0.00    +0.000 C 
ATOM     10  N   UNL     1      45.091   5.895  10.612  0.00  0.00    +0.000 N 
ATOM     11  H   UNL     1      46.039   6.104  10.314  0.00  0.00    +0.000 HD
BRANCH   9  12
ATOM     12  C   UNL     1      45.237   3.979   9.112  0.00  0.00    +0.000 A 
ATOM     13  C   UNL     1      45.260   2.594   9.196  0.00  0.00    +0.000 A 
ATOM     14  C   UNL     1      46.002   1.893   8.254  0.00  0.00    +0.000 A 
ATOM     15  C   UNL     1      46.676   2.614   7.287  0.00  0.00    +0.000 A 
ATOM     16  N   UNL     1      46.639   3.963   7.226  0.00  0.00    +0.000 NA
ATOM     17  N   UNL     1      45.908   4.657   8.151  0.00  0.00    +0.000 NA
ENDBRANCH   9  12
ENDBRANCH   7  10
ENDBRANCH   1   7
BRANCH   5  18
ATOM     18  C   UNL     1      48.377   9.407  13.242  0.00  0.00    +0.000 C 
BRANCH  18  19
ATOM     19  N   UNL     1      48.371   8.647  14.465  0.00  0.00    +0.000 N 
ATOM     20  C   UNL     1      48.984   7.421  14.530  0.00  0.00    +0.000 C 
ATOM     21  O   UNL     1      49.602   6.951  13.579  0.00  0.00    +0.000 OA
ATOM     22  H   UNL     1      47.673   8.895  15.159  0.00  0.00    +0.000 HD
BRANCH  20  23
ATOM     23  C   UNL     1      48.924   6.725  15.821  0.00  0.00    +0.000 A 
ATOM     24  C   UNL     1      49.585   7.256  16.921  0.00  0.00    +0.000 A 
ATOM     25  S   UNL     1      49.353   6.363  18.355  0.00  0.00    +0.000 S 
ATOM     26  C   UNL     1      48.407   5.204  17.544  0.00  0.00    +0.000 A 
ATOM     27  N   UNL     1      47.893   4.133  18.208  0.00  0.00    +0.000 NA
ATOM     28  C   UNL     1      47.225   3.316  17.463  0.00  0.00    +0.000 A 
ATOM     29  N   UNL     1      47.024   3.473  16.117  0.00  0.00    +0.000 N 
ATOM     30  C   UNL     1      47.502   4.551  15.410  0.00  0.00    +0.000 A 
ATOM     31  O   UNL     1      47.280   4.676  14.210  0.00  0.00    +0.000 OA
ATOM     32  C   UNL     1      48.263   5.499  16.200  0.00  0.00    +0.000 A 
ATOM     33  H   UNL     1      46.489   2.798  15.591  0.00  0.00    +0.000 HD
ENDBRANCH  20  23
ENDBRANCH  18  19
ENDBRANCH   5  18
TORSDOF 6
ENDMDL
MODEL 4
REMARK VINA RESULT:    -7.957      2.401      2.997
REMARK INTER + INTRA:         -11.807
REMARK INTER:                 -11.094
REMARK INTRA:                  -0.713
REMARK UNBOUND:                -1.060
REMARK  Name = 
REMARK  6 active torsions:
REMARK  status: ('A' for Active; 'I' for Inactive)
REMARK    1  A    between atoms: C_2  and  C_25
REMARK    2  A    between atoms: N_3  and  C_4
REMARK    3  A    between atoms: C_4  and  C_5
REMARK    4  A    between atoms: C_9  and  C_10
REMARK    5  A    between atoms: C_10  and  N_11
REMARK    6  A    between atoms: C_12  and  C_14
REMARK                            x       y       z     vdW  Elec       q    Type
REMARK                         _______ _______ _______ _____ _____    ______ ____
ROOT
ATOM      1  C   UNL     1      45.146   6.457  11.666  0.00  0.00    +0.000 A 
ATOM      2  C   UNL     1      44.804   7.813  11.749  0.00  0.00    +0.000 A 
ATOM      3  C   UNL     1      45.583   8.692  12.500  0.00  0.00    +0.000 A 
ATOM      4  C   UNL     1      46.691   8.220  13.203  0.00  0.00    +0.000 A 
ATOM      5  C   UNL     1      47.022   6.859  13.178  0.00  0.00    +0.000 A 
ATOM      6  C   UNL     1      46.260   5.990  12.381  0.00  0.00    +0.000 A 
ENDROOT
BRANCH   1   7
ATOM      7  C   UNL     1      44.301   5.508  10.861  0.00  0.00    +0.000 C 
BRANCH   7  10
ATOM      8  O   UNL     1      43.881   2.908   9.930  0.00  0.00    +0.000 OA
ATOM      9  C   UNL     1      44.778   3.578   9.429  0.00  0.00    +0.000 C 
ATOM     10  N   UNL     1      45.063   4.870   9.818  0.00  0.00    +0.000 N 
ATOM     11  H   UNL     1      45.822   5.365   9.360  0.00  0.00    +0.000 HD
BRANCH   9  12
ATOM     12  C   UNL     1      45.619   3.018   8.333  0.00  0.00    +0.000 A 
ATOM     13  C   UNL     1      46.078   1.710   8.398  0.00  0.00    +0.000 A 
ATOM     14  C   UNL     1      46.860   1.238   7.352  0.00  0.00    +0.000 A 
ATOM     15  C   UNL     1      47.137   2.097   6.305  0.00  0.00    +0.000 A 
ATOM     16  N   UNL     1      46.680   3.368   6.266  0.00  0.00    +0.000 NA
ATOM     17  N   UNL     1      45.908   3.836   7.294  0.00  0.00    +0.000 NA
ENDBRANCH   9  12
ENDBRANCH   7  10
ENDBRANCH   1   7
BRANCH   5  18
ATOM     18  C   UNL     1      48.174   6.340  13.998  0.00  0.00    +0.000 C 
BRANCH  18  19
ATOM     19  N   UNL     1      47.994   6.600  15.402  0.00  0.00    +0.000 N 
ATOM     20  C   UNL     1      49.037   6.451  16.282  0.00  0.00    +0.000 C 
ATOM     21  O   UNL     1      50.166   6.149  15.906  0.00  0.00    +0.000 OA
ATOM     22  H   UNL     1      47.041   6.601  15.753  0.00  0.00    +0.000 HD
BRANCH  20  23
ATOM     23  C   UNL     1      48.753   6.740  17.693  0.00  0.00    +0.000 A 
ATOM     24  C   UNL     1      48.538   8.051  18.097  0.00  0.00    +0.000 A 
ATOM     25  S   UNL     1      48.150   8.201  19.750  0.00  0.00    +0.000 S 
ATOM     26  C   UNL     1      48.311   6.526  19.997  0.00  0.00    +0.000 A 
ATOM     27  N   UNL     1      48.123   5.978  21.228  0.00  0.00    +0.000 NA
ATOM     28  C   UNL     1      48.311   4.702  21.278  0.00  0.00    +0.000 A 
ATOM     29  N   UNL     1      48.668   3.923  20.208  0.00  0.00    +0.000 N 
ATOM     30  C   UNL     1      48.844   4.427  18.942  0.00  0.00    +0.000 A 
ATOM     31  O   UNL     1      49.136   3.698  18.000  0.00  0.00    +0.000 OA
ATOM     32  C   UNL     1      48.647   5.859  18.831  0.00  0.00    +0.000 A 
ATOM     33  H   UNL     1      48.797   2.928  20.313  0.00  0.00    +0.000 HD
ENDBRANCH  20  23
ENDBRANCH  18  19
ENDBRANCH   5  18
TORSDOF 6
ENDMDL
MODEL 5
REMARK VINA RESULT:    -7.556      3.686      4.572
REMARK INTER + INTRA:         -11.267
REMARK INTER:                 -10.317
REMARK INTRA:                  -0.950
REMARK UNBOUND:                -1.060
REMARK  Name = 
REMARK  6 active torsions:
REMARK  status: ('A' for Active; 'I' for Inactive)
REMARK    1  A    between atoms: C_2  and  C_25
REMARK    2  A    between atoms: N_3  and  C_4
REMARK    3  A    between atoms: C_4  and  C_5
REMARK    4  A    between atoms: C_9  and  C_10
REMARK    5  A    between atoms: C_10  and  N_11
REMARK    6  A    between atoms: C_12  and  C_14
REMARK                            x       y       z     vdW  Elec       q    Type
REMARK                         _______ _______ _______ _____ _____    ______ ____
ROOT
ATOM      1  C   UNL     1      44.476   4.855  11.685  0.00  0.00    +0.000 A 
ATOM      2  C   UNL     1      45.295   4.060  12.498  0.00  0.00    +0.000 A 
ATOM      3  C   UNL     1      46.094   4.645  13.479  0.00  0.00    +0.000 A 
ATOM      4  C   UNL     1      46.110   6.031  13.636  0.00  0.00    +0.000 A 
ATOM      5  C   UNL     1      45.340   6.849  12.800  0.00  0.00    +0.000 A 
ATOM      6  C   UNL     1      44.502   6.249  11.847  0.00  0.00    +0.000 A 
ENDROOT
BRANCH   1   7
ATOM      7  C   UNL     1      43.619   4.224  10.622  0.00  0.00    +0.000 C 
BRANCH   7  10
ATOM      8  O   UNL     1      45.363   4.926   8.555  0.00  0.00    +0.000 OA
ATOM      9  C   UNL     1      45.205   3.738   8.818  0.00  0.00    +0.000 C 
ATOM     10  N   UNL     1      44.368   3.291   9.819  0.00  0.00    +0.000 N 
ATOM     11  H   UNL     1      44.285   2.292   9.980  0.00  0.00    +0.000 HD
BRANCH   9  12
ATOM     12  C   UNL     1      45.941   2.690   8.056  0.00  0.00    +0.000 A 
ATOM     13  C   UNL     1      46.613   3.012   6.886  0.00  0.00    +0.000 A 
ATOM     14  C   UNL     1      47.282   1.997   6.214  0.00  0.00    +0.000 A 
ATOM     15  C   UNL     1      47.239   0.723   6.748  0.00  0.00    +0.000 A 
ATOM     16  N   UNL     1      46.576   0.434   7.889  0.00  0.00    +0.000 NA
ATOM     17  N   UNL     1      45.918   1.430   8.554  0.00  0.00    +0.000 NA
ENDBRANCH   9  12
ENDBRANCH   7  10
ENDBRANCH   1   7
BRANCH   5  18
ATOM     18  C   UNL     1      45.418   8.349  12.922  0.00  0.00    +0.000 C 
BRANCH  18  19
ATOM     19  N   UNL     1      46.569   8.768  13.677  0.00  0.00    +0.000 N 
ATOM     20  C   UNL     1      47.643   9.350  13.052  0.00  0.00    +0.000 C 
ATOM     21  O   UNL     1      47.646   9.583  11.846  0.00  0.00    +0.000 OA
ATOM     22  H   UNL     1      46.687   8.365  14.601  0.00  0.00    +0.000 HD
BRANCH  20  23
ATOM     23  C   UNL     1      48.769   9.743  13.908  0.00  0.00    +0.000 A 
ATOM     24  C   UNL     1      48.985  11.086  14.186  0.00  0.00    +0.000 A 
ATOM     25  S   UNL     1      50.286  11.363  15.252  0.00  0.00    +0.000 S 
ATOM     26  C   UNL     1      50.643   9.701  15.335  0.00  0.00    +0.000 A 
ATOM     27  N   UNL     1      51.682   9.245  16.085  0.00  0.00    +0.000 NA
ATOM     28  C   UNL     1      51.859   7.967  16.028  0.00  0.00    +0.000 A 
ATOM     29  N   UNL     1      51.091   7.104  15.292  0.00  0.00    +0.000 N 
ATOM     30  C   UNL     1      50.016   7.516  14.540  0.00  0.00    +0.000 A 
ATOM     31  O   UNL     1      49.331   6.713  13.915  0.00  0.00    +0.000 OA
ATOM     32  C   UNL     1      49.775   8.945  14.567  0.00  0.00    +0.000 A 
ATOM     33  H   UNL     1      51.280   6.113  15.293  0.00  0.00    +0.000 HD
ENDBRANCH  20  23
ENDBRANCH  18  19
ENDBRANCH   5  18
TORSDOF 6
ENDMDL
MODEL 6
REMARK VINA RESULT:    -7.279      4.366      7.848
REMARK INTER + INTRA:         -10.892
REMARK INTER:                  -8.745
REMARK INTRA:                  -2.147
REMARK UNBOUND:                -1.060
REMARK  Name = 
REMARK  6 active torsions:
REMARK  status: ('A' for Active; 'I' for Inactive)
REMARK    1  A    between atoms: C_2  and  C_25
REMARK    2  A    between atoms: N_3  and  C_4
REMARK    3  A    between atoms: C_4  and  C_5
REMARK    4  A    between atoms: C_9  and  C_10
REMARK    5  A    between atoms: C_10  and  N_11
REMARK    6  A    between atoms: C_12  and  C_14
REMARK                            x       y       z     vdW  Elec       q    Type
REMARK                         _______ _______ _______ _____ _____    ______ ____
ROOT
ATOM      1  C   UNL     1      45.328   3.951  12.603  0.00  0.00    +0.000 A 
ATOM      2  C   UNL     1      44.255   3.165  12.161  0.00  0.00    +0.000 A 
ATOM      3  C   UNL     1      43.227   3.734  11.410  0.00  0.00    +0.000 A 
ATOM      4  C   UNL     1      43.242   5.099  11.123  0.00  0.00    +0.000 A 
ATOM      5  C   UNL     1      44.277   5.914  11.599  0.00  0.00    +0.000 A 
ATOM      6  C   UNL     1      45.332   5.324  12.313  0.00  0.00    +0.000 A 
ENDROOT
BRANCH   1   7
ATOM      7  C   UNL     1      46.433   3.337  13.419  0.00  0.00    +0.000 C 
BRANCH   7  10
ATOM      8  O   UNL     1      48.156   2.591  15.488  0.00  0.00    +0.000 OA
ATOM      9  C   UNL     1      47.660   3.713  15.506  0.00  0.00    +0.000 C 
ATOM     10  N   UNL     1      46.801   4.175  14.532  0.00  0.00    +0.000 N 
ATOM     11  H   UNL     1      46.427   5.116  14.612  0.00  0.00    +0.000 HD
BRANCH   9  12
ATOM     12  C   UNL     1      47.983   4.665  16.607  0.00  0.00    +0.000 A 
ATOM     13  C   UNL     1      47.267   4.636  17.795  0.00  0.00    +0.000 A 
ATOM     14  C   UNL     1      47.608   5.546  18.787  0.00  0.00    +0.000 A 
ATOM     15  C   UNL     1      48.641   6.429  18.536  0.00  0.00    +0.000 A 
ATOM     16  N   UNL     1      49.323   6.438  17.369  0.00  0.00    +0.000 NA
ATOM     17  N   UNL     1      48.992   5.543  16.390  0.00  0.00    +0.000 NA
ENDBRANCH   9  12
ENDBRANCH   7  10
ENDBRANCH   1   7
BRANCH   5  18
ATOM     18  C   UNL     1      44.250   7.399  11.351  0.00  0.00    +0.000 C 
BRANCH  18  19
ATOM     19  N   UNL     1      45.533   8.007  11.588  0.00  0.00    +0.000 N 
ATOM     20  C   UNL     1      45.624   9.252  12.157  0.00  0.00    +0.000 C 
ATOM     21  O   UNL     1      44.632   9.869  12.534  0.00  0.00    +0.000 OA
ATOM     22  H   UNL     1      46.322   7.636  11.067  0.00  0.00    +0.000 HD
BRANCH  20  23
ATOM     23  C   UNL     1      46.977   9.786  12.358  0.00  0.00    +0.000 A 
ATOM     24  C   UNL     1      47.324  11.009  11.798  0.00  0.00    +0.000 A 
ATOM     25  S   UNL     1      48.904  11.515  12.187  0.00  0.00    +0.000 S 
ATOM     26  C   UNL     1      49.202  10.091  13.070  0.00  0.00    +0.000 A 
ATOM     27  N   UNL     1      50.405   9.876  13.667  0.00  0.00    +0.000 NA
ATOM     28  C   UNL     1      50.504   8.740  14.273  0.00  0.00    +0.000 A 
ATOM     29  N   UNL     1      49.509   7.801  14.337  0.00  0.00    +0.000 N 
ATOM     30  C   UNL     1      48.269   7.984  13.772  0.00  0.00    +0.000 A 
ATOM     31  O   UNL     1      47.390   7.135  13.872  0.00  0.00    +0.000 OA
ATOM     32  C   UNL     1      48.106   9.245  13.075  0.00  0.00    +0.000 A 
ATOM     33  H   UNL     1      49.648   6.931  14.830  0.00  0.00    +0.000 HD
ENDBRANCH  20  23
ENDBRANCH  18  19
ENDBRANCH   5  18
TORSDOF 6
ENDMDL
MODEL 7
REMARK VINA RESULT:    -7.189      2.789      3.683
REMARK INTER + INTRA:         -10.770
REMARK INTER:                  -9.810
REMARK INTRA:                  -0.960
REMARK UNBOUND:                -1.060
REMARK  Name = 
REMARK  6 active torsions:
REMARK  status: ('A' for Active; 'I' for Inactive)
REMARK    1  A    between atoms: C_2  and  C_25
REMARK    2  A    between atoms: N_3  and  C_4
REMARK    3  A    between atoms: C_4  and  C_5
REMARK    4  A    between atoms: C_9  and  C_10
REMARK    5  A    between atoms: C_10  and  N_11
REMARK    6  A    between atoms: C_12  and  C_14
REMARK                            x       y       z     vdW  Elec       q    Type
REMARK                         _______ _______ _______ _____ _____    ______ ____
ROOT
ATOM      1  C   UNL     1      44.974   7.689  11.896  0.00  0.00    +0.000 A 
ATOM      2  C   UNL     1      44.397   8.803  11.273  0.00  0.00    +0.000 A 
ATOM      3  C   UNL     1      44.997  10.058  11.375  0.00  0.00    +0.000 A 
ATOM      4  C   UNL     1      46.159  10.219  12.129  0.00  0.00    +0.000 A 
ATOM      5  C   UNL     1      46.725   9.130  12.804  0.00  0.00    +0.000 A 
ATOM      6  C   UNL     1      46.141   7.862  12.657  0.00  0.00    +0.000 A 
ENDROOT
BRANCH   1   7
ATOM      7  C   UNL     1      44.322   6.337  11.791  0.00  0.00    +0.000 C 
BRANCH   7  10
ATOM      8  O   UNL     1      43.243   4.013  10.676  0.00  0.00    +0.000 OA
ATOM      9  C   UNL     1      44.364   4.372  10.329  0.00  0.00    +0.000 C 
ATOM     10  N   UNL     1      44.981   5.502  10.819  0.00  0.00    +0.000 N 
ATOM     11  H   UNL     1      45.912   5.738  10.487  0.00  0.00    +0.000 HD
BRANCH   9  12
ATOM     12  C   UNL     1      45.129   3.586   9.319  0.00  0.00    +0.000 A 
ATOM     13  C   UNL     1      45.742   4.223   8.250  0.00  0.00    +0.000 A 
ATOM     14  C   UNL     1      46.442   3.444   7.337  0.00  0.00    +0.000 A 
ATOM     15  C   UNL     1      46.487   2.078   7.546  0.00  0.00    +0.000 A 
ATOM     16  N   UNL     1      45.880   1.481   8.595  0.00  0.00    +0.000 NA
ATOM     17  N   UNL     1      45.192   2.245   9.496  0.00  0.00    +0.000 NA
ENDBRANCH   9  12
ENDBRANCH   7  10
ENDBRANCH   1   7
BRANCH   5  18
ATOM     18  C   UNL     1      47.937   9.323  13.678  0.00  0.00    +0.000 C 
BRANCH  18  19
ATOM     19  N   UNL     1      47.804   8.641  14.939  0.00  0.00    +0.000 N 
ATOM     20  C   UNL     1      48.572   9.005  16.016  0.00  0.00    +0.000 C 
ATOM     21  O   UNL     1      49.354   9.951  15.968  0.00  0.00    +0.000 OA
ATOM     22  H   UNL     1      47.365   7.726  14.924  0.00  0.00    +0.000 HD
BRANCH  20  23
ATOM     23  C   UNL     1      48.364   8.249  17.258  0.00  0.00    +0.000 A 
ATOM     24  C   UNL     1      47.954   8.913  18.406  0.00  0.00    +0.000 A 
ATOM     25  S   UNL     1      47.689   7.880  19.736  0.00  0.00    +0.000 S 
ATOM     26  C   UNL     1      48.167   6.515  18.839  0.00  0.00    +0.000 A 
ATOM     27  N   UNL     1      48.187   5.278  19.405  0.00  0.00    +0.000 NA
ATOM     28  C   UNL     1      48.603   4.340  18.621  0.00  0.00    +0.000 A 
ATOM     29  N   UNL     1      49.000   4.527  17.323  0.00  0.00    +0.000 N 
ATOM     30  C   UNL     1      48.973   5.753  16.702  0.00  0.00    +0.000 A 
ATOM     31  O   UNL     1      49.309   5.881  15.529  0.00  0.00    +0.000 OA
ATOM     32  C   UNL     1      48.515   6.843  17.540  0.00  0.00    +0.000 A 
ATOM     33  H   UNL     1      49.314   3.750  16.760  0.00  0.00    +0.000 HD
ENDBRANCH  20  23
ENDBRANCH  18  19
ENDBRANCH   5  18
TORSDOF 6
ENDMDL
MODEL 8
REMARK VINA RESULT:    -7.014      4.480      8.205
REMARK INTER + INTRA:         -10.534
REMARK INTER:                  -8.141
REMARK INTRA:                  -2.393
REMARK UNBOUND:                -1.060
REMARK  Name = 
REMARK  6 active torsions:
REMARK  status: ('A' for Active; 'I' for Inactive)
REMARK    1  A    between atoms: C_2  and  C_25
REMARK    2  A    between atoms: N_3  and  C_4
REMARK    3  A    between atoms: C_4  and  C_5
REMARK    4  A    between atoms: C_9  and  C_10
REMARK    5  A    between atoms: C_10  and  N_11
REMARK    6  A    between atoms: C_12  and  C_14
REMARK                            x       y       z     vdW  Elec       q    Type
REMARK                         _______ _______ _______ _____ _____    ______ ____
ROOT
ATOM      1  C   UNL     1      50.638   5.585  17.309  0.00  0.00    +0.000 A 
ATOM      2  C   UNL     1      51.551   4.555  17.570  0.00  0.00    +0.000 A 
ATOM      3  C   UNL     1      51.135   3.225  17.562  0.00  0.00    +0.000 A 
ATOM      4  C   UNL     1      49.796   2.911  17.327  0.00  0.00    +0.000 A 
ATOM      5  C   UNL     1      48.855   3.927  17.116  0.00  0.00    +0.000 A 
ATOM      6  C   UNL     1      49.292   5.260  17.079  0.00  0.00    +0.000 A 
ENDROOT
BRANCH   1   7
ATOM      7  C   UNL     1      51.087   7.021  17.325  0.00  0.00    +0.000 C 
BRANCH   7  10
ATOM      8  O   UNL     1      52.981   7.776  15.415  0.00  0.00    +0.000 OA
ATOM      9  C   UNL     1      51.797   8.019  15.203  0.00  0.00    +0.000 C 
ATOM     10  N   UNL     1      50.789   7.686  16.082  0.00  0.00    +0.000 N 
ATOM     11  H   UNL     1      49.830   7.920  15.843  0.00  0.00    +0.000 HD
BRANCH   9  12
ATOM     12  C   UNL     1      51.377   8.695  13.942  0.00  0.00    +0.000 A 
ATOM     13  C   UNL     1      51.987   8.377  12.737  0.00  0.00    +0.000 A 
ATOM     14  C   UNL     1      51.559   9.037  11.593  0.00  0.00    +0.000 A 
ATOM     15  C   UNL     1      50.551   9.974  11.719  0.00  0.00    +0.000 A 
ATOM     16  N   UNL     1      49.973  10.267  12.904  0.00  0.00    +0.000 NA
ATOM     17  N   UNL     1      50.390   9.618  14.034  0.00  0.00    +0.000 NA
ENDBRANCH   9  12
ENDBRANCH   7  10
ENDBRANCH   1   7
BRANCH   5  18
ATOM     18  C   UNL     1      47.398   3.589  16.938  0.00  0.00    +0.000 C 
BRANCH  18  19
ATOM     19  N   UNL     1      46.767   4.428  15.953  0.00  0.00    +0.000 N 
ATOM     20  C   UNL     1      46.794   4.090  14.624  0.00  0.00    +0.000 C 
ATOM     21  O   UNL     1      47.303   3.044  14.229  0.00  0.00    +0.000 OA
ATOM     22  H   UNL     1      46.574   5.388  16.221  0.00  0.00    +0.000 HD
BRANCH  20  23
ATOM     23  C   UNL     1      46.123   5.011  13.698  0.00  0.00    +0.000 A 
ATOM     24  C   UNL     1      44.966   4.606  13.044  0.00  0.00    +0.000 A 
ATOM     25  S   UNL     1      44.276   5.819  12.064  0.00  0.00    +0.000 S 
ATOM     26  C   UNL     1      45.530   6.908  12.434  0.00  0.00    +0.000 A 
ATOM     27  N   UNL     1      45.553   8.157  11.895  0.00  0.00    +0.000 NA
ATOM     28  C   UNL     1      46.579   8.864  12.234  0.00  0.00    +0.000 A 
ATOM     29  N   UNL     1      47.582   8.437  13.064  0.00  0.00    +0.000 N 
ATOM     30  C   UNL     1      47.588   7.194  13.651  0.00  0.00    +0.000 A 
ATOM     31  O   UNL     1      48.487   6.853  14.413  0.00  0.00    +0.000 OA
ATOM     32  C   UNL     1      46.457   6.357  13.301  0.00  0.00    +0.000 A 
ATOM     33  H   UNL     1      48.357   9.041  13.293  0.00  0.00    +0.000 HD
ENDBRANCH  20  23
ENDBRANCH  18  19
ENDBRANCH   5  18
TORSDOF 6
ENDMDL
MODEL 9
REMARK VINA RESULT:    -6.967      4.610      7.903
REMARK INTER + INTRA:         -10.471
REMARK INTER:                  -8.197
REMARK INTRA:                  -2.274
REMARK UNBOUND:                -1.060
REMARK  Name = 
REMARK  6 active torsions:
REMARK  status: ('A' for Active; 'I' for Inactive)
REMARK    1  A    between atoms: C_2  and  C_25
REMARK    2  A    between atoms: N_3  and  C_4
REMARK    3  A    between atoms: C_4  and  C_5
REMARK    4  A    between atoms: C_9  and  C_10
REMARK    5  A    between atoms: C_10  and  N_11
REMARK    6  A    between atoms: C_12  and  C_14
REMARK                            x       y       z     vdW  Elec       q    Type
REMARK                         _______ _______ _______ _____ _____    ______ ____
ROOT
ATOM      1  C   UNL     1      48.654   6.153  15.452  0.00  0.00    +0.000 A 
ATOM      2  C   UNL     1      49.441   6.413  16.582  0.00  0.00    +0.000 A 
ATOM      3  C   UNL     1      50.401   7.423  16.556  0.00  0.00    +0.000 A 
ATOM      4  C   UNL     1      50.610   8.161  15.391  0.00  0.00    +0.000 A 
ATOM      5  C   UNL     1      49.872   7.885  14.233  0.00  0.00    +0.000 A 
ATOM      6  C   UNL     1      48.875   6.898  14.282  0.00  0.00    +0.000 A 
ENDROOT
BRANCH   1   7
ATOM      7  C   UNL     1      47.623   5.058  15.479  0.00  0.00    +0.000 C 
BRANCH   7  10
ATOM      8  O   UNL     1      46.790   3.144  13.622  0.00  0.00    +0.000 OA
ATOM      9  C   UNL     1      46.263   4.252  13.608  0.00  0.00    +0.000 C 
ATOM     10  N   UNL     1      46.603   5.262  14.482  0.00  0.00    +0.000 N 
ATOM     11  H   UNL     1      46.126   6.155  14.411  0.00  0.00    +0.000 HD
BRANCH   9  12
ATOM     12  C   UNL     1      45.188   4.565  12.623  0.00  0.00    +0.000 A 
ATOM     13  C   UNL     1      45.366   4.291  11.275  0.00  0.00    +0.000 A 
ATOM     14  C   UNL     1      44.333   4.603  10.401  0.00  0.00    +0.000 A 
ATOM     15  C   UNL     1      43.186   5.171  10.923  0.00  0.00    +0.000 A 
ATOM     16  N   UNL     1      43.037   5.430  12.241  0.00  0.00    +0.000 NA
ATOM     17  N   UNL     1      44.051   5.122  13.105  0.00  0.00    +0.000 NA
ENDBRANCH   9  12
ENDBRANCH   7  10
ENDBRANCH   1   7
BRANCH   5  18
ATOM     18  C   UNL     1      50.152   8.632  12.955  0.00  0.00    +0.000 C 
BRANCH  18  19
ATOM     19  N   UNL     1      48.945   9.113  12.338  0.00  0.00    +0.000 N 
ATOM     20  C   UNL     1      48.334  10.256  12.789  0.00  0.00    +0.000 C 
ATOM     21  O   UNL     1      48.814  10.938  13.690  0.00  0.00    +0.000 OA
ATOM     22  H   UNL     1      48.415   8.449  11.782  0.00  0.00    +0.000 HD
BRANCH  20  23
ATOM     23  C   UNL     1      47.107  10.664  12.093  0.00  0.00    +0.000 A 
ATOM     24  C   UNL     1      47.012  11.943  11.560  0.00  0.00    +0.000 A 
ATOM     25  S   UNL     1      45.554  12.228  10.725  0.00  0.00    +0.000 S 
ATOM     26  C   UNL     1      44.974  10.672  11.094  0.00  0.00    +0.000 A 
ATOM     27  N   UNL     1      43.744  10.267  10.679  0.00  0.00    +0.000 NA
ATOM     28  C   UNL     1      43.418   9.076  11.059  0.00  0.00    +0.000 A 
ATOM     29  N   UNL     1      44.212   8.254  11.815  0.00  0.00    +0.000 N 
ATOM     30  C   UNL     1      45.471   8.610  12.236  0.00  0.00    +0.000 A 
ATOM     31  O   UNL     1      46.168   7.839  12.888  0.00  0.00    +0.000 OA
ATOM     32  C   UNL     1      45.885   9.941  11.837  0.00  0.00    +0.000 A 
ATOM     33  H   UNL     1      43.899   7.331  12.078  0.00  0.00    +0.000 HD
ENDBRANCH  20  23
ENDBRANCH  18  19
ENDBRANCH   5  18
TORSDOF 6
ENDMDL
