MODEL 1
REMARK VINA RESULT:    -8.341      0.000      0.000
REMARK INTER + INTRA:         -11.572
REMARK INTER:                 -10.780
REMARK INTRA:                  -0.793
REMARK UNBOUND:                -0.793
REMARK  Name = 
REMARK  5 active torsions:
REMARK  status: ('A' for Active; 'I' for Inactive)
REMARK    1  A    between atoms: C_2  and  C_4
REMARK    2  A    between atoms: C_7  and  C_8
REMARK    3  A    between atoms: C_8  and  N_9
REMARK    4  A    between atoms: N_9  and  C_10
REMARK    5  A    between atoms: C_15  and  C_16
REMARK                            x       y       z     vdW  Elec       q    Type
REMARK                         _______ _______ _______ _____ _____    ______ ____
ROOT
ATOM      1  N   UNL     1      44.426   5.804  10.681  0.00  0.00    +0.000 N 
ATOM      2  H   UNL     1      43.756   6.562  10.796  0.00  0.00    +0.000 HD
ENDROOT
BRANCH   1   3
ATOM      3  C   UNL     1      45.385   5.803  11.698  0.00  0.00    +0.000 A 
ATOM      4  C   UNL     1      45.418   4.886  12.746  0.00  0.00    +0.000 A 
ATOM      5  C   UNL     1      46.475   4.901  13.652  0.00  0.00    +0.000 A 
ATOM      6  F   UNL     1      46.496   4.002  14.647  0.00  0.00    +0.000 F 
ATOM      7  C   UNL     1      47.519   5.815  13.543  0.00  0.00    +0.000 A 
ATOM      8  C   UNL     1      47.530   6.751  12.500  0.00  0.00    +0.000 A 
ATOM      9  C   UNL     1      46.473   6.689  11.573  0.00  0.00    +0.000 A 
BRANCH   8  10
ATOM     10  C   UNL     1      48.694   7.736  12.375  0.00  0.00    +0.000 C 
ATOM     11  C   UNL     1      49.368   8.048  13.727  0.00  0.00    +0.000 C 
ATOM     12  C   UNL     1      48.558   9.037  14.565  0.00  0.00    +0.000 C 
ATOM     13  N   UNL     1      48.315  10.292  13.850  0.00  0.00    +0.000 NA
ATOM     14  C   UNL     1      47.625  10.056  12.584  0.00  0.00    +0.000 C 
ATOM     15  C   UNL     1      48.384   9.079  11.680  0.00  0.00    +0.000 C 
ATOM     16  H   UNL     1      49.207  10.751  13.665  0.00  0.00    +0.000 HD
ENDBRANCH   8  10
ENDBRANCH   1   3
BRANCH   1  17
ATOM     17  C   UNL     1      43.772   4.560  10.295  0.00  0.00    +0.000 C 
BRANCH  17  21
ATOM     18  C   UNL     1      46.376   2.290   7.815  0.00  0.00    +0.000 A 
ATOM     19  C   UNL     1      46.291   3.656   7.585  0.00  0.00    +0.000 A 
ATOM     20  C   UNL     1      45.433   4.403   8.386  0.00  0.00    +0.000 A 
ATOM     21  C   UNL     1      44.690   3.774   9.393  0.00  0.00    +0.000 A 
ATOM     22  C   UNL     1      44.844   2.397   9.537  0.00  0.00    +0.000 A 
ATOM     23  N   UNL     1      45.662   1.636   8.777  0.00  0.00    +0.000 NA
BRANCH  18  25
ATOM     24  N   UNL     1      48.410   2.099   6.505  0.00  0.00    +0.000 N 
ATOM     25  C   UNL     1      47.298   1.455   6.979  0.00  0.00    +0.000 C 
ATOM     26  O   UNL     1      47.083   0.274   6.728  0.00  0.00    +0.000 OA
ATOM     27  H   UNL     1      49.071   1.598   5.930  0.00  0.00    +0.000 HD
ATOM     28  H   UNL     1      48.555   3.076   6.730  0.00  0.00    +0.000 HD
ENDBRANCH  18  25
ENDBRANCH  17  21
ENDBRANCH   1  17
TORSDOF 5
ENDMDL
MODEL 2
REMARK VINA RESULT:    -7.808      5.070      7.858
REMARK INTER + INTRA:         -10.882
REMARK INTER:                 -10.523
REMARK INTRA:                  -0.360
REMARK UNBOUND:                -0.793
REMARK  Name = 
REMARK  5 active torsions:
REMARK  status: ('A' for Active; 'I' for Inactive)
REMARK    1  A    between atoms: C_2  and  C_4
REMARK    2  A    between atoms: C_7  and  C_8
REMARK    3  A    between atoms: C_8  and  N_9
REMARK    4  A    between atoms: N_9  and  C_10
REMARK    5  A    between atoms: C_15  and  C_16
REMARK                            x       y       z     vdW  Elec       q    Type
REMARK                         _______ _______ _______ _____ _____    ______ ____
ROOT
ATOM      1  N   UNL     1      46.762   3.990  15.165  0.00  0.00    +0.000 N 
ATOM      2  H   UNL     1      45.888   3.497  15.334  0.00  0.00    +0.000 HD
ENDROOT
BRANCH   1   3
ATOM      3  C   UNL     1      46.677   4.824  14.046  0.00  0.00    +0.000 A 
ATOM      4  C   UNL     1      47.631   5.782  13.706  0.00  0.00    +0.000 A 
ATOM      5  C   UNL     1      47.512   6.492  12.515  0.00  0.00    +0.000 A 
ATOM      6  F   UNL     1      48.446   7.399  12.197  0.00  0.00    +0.000 F 
ATOM      7  C   UNL     1      46.455   6.272  11.635  0.00  0.00    +0.000 A 
ATOM      8  C   UNL     1      45.477   5.314  11.934  0.00  0.00    +0.000 A 
ATOM      9  C   UNL     1      45.641   4.580  13.123  0.00  0.00    +0.000 A 
BRANCH   8  10
ATOM     10  C   UNL     1      44.332   5.064  10.950  0.00  0.00    +0.000 C 
ATOM     11  C   UNL     1      43.148   4.304  11.583  0.00  0.00    +0.000 C 
ATOM     12  C   UNL     1      43.425   2.807  11.716  0.00  0.00    +0.000 C 
ATOM     13  N   UNL     1      43.754   2.193  10.428  0.00  0.00    +0.000 NA
ATOM     14  C   UNL     1      44.909   2.842   9.811  0.00  0.00    +0.000 C 
ATOM     15  C   UNL     1      44.704   4.350   9.633  0.00  0.00    +0.000 C 
ATOM     16  H   UNL     1      42.953   2.272   9.803  0.00  0.00    +0.000 HD
ENDBRANCH   8  10
ENDBRANCH   1   3
BRANCH   1  17
ATOM     17  C   UNL     1      47.351   4.486  16.401  0.00  0.00    +0.000 C 
BRANCH  17  21
ATOM     18  C   UNL     1      50.808   2.175  17.291  0.00  0.00    +0.000 A 
ATOM     19  C   UNL     1      50.742   3.464  17.804  0.00  0.00    +0.000 A 
ATOM     20  C   UNL     1      49.618   4.228  17.507  0.00  0.00    +0.000 A 
ATOM     21  C   UNL     1      48.594   3.692  16.716  0.00  0.00    +0.000 A 
ATOM     22  C   UNL     1      48.762   2.391  16.248  0.00  0.00    +0.000 A 
ATOM     23  N   UNL     1      49.840   1.618  16.509  0.00  0.00    +0.000 NA
BRANCH  18  25
ATOM     24  N   UNL     1      51.720   0.100  18.160  0.00  0.00    +0.000 N 
ATOM     25  C   UNL     1      51.999   1.318  17.599  0.00  0.00    +0.000 C 
ATOM     26  O   UNL     1      53.150   1.672  17.371  0.00  0.00    +0.000 OA
ATOM     27  H   UNL     1      52.475  -0.525  18.398  0.00  0.00    +0.000 HD
ATOM     28  H   UNL     1      50.756  -0.159  18.337  0.00  0.00    +0.000 HD
ENDBRANCH  18  25
ENDBRANCH  17  21
ENDBRANCH   1  17
TORSDOF 5
ENDMDL
MODEL 3
REMARK VINA RESULT:    -7.418      1.815      2.224
REMARK INTER + INTRA:         -10.379
REMARK INTER:                 -10.135
REMARK INTRA:                  -0.245
REMARK UNBOUND:                -0.793
REMARK  Name = 
REMARK  5 active torsions:
REMARK  status: ('A' for Active; 'I' for Inactive)
REMARK    1  A    between atoms: C_2  and  C_4
REMARK    2  A    between atoms: C_7  and  C_8
REMARK    3  A    between atoms: C_8  and  N_9
REMARK    4  A    between atoms: N_9  and  C_10
REMARK    5  A    between atoms: C_15  and  C_16
REMARK                            x       y       z     vdW  Elec       q    Type
REMARK                         _______ _______ _______ _____ _____    ______ ____
ROOT
ATOM      1  N   UNL     1      44.330   4.442  11.719  0.00  0.00    +0.000 N 
ATOM      2  H   UNL     1      44.894   3.680  12.088  0.00  0.00    +0.000 HD
ENDROOT
BRANCH   1   3
ATOM      3  C   UNL     1      45.013   5.662  11.769  0.00  0.00    +0.000 A 
ATOM      4  C   UNL     1      44.409   6.907  11.611  0.00  0.00    +0.000 A 
ATOM      5  C   UNL     1      45.155   8.070  11.783  0.00  0.00    +0.000 A 
ATOM      6  F   UNL     1      44.554   9.260  11.640  0.00  0.00    +0.000 F 
ATOM      7  C   UNL     1      46.507   8.030  12.115  0.00  0.00    +0.000 A 
ATOM      8  C   UNL     1      47.153   6.799  12.290  0.00  0.00    +0.000 A 
ATOM      9  C   UNL     1      46.369   5.639  12.152  0.00  0.00    +0.000 A 
BRANCH   8  10
ATOM     10  C   UNL     1      48.632   6.765  12.677  0.00  0.00    +0.000 C 
ATOM     11  C   UNL     1      48.871   7.056  14.174  0.00  0.00    +0.000 C 
ATOM     12  C   UNL     1      48.770   8.547  14.497  0.00  0.00    +0.000 C 
ATOM     13  N   UNL     1      49.702   9.346  13.699  0.00  0.00    +0.000 NA
ATOM     14  C   UNL     1      49.480   9.150  12.269  0.00  0.00    +0.000 C 
ATOM     15  C   UNL     1      49.575   7.675  11.862  0.00  0.00    +0.000 C 
ATOM     16  H   UNL     1      50.658   9.077  13.930  0.00  0.00    +0.000 HD
ENDBRANCH   8  10
ENDBRANCH   1   3
BRANCH   1  17
ATOM     17  C   UNL     1      43.622   4.053  10.507  0.00  0.00    +0.000 C 
BRANCH  17  21
ATOM     18  C   UNL     1      46.394   2.744   7.560  0.00  0.00    +0.000 A 
ATOM     19  C   UNL     1      45.904   1.800   8.452  0.00  0.00    +0.000 A 
ATOM     20  C   UNL     1      45.004   2.224   9.425  0.00  0.00    +0.000 A 
ATOM     21  C   UNL     1      44.616   3.569   9.482  0.00  0.00    +0.000 A 
ATOM     22  C   UNL     1      45.171   4.436   8.544  0.00  0.00    +0.000 A 
ATOM     23  N   UNL     1      46.051   4.064   7.587  0.00  0.00    +0.000 NA
BRANCH  18  25
ATOM     24  N   UNL     1      47.325   3.065   5.341  0.00  0.00    +0.000 N 
ATOM     25  C   UNL     1      47.356   2.322   6.491  0.00  0.00    +0.000 C 
ATOM     26  O   UNL     1      48.124   1.375   6.624  0.00  0.00    +0.000 OA
ATOM     27  H   UNL     1      47.942   2.832   4.579  0.00  0.00    +0.000 HD
ATOM     28  H   UNL     1      46.676   3.839   5.266  0.00  0.00    +0.000 HD
ENDBRANCH  18  25
ENDBRANCH  17  21
ENDBRANCH   1  17
TORSDOF 5
ENDMDL
MODEL 4
REMARK VINA RESULT:    -6.708      5.130      6.975
REMARK INTER + INTRA:          -9.461
REMARK INTER:                  -8.801
REMARK INTRA:                  -0.660
REMARK UNBOUND:                -0.793
REMARK  Name = 
REMARK  5 active torsions:
REMARK  status: ('A' for Active; 'I' for Inactive)
REMARK    1  A    between atoms: C_2  and  C_4
REMARK    2  A    between atoms: C_7  and  C_8
REMARK    3  A    between atoms: C_8  and  N_9
REMARK    4  A    between atoms: N_9  and  C_10
REMARK    5  A    between atoms: C_15  and  C_16
REMARK                            x       y       z     vdW  Elec       q    Type
REMARK                         _______ _______ _______ _____ _____    ______ ____
ROOT
ATOM      1  N   UNL     1      46.820   3.664  14.936  0.00  0.00    +0.000 N 
ATOM      2  H   UNL     1      46.042   3.016  15.034  0.00  0.00    +0.000 HD
ENDROOT
BRANCH   1   3
ATOM      3  C   UNL     1      46.645   4.521  13.845  0.00  0.00    +0.000 A 
ATOM      4  C   UNL     1      45.763   4.284  12.793  0.00  0.00    +0.000 A 
ATOM      5  C   UNL     1      45.581   5.247  11.805  0.00  0.00    +0.000 A 
ATOM      6  F   UNL     1      44.718   5.007  10.808  0.00  0.00    +0.000 F 
ATOM      7  C   UNL     1      46.261   6.462  11.835  0.00  0.00    +0.000 A 
ATOM      8  C   UNL     1      47.153   6.746  12.878  0.00  0.00    +0.000 A 
ATOM      9  C   UNL     1      47.289   5.774  13.886  0.00  0.00    +0.000 A 
BRANCH   8  10
ATOM     10  C   UNL     1      47.877   8.093  12.914  0.00  0.00    +0.000 C 
ATOM     11  C   UNL     1      48.723   8.357  11.651  0.00  0.00    +0.000 C 
ATOM     12  C   UNL     1      50.045   7.591  11.668  0.00  0.00    +0.000 C 
ATOM     13  N   UNL     1      50.846   7.903  12.854  0.00  0.00    +0.000 NA
ATOM     14  C   UNL     1      50.108   7.616  14.083  0.00  0.00    +0.000 C 
ATOM     15  C   UNL     1      48.769   8.359  14.145  0.00  0.00    +0.000 C 
ATOM     16  H   UNL     1      51.098   8.891  12.838  0.00  0.00    +0.000 HD
ENDBRANCH   8  10
ENDBRANCH   1   3
BRANCH   1  17
ATOM     17  C   UNL     1      47.242   4.200  16.223  0.00  0.00    +0.000 C 
BRANCH  17  21
ATOM     18  C   UNL     1      50.885   2.326  17.366  0.00  0.00    +0.000 A 
ATOM     19  C   UNL     1      50.686   3.644  17.753  0.00  0.00    +0.000 A 
ATOM     20  C   UNL     1      49.500   4.266  17.373  0.00  0.00    +0.000 A 
ATOM     21  C   UNL     1      48.548   3.561  16.626  0.00  0.00    +0.000 A 
ATOM     22  C   UNL     1      48.848   2.245  16.284  0.00  0.00    +0.000 A 
ATOM     23  N   UNL     1      49.989   1.608  16.629  0.00  0.00    +0.000 NA
BRANCH  18  25
ATOM     24  N   UNL     1      51.991   0.318  18.164  0.00  0.00    +0.000 N 
ATOM     25  C   UNL     1      52.145   1.620  17.766  0.00  0.00    +0.000 C 
ATOM     26  O   UNL     1      53.245   2.160  17.745  0.00  0.00    +0.000 OA
ATOM     27  H   UNL     1      52.798  -0.214  18.452  0.00  0.00    +0.000 HD
ATOM     28  H   UNL     1      51.067  -0.095  18.171  0.00  0.00    +0.000 HD
ENDBRANCH  18  25
ENDBRANCH  17  21
ENDBRANCH   1  17
TORSDOF 5
ENDMDL
MODEL 5
REMARK VINA RESULT:    -6.595      5.078      8.662
REMARK INTER + INTRA:          -9.315
REMARK INTER:                  -8.987
REMARK INTRA:                  -0.328
REMARK UNBOUND:                -0.793
REMARK  Name = 
REMARK  5 active torsions:
REMARK  status: ('A' for Active; 'I' for Inactive)
REMARK    1  A    between atoms: C_2  and  C_4
REMARK    2  A    between atoms: C_7  and  C_8
REMARK    3  A    between atoms: C_8  and  N_9
REMARK    4  A    between atoms: N_9  and  C_10
REMARK    5  A    between atoms: C_15  and  C_16
REMARK                            x       y       z     vdW  Elec       q    Type
REMARK                         _______ _______ _______ _____ _____    ______ ____
ROOT
ATOM      1  N   UNL     1      46.407   4.569  14.951  0.00  0.00    +0.000 N 
ATOM      2  H   UNL     1      46.138   5.170  15.727  0.00  0.00    +0.000 HD
ENDROOT
BRANCH   1   3
ATOM      3  C   UNL     1      46.406   5.261  13.736  0.00  0.00    +0.000 A 
ATOM      4  C   UNL     1      47.370   6.195  13.363  0.00  0.00    +0.000 A 
ATOM      5  C   UNL     1      47.343   6.754  12.089  0.00  0.00    +0.000 A 
ATOM      6  F   UNL     1      48.287   7.641  11.743  0.00  0.00    +0.000 F 
ATOM      7  C   UNL     1      46.370   6.402  11.157  0.00  0.00    +0.000 A 
ATOM      8  C   UNL     1      45.385   5.461  11.486  0.00  0.00    +0.000 A 
ATOM      9  C   UNL     1      45.458   4.880  12.766  0.00  0.00    +0.000 A 
BRANCH   8  10
ATOM     10  C   UNL     1      44.335   5.065  10.448  0.00  0.00    +0.000 C 
ATOM     11  C   UNL     1      43.177   4.238  11.045  0.00  0.00    +0.000 C 
ATOM     12  C   UNL     1      43.568   2.779  11.278  0.00  0.00    +0.000 C 
ATOM     13  N   UNL     1      44.034   2.132  10.050  0.00  0.00    +0.000 NA
ATOM     14  C   UNL     1      45.170   2.846   9.472  0.00  0.00    +0.000 C 
ATOM     15  C   UNL     1      44.852   4.321   9.198  0.00  0.00    +0.000 C 
ATOM     16  H   UNL     1      43.272   2.110   9.372  0.00  0.00    +0.000 HD
ENDBRANCH   8  10
ENDBRANCH   1   3
BRANCH   1  17
ATOM     17  C   UNL     1      47.531   3.709  15.299  0.00  0.00    +0.000 C 
BRANCH  17  21
ATOM     18  C   UNL     1      48.718   4.498  19.306  0.00  0.00    +0.000 A 
ATOM     19  C   UNL     1      48.378   3.192  18.976  0.00  0.00    +0.000 A 
ATOM     20  C   UNL     1      47.979   2.930  17.669  0.00  0.00    +0.000 A 
ATOM     21  C   UNL     1      47.933   3.968  16.729  0.00  0.00    +0.000 A 
ATOM     22  C   UNL     1      48.288   5.242  17.164  0.00  0.00    +0.000 A 
ATOM     23  N   UNL     1      48.676   5.538  18.425  0.00  0.00    +0.000 NA
BRANCH  18  25
ATOM     24  N   UNL     1      50.486   4.579  20.967  0.00  0.00    +0.000 N 
ATOM     25  C   UNL     1      49.163   4.816  20.701  0.00  0.00    +0.000 C 
ATOM     26  O   UNL     1      48.405   5.257  21.557  0.00  0.00    +0.000 OA
ATOM     27  H   UNL     1      50.851   4.766  21.888  0.00  0.00    +0.000 HD
ATOM     28  H   UNL     1      51.083   4.212  20.236  0.00  0.00    +0.000 HD
ENDBRANCH  18  25
ENDBRANCH  17  21
ENDBRANCH   1  17
TORSDOF 5
ENDMDL
MODEL 6
REMARK VINA RESULT:    -6.491      4.261      6.153
REMARK INTER + INTRA:          -9.180
REMARK INTER:                  -8.550
REMARK INTRA:                  -0.631
REMARK UNBOUND:                -0.793
REMARK  Name = 
REMARK  5 active torsions:
REMARK  status: ('A' for Active; 'I' for Inactive)
REMARK    1  A    between atoms: C_2  and  C_4
REMARK    2  A    between atoms: C_7  and  C_8
REMARK    3  A    between atoms: C_8  and  N_9
REMARK    4  A    between atoms: N_9  and  C_10
REMARK    5  A    between atoms: C_15  and  C_16
REMARK                            x       y       z     vdW  Elec       q    Type
REMARK                         _______ _______ _______ _____ _____    ______ ____
ROOT
ATOM      1  N   UNL     1      47.758   7.327  14.460  0.00  0.00    +0.000 N 
ATOM      2  H   UNL     1      46.951   6.882  14.893  0.00  0.00    +0.000 HD
ENDROOT
BRANCH   1   3
ATOM      3  C   UNL     1      48.947   6.994  15.117  0.00  0.00    +0.000 A 
ATOM      4  C   UNL     1      50.188   7.560  14.831  0.00  0.00    +0.000 A 
ATOM      5  C   UNL     1      51.295   7.242  15.611  0.00  0.00    +0.000 A 
ATOM      6  F   UNL     1      52.478   7.806  15.329  0.00  0.00    +0.000 F 
ATOM      7  C   UNL     1      51.203   6.364  16.688  0.00  0.00    +0.000 A 
ATOM      8  C   UNL     1      49.973   5.777  17.016  0.00  0.00    +0.000 A 
ATOM      9  C   UNL     1      48.860   6.146  16.239  0.00  0.00    +0.000 A 
BRANCH   8  10
ATOM     10  C   UNL     1      49.878   4.832  18.215  0.00  0.00    +0.000 C 
ATOM     11  C   UNL     1      51.241   4.238  18.626  0.00  0.00    +0.000 C 
ATOM     12  C   UNL     1      51.679   3.101  17.703  0.00  0.00    +0.000 C 
ATOM     13  N   UNL     1      50.686   2.026  17.647  0.00  0.00    +0.000 NA
ATOM     14  C   UNL     1      49.386   2.528  17.207  0.00  0.00    +0.000 C 
ATOM     15  C   UNL     1      48.872   3.668  18.093  0.00  0.00    +0.000 C 
ATOM     16  H   UNL     1      50.588   1.610  18.573  0.00  0.00    +0.000 HD
ENDBRANCH   8  10
ENDBRANCH   1   3
BRANCH   1  17
ATOM     17  C   UNL     1      47.690   7.273  13.006  0.00  0.00    +0.000 C 
BRANCH  17  21
ATOM     18  C   UNL     1      44.950   4.217  11.891  0.00  0.00    +0.000 A 
ATOM     19  C   UNL     1      45.314   5.145  10.924  0.00  0.00    +0.000 A 
ATOM     20  C   UNL     1      46.202   6.153  11.286  0.00  0.00    +0.000 A 
ATOM     21  C   UNL     1      46.705   6.209  12.592  0.00  0.00    +0.000 A 
ATOM     22  C   UNL     1      46.272   5.233  13.487  0.00  0.00    +0.000 A 
ATOM     23  N   UNL     1      45.408   4.241  13.176  0.00  0.00    +0.000 NA
BRANCH  18  25
ATOM     24  N   UNL     1      43.638   2.291  12.570  0.00  0.00    +0.000 N 
ATOM     25  C   UNL     1      44.004   3.110  11.535  0.00  0.00    +0.000 C 
ATOM     26  O   UNL     1      43.581   2.938  10.397  0.00  0.00    +0.000 OA
ATOM     27  H   UNL     1      43.008   1.522  12.398  0.00  0.00    +0.000 HD
ATOM     28  H   UNL     1      44.009   2.462  13.496  0.00  0.00    +0.000 HD
ENDBRANCH  18  25
ENDBRANCH  17  21
ENDBRANCH   1  17
TORSDOF 5
ENDMDL
MODEL 7
REMARK VINA RESULT:    -6.266      4.407      6.339
REMARK INTER + INTRA:          -8.890
REMARK INTER:                  -8.274
REMARK INTRA:                  -0.616
REMARK UNBOUND:                -0.793
REMARK  Name = 
REMARK  5 active torsions:
REMARK  status: ('A' for Active; 'I' for Inactive)
REMARK    1  A    between atoms: C_2  and  C_4
REMARK    2  A    between atoms: C_7  and  C_8
REMARK    3  A    between atoms: C_8  and  N_9
REMARK    4  A    between atoms: N_9  and  C_10
REMARK    5  A    between atoms: C_15  and  C_16
REMARK                            x       y       z     vdW  Elec       q    Type
REMARK                         _______ _______ _______ _____ _____    ______ ____
ROOT
ATOM      1  N   UNL     1      47.796   7.327  14.660  0.00  0.00    +0.000 N 
ATOM      2  H   UNL     1      46.869   7.039  14.965  0.00  0.00    +0.000 HD
ENDROOT
BRANCH   1   3
ATOM      3  C   UNL     1      48.690   7.412  15.731  0.00  0.00    +0.000 A 
ATOM      4  C   UNL     1      49.072   8.604  16.344  0.00  0.00    +0.000 A 
ATOM      5  C   UNL     1      49.886   8.578  17.473  0.00  0.00    +0.000 A 
ATOM      6  F   UNL     1      50.231   9.734  18.056  0.00  0.00    +0.000 F 
ATOM      7  C   UNL     1      50.337   7.380  18.021  0.00  0.00    +0.000 A 
ATOM      8  C   UNL     1      49.972   6.157  17.442  0.00  0.00    +0.000 A 
ATOM      9  C   UNL     1      49.116   6.208  16.327  0.00  0.00    +0.000 A 
BRANCH   8  10
ATOM     10  C   UNL     1      50.454   4.847  18.066  0.00  0.00    +0.000 C 
ATOM     11  C   UNL     1      49.658   3.618  17.580  0.00  0.00    +0.000 C 
ATOM     12  C   UNL     1      48.298   3.500  18.266  0.00  0.00    +0.000 C 
ATOM     13  N   UNL     1      48.422   3.444  19.725  0.00  0.00    +0.000 NA
ATOM     14  C   UNL     1      49.121   4.618  20.243  0.00  0.00    +0.000 C 
ATOM     15  C   UNL     1      50.505   4.799  19.608  0.00  0.00    +0.000 C 
ATOM     16  H   UNL     1      48.938   2.605  19.986  0.00  0.00    +0.000 HD
ENDBRANCH   8  10
ENDBRANCH   1   3
BRANCH   1  17
ATOM     17  C   UNL     1      48.193   6.653  13.431  0.00  0.00    +0.000 C 
BRANCH  17  21
ATOM     18  C   UNL     1      45.030   4.145  12.094  0.00  0.00    +0.000 A 
ATOM     19  C   UNL     1      45.322   5.275  11.341  0.00  0.00    +0.000 A 
ATOM     20  C   UNL     1      46.349   6.105  11.780  0.00  0.00    +0.000 A 
ATOM     21  C   UNL     1      47.057   5.788  12.946  0.00  0.00    +0.000 A 
ATOM     22  C   UNL     1      46.682   4.634  13.629  0.00  0.00    +0.000 A 
ATOM     23  N   UNL     1      45.688   3.805  13.239  0.00  0.00    +0.000 NA
BRANCH  18  25
ATOM     24  N   UNL     1      43.654   2.186  12.498  0.00  0.00    +0.000 N 
ATOM     25  C   UNL     1      43.938   3.221  11.646  0.00  0.00    +0.000 C 
ATOM     26  O   UNL     1      43.333   3.369  10.590  0.00  0.00    +0.000 OA
ATOM     27  H   UNL     1      42.934   1.523  12.255  0.00  0.00    +0.000 HD
ATOM     28  H   UNL     1      44.176   2.093  13.361  0.00  0.00    +0.000 HD
ENDBRANCH  18  25
ENDBRANCH  17  21
ENDBRANCH   1  17
TORSDOF 5
ENDMDL
MODEL 8
REMARK VINA RESULT:    -6.148      5.332      9.133
REMARK INTER + INTRA:          -8.737
REMARK INTER:                  -8.275
REMARK INTRA:                  -0.462
REMARK UNBOUND:                -0.793
REMARK  Name = 
REMARK  5 active torsions:
REMARK  status: ('A' for Active; 'I' for Inactive)
REMARK    1  A    between atoms: C_2  and  C_4
REMARK    2  A    between atoms: C_7  and  C_8
REMARK    3  A    between atoms: C_8  and  N_9
REMARK    4  A    between atoms: N_9  and  C_10
REMARK    5  A    between atoms: C_15  and  C_16
REMARK                            x       y       z     vdW  Elec       q    Type
REMARK                         _______ _______ _______ _____ _____    ______ ____
ROOT
ATOM      1  N   UNL     1      47.515   5.322  15.260  0.00  0.00    +0.000 N 
ATOM      2  H   UNL     1      46.728   5.230  15.898  0.00  0.00    +0.000 HD
ENDROOT
BRANCH   1   3
ATOM      3  C   UNL     1      47.108   5.766  13.998  0.00  0.00    +0.000 A 
ATOM      4  C   UNL     1      47.940   6.416  13.088  0.00  0.00    +0.000 A 
ATOM      5  C   UNL     1      47.472   6.725  11.814  0.00  0.00    +0.000 A 
ATOM      6  F   UNL     1      48.290   7.339  10.948  0.00  0.00    +0.000 F 
ATOM      7  C   UNL     1      46.179   6.400  11.411  0.00  0.00    +0.000 A 
ATOM      8  C   UNL     1      45.312   5.739  12.291  0.00  0.00    +0.000 A 
ATOM      9  C   UNL     1      45.821   5.400  13.558  0.00  0.00    +0.000 A 
BRANCH   8  10
ATOM     10  C   UNL     1      43.902   5.365  11.830  0.00  0.00    +0.000 C 
ATOM     11  C   UNL     1      43.215   4.343  12.759  0.00  0.00    +0.000 C 
ATOM     12  C   UNL     1      43.720   2.919  12.529  0.00  0.00    +0.000 C 
ATOM     13  N   UNL     1      43.548   2.493  11.139  0.00  0.00    +0.000 NA
ATOM     14  C   UNL     1      44.230   3.399  10.218  0.00  0.00    +0.000 C 
ATOM     15  C   UNL     1      43.768   4.851  10.380  0.00  0.00    +0.000 C 
ATOM     16  H   UNL     1      42.553   2.474  10.914  0.00  0.00    +0.000 HD
ENDBRANCH   8  10
ENDBRANCH   1   3
BRANCH   1  17
ATOM     17  C   UNL     1      48.669   5.930  15.909  0.00  0.00    +0.000 C 
BRANCH  17  21
ATOM     18  C   UNL     1      48.041   5.851  20.114  0.00  0.00    +0.000 A 
ATOM     19  C   UNL     1      48.020   7.086  19.479  0.00  0.00    +0.000 A 
ATOM     20  C   UNL     1      48.235   7.119  18.105  0.00  0.00    +0.000 A 
ATOM     21  C   UNL     1      48.460   5.928  17.402  0.00  0.00    +0.000 A 
ATOM     22  C   UNL     1      48.466   4.744  18.135  0.00  0.00    +0.000 A 
ATOM     23  N   UNL     1      48.266   4.670  19.470  0.00  0.00    +0.000 NA
BRANCH  18  25
ATOM     24  N   UNL     1      47.425   6.949  22.189  0.00  0.00    +0.000 N 
ATOM     25  C   UNL     1      47.802   5.776  21.592  0.00  0.00    +0.000 C 
ATOM     26  O   UNL     1      47.932   4.740  22.234  0.00  0.00    +0.000 OA
ATOM     27  H   UNL     1      47.253   6.971  23.183  0.00  0.00    +0.000 HD
ATOM     28  H   UNL     1      47.329   7.787  21.627  0.00  0.00    +0.000 HD
ENDBRANCH  18  25
ENDBRANCH  17  21
ENDBRANCH   1  17
TORSDOF 5
ENDMDL
MODEL 9
REMARK VINA RESULT:    -6.020      4.251      7.721
REMARK INTER + INTRA:          -8.572
REMARK INTER:                  -7.951
REMARK INTRA:                  -0.622
REMARK UNBOUND:                -0.793
REMARK  Name = 
REMARK  5 active torsions:
REMARK  status: ('A' for Active; 'I' for Inactive)
REMARK    1  A    between atoms: C_2  and  C_4
REMARK    2  A    between atoms: C_7  and  C_8
REMARK    3  A    between atoms: C_8  and  N_9
REMARK    4  A    between atoms: N_9  and  C_10
REMARK    5  A    between atoms: C_15  and  C_16
REMARK                            x       y       z     vdW  Elec       q    Type
REMARK                         _______ _______ _______ _____ _____    ______ ____
ROOT
ATOM      1  N   UNL     1      48.689   7.479  12.890  0.00  0.00    +0.000 N 
ATOM      2  H   UNL     1      48.961   6.504  12.790  0.00  0.00    +0.000 HD
ENDROOT
BRANCH   1   3
ATOM      3  C   UNL     1      47.345   7.677  12.560  0.00  0.00    +0.000 A 
ATOM      4  C   UNL     1      46.693   8.907  12.627  0.00  0.00    +0.000 A 
ATOM      5  C   UNL     1      45.381   9.026  12.177  0.00  0.00    +0.000 A 
ATOM      6  F   UNL     1      44.774  10.219  12.236  0.00  0.00    +0.000 F 
ATOM      7  C   UNL     1      44.687   7.938  11.651  0.00  0.00    +0.000 A 
ATOM      8  C   UNL     1      45.307   6.685  11.559  0.00  0.00    +0.000 A 
ATOM      9  C   UNL     1      46.646   6.600  11.982  0.00  0.00    +0.000 A 
BRANCH   8  10
ATOM     10  C   UNL     1      44.544   5.503  10.958  0.00  0.00    +0.000 C 
ATOM     11  C   UNL     1      43.092   5.400  11.468  0.00  0.00    +0.000 C 
ATOM     12  C   UNL     1      43.011   4.801  12.871  0.00  0.00    +0.000 C 
ATOM     13  N   UNL     1      43.637   3.479  12.941  0.00  0.00    +0.000 NA
ATOM     14  C   UNL     1      45.036   3.532  12.522  0.00  0.00    +0.000 C 
ATOM     15  C   UNL     1      45.200   4.114  11.113  0.00  0.00    +0.000 C 
ATOM     16  H   UNL     1      43.130   2.835  12.335  0.00  0.00    +0.000 HD
ENDBRANCH   8  10
ENDBRANCH   1   3
BRANCH   1  17
ATOM     17  C   UNL     1      49.236   8.071  14.104  0.00  0.00    +0.000 C 
BRANCH  17  21
ATOM     18  C   UNL     1      49.620   5.051  17.073  0.00  0.00    +0.000 A 
ATOM     19  C   UNL     1      50.679   5.934  16.908  0.00  0.00    +0.000 A 
ATOM     20  C   UNL     1      50.563   6.918  15.930  0.00  0.00    +0.000 A 
ATOM     21  C   UNL     1      49.402   6.999  15.151  0.00  0.00    +0.000 A 
ATOM     22  C   UNL     1      48.402   6.061  15.394  0.00  0.00    +0.000 A 
ATOM     23  N   UNL     1      48.477   5.089  16.330  0.00  0.00    +0.000 NA
BRANCH  18  25
ATOM     24  N   UNL     1      50.965   3.704  18.579  0.00  0.00    +0.000 N 
ATOM     25  C   UNL     1      49.704   3.986  18.124  0.00  0.00    +0.000 C 
ATOM     26  O   UNL     1      48.719   3.398  18.555  0.00  0.00    +0.000 OA
ATOM     27  H   UNL     1      51.095   2.992  19.282  0.00  0.00    +0.000 HD
ATOM     28  H   UNL     1      51.757   4.208  18.198  0.00  0.00    +0.000 HD
ENDBRANCH  18  25
ENDBRANCH  17  21
ENDBRANCH   1  17
TORSDOF 5
ENDMDL
