MODEL 1
REMARK VINA RESULT:    -9.228      0.000      0.000
REMARK INTER + INTRA:         -12.975
REMARK INTER:                 -11.925
REMARK INTRA:                  -1.050
REMARK UNBOUND:                -1.050
REMARK  Name = 
REMARK  8 active torsions:
REMARK  status: ('A' for Active; 'I' for Inactive)
REMARK    1  A    between atoms: C_1  and  C_2
REMARK    2  A    between atoms: C_4  and  N_5
REMARK    3  A    between atoms: N_5  and  C_6
REMARK    4  A    between atoms: C_6  and  C_7
REMARK    5  A    between atoms: C_11  and  C_12
REMARK    6  A    between atoms: C_20  and  C_21
REMARK    7  A    between atoms: N_23  and  C_24
REMARK    8  A    between atoms: N_23  and  C_25
REMARK                            x       y       z     vdW  Elec       q    Type
REMARK                         _______ _______ _______ _____ _____    ______ ____
ROOT
ATOM      1  N   UNL     1      44.376   7.041  12.321  0.00  0.00    +0.000 N 
ATOM      2  H   UNL     1      43.970   7.709  12.961  0.00  0.00    +0.000 HD
ENDROOT
BRANCH   1   6
ATOM      3  C   UNL     1      49.238   7.761  11.693  0.00  0.00    +0.000 C 
ATOM      4  C   UNL     1      48.066   7.063  12.313  0.00  0.00    +0.000 A 
ATOM      5  C   UNL     1      46.755   7.434  12.006  0.00  0.00    +0.000 A 
ATOM      6  C   UNL     1      45.685   6.748  12.577  0.00  0.00    +0.000 A 
ATOM      7  N   UNL     1      45.873   5.726  13.433  0.00  0.00    +0.000 NA
ATOM      8  C   UNL     1      47.144   5.382  13.752  0.00  0.00    +0.000 A 
ATOM      9  C   UNL     1      48.260   6.011  13.203  0.00  0.00    +0.000 A 
BRANCH   8  10
ATOM     10  C   UNL     1      47.382   4.237  14.692  0.00  0.00    +0.000 C 
ATOM     11  O   UNL     1      47.226   3.099  14.225  0.00  0.00    +0.000 OA
ATOM     12  N   UNL     1      47.772   4.418  16.026  0.00  0.00    +0.000 N 
ATOM     13  C   UNL     1      48.113   5.678  16.670  0.00  0.00    +0.000 C 
ATOM     14  C   UNL     1      47.945   3.237  16.859  0.00  0.00    +0.000 C 
ENDBRANCH   8  10
ENDBRANCH   1   6
BRANCH   1  15
ATOM     15  C   UNL     1      43.557   6.518  11.252  0.00  0.00    +0.000 C 
BRANCH  15  16
ATOM     16  C   UNL     1      43.717   5.030  11.028  0.00  0.00    +0.000 A 
ATOM     17  C   UNL     1      43.069   4.057  11.798  0.00  0.00    +0.000 A 
ATOM     18  C   UNL     1      43.280   2.703  11.548  0.00  0.00    +0.000 A 
ATOM     19  C   UNL     1      44.130   2.303  10.514  0.00  0.00    +0.000 A 
ATOM     20  C   UNL     1      44.774   3.242   9.691  0.00  0.00    +0.000 A 
ATOM     21  C   UNL     1      44.574   4.603   9.993  0.00  0.00    +0.000 A 
BRANCH  20  22
ATOM     22  C   UNL     1      45.555   2.826   8.502  0.00  0.00    +0.000 A 
ATOM     23  C   UNL     1      45.855   3.751   7.485  0.00  0.00    +0.000 A 
ATOM     24  C   UNL     1      46.662   3.410   6.396  0.00  0.00    +0.000 A 
ATOM     25  C   UNL     1      47.197   2.129   6.303  0.00  0.00    +0.000 A 
ATOM     26  C   UNL     1      46.907   1.188   7.286  0.00  0.00    +0.000 A 
ATOM     27  C   UNL     1      46.087   1.529   8.369  0.00  0.00    +0.000 A 
ENDBRANCH  20  22
ENDBRANCH  15  16
ENDBRANCH   1  15
TORSDOF 5
ENDMDL
MODEL 2
REMARK VINA RESULT:    -7.871      2.015      2.325
REMARK INTER + INTRA:         -11.222
REMARK INTER:                 -10.373
REMARK INTRA:                  -0.849
REMARK UNBOUND:                -1.050
REMARK  Name = 
REMARK  8 active torsions:
REMARK  status: ('A' for Active; 'I' for Inactive)
REMARK    1  A    between atoms: C_1  and  C_2
REMARK    2  A    between atoms: C_4  and  N_5
REMARK    3  A    between atoms: N_5  and  C_6
REMARK    4  A    between atoms: C_6  and  C_7
REMARK    5  A    between atoms: C_11  and  C_12
REMARK    6  A    between atoms: C_20  and  C_21
REMARK    7  A    between atoms: N_23  and  C_24
REMARK    8  A    between atoms: N_23  and  C_25
REMARK                            x       y       z     vdW  Elec       q    Type
REMARK                         _______ _______ _______ _____ _____    ______ ____
ROOT
ATOM      1  N   UNL     1      44.394   6.954  12.526  0.00  0.00    +0.000 N 
ATOM      2  H   UNL     1      44.087   6.630  13.433  0.00  0.00    +0.000 HD
ENDROOT
BRANCH   1   6
ATOM      3  C   UNL     1      46.595  11.291  11.572  0.00  0.00    +0.000 C 
ATOM      4  C   UNL     1      46.579   9.903  12.138  0.00  0.00    +0.000 A 
ATOM      5  C   UNL     1      45.438   9.101  12.062  0.00  0.00    +0.000 A 
ATOM      6  C   UNL     1      45.462   7.805  12.571  0.00  0.00    +0.000 A 
ATOM      7  N   UNL     1      46.563   7.290  13.149  0.00  0.00    +0.000 NA
ATOM      8  C   UNL     1      47.663   8.077  13.248  0.00  0.00    +0.000 A 
ATOM      9  C   UNL     1      47.715   9.374  12.741  0.00  0.00    +0.000 A 
BRANCH   8  10
ATOM     10  C   UNL     1      48.909   7.522  13.875  0.00  0.00    +0.000 C 
ATOM     11  O   UNL     1      49.605   6.787  13.160  0.00  0.00    +0.000 OA
ATOM     12  N   UNL     1      49.292   7.816  15.191  0.00  0.00    +0.000 N 
ATOM     13  C   UNL     1      48.646   8.755  16.097  0.00  0.00    +0.000 C 
ATOM     14  C   UNL     1      50.504   7.200  15.710  0.00  0.00    +0.000 C 
ENDBRANCH   8  10
ENDBRANCH   1   6
BRANCH   1  15
ATOM     15  C   UNL     1      43.683   6.508  11.351  0.00  0.00    +0.000 C 
BRANCH  15  16
ATOM     16  C   UNL     1      43.793   5.021  11.094  0.00  0.00    +0.000 A 
ATOM     17  C   UNL     1      43.101   4.054  11.832  0.00  0.00    +0.000 A 
ATOM     18  C   UNL     1      43.268   2.700  11.553  0.00  0.00    +0.000 A 
ATOM     19  C   UNL     1      44.117   2.294  10.520  0.00  0.00    +0.000 A 
ATOM     20  C   UNL     1      44.804   3.229   9.728  0.00  0.00    +0.000 A 
ATOM     21  C   UNL     1      44.648   4.589  10.059  0.00  0.00    +0.000 A 
BRANCH  20  22
ATOM     22  C   UNL     1      45.586   2.813   8.539  0.00  0.00    +0.000 A 
ATOM     23  C   UNL     1      45.888   3.739   7.524  0.00  0.00    +0.000 A 
ATOM     24  C   UNL     1      46.695   3.399   6.435  0.00  0.00    +0.000 A 
ATOM     25  C   UNL     1      47.229   2.117   6.341  0.00  0.00    +0.000 A 
ATOM     26  C   UNL     1      46.937   1.175   7.323  0.00  0.00    +0.000 A 
ATOM     27  C   UNL     1      46.117   1.516   8.405  0.00  0.00    +0.000 A 
ENDBRANCH  20  22
ENDBRANCH  15  16
ENDBRANCH   1  15
TORSDOF 5
ENDMDL
MODEL 3
REMARK VINA RESULT:    -7.837      1.743      2.034
REMARK INTER + INTRA:         -11.178
REMARK INTER:                 -10.195
REMARK INTRA:                  -0.983
REMARK UNBOUND:                -1.050
REMARK  Name = 
REMARK  8 active torsions:
REMARK  status: ('A' for Active; 'I' for Inactive)
REMARK    1  A    between atoms: C_1  and  C_2
REMARK    2  A    between atoms: C_4  and  N_5
REMARK    3  A    between atoms: N_5  and  C_6
REMARK    4  A    between atoms: C_6  and  C_7
REMARK    5  A    between atoms: C_11  and  C_12
REMARK    6  A    between atoms: C_20  and  C_21
REMARK    7  A    between atoms: N_23  and  C_24
REMARK    8  A    between atoms: N_23  and  C_25
REMARK                            x       y       z     vdW  Elec       q    Type
REMARK                         _______ _______ _______ _____ _____    ______ ____
ROOT
ATOM      1  N   UNL     1      45.655   7.286  12.671  0.00  0.00    +0.000 N 
ATOM      2  H   UNL     1      45.101   7.410  13.507  0.00  0.00    +0.000 HD
ENDROOT
BRANCH   1   6
ATOM      3  C   UNL     1      50.336   7.761  11.116  0.00  0.00    +0.000 C 
ATOM      4  C   UNL     1      49.303   7.554  12.181  0.00  0.00    +0.000 A 
ATOM      5  C   UNL     1      47.939   7.545  11.878  0.00  0.00    +0.000 A 
ATOM      6  C   UNL     1      47.003   7.321  12.886  0.00  0.00    +0.000 A 
ATOM      7  N   UNL     1      47.372   7.114  14.164  0.00  0.00    +0.000 NA
ATOM      8  C   UNL     1      48.694   7.149  14.464  0.00  0.00    +0.000 A 
ATOM      9  C   UNL     1      49.684   7.346  13.503  0.00  0.00    +0.000 A 
BRANCH   8  10
ATOM     10  C   UNL     1      49.133   6.907  15.879  0.00  0.00    +0.000 C 
ATOM     11  O   UNL     1      49.728   5.842  16.096  0.00  0.00    +0.000 OA
ATOM     12  N   UNL     1      48.905   7.826  16.911  0.00  0.00    +0.000 N 
ATOM     13  C   UNL     1      48.338   9.161  16.781  0.00  0.00    +0.000 C 
ATOM     14  C   UNL     1      49.346   7.478  18.254  0.00  0.00    +0.000 C 
ENDBRANCH   8  10
ENDBRANCH   1   6
BRANCH   1  15
ATOM     15  C   UNL     1      44.976   7.113  11.407  0.00  0.00    +0.000 C 
BRANCH  15  16
ATOM     16  C   UNL     1      44.602   5.679  11.103  0.00  0.00    +0.000 A 
ATOM     17  C   UNL     1      43.593   4.982  11.776  0.00  0.00    +0.000 A 
ATOM     18  C   UNL     1      43.317   3.654  11.455  0.00  0.00    +0.000 A 
ATOM     19  C   UNL     1      44.037   3.011  10.446  0.00  0.00    +0.000 A 
ATOM     20  C   UNL     1      45.035   3.680   9.718  0.00  0.00    +0.000 A 
ATOM     21  C   UNL     1      45.320   5.008  10.091  0.00  0.00    +0.000 A 
BRANCH  20  22
ATOM     22  C   UNL     1      45.697   3.051   8.550  0.00  0.00    +0.000 A 
ATOM     23  C   UNL     1      46.092   3.832   7.448  0.00  0.00    +0.000 A 
ATOM     24  C   UNL     1      46.794   3.283   6.372  0.00  0.00    +0.000 A 
ATOM     25  C   UNL     1      47.126   1.932   6.377  0.00  0.00    +0.000 A 
ATOM     26  C   UNL     1      46.738   1.131   7.447  0.00  0.00    +0.000 A 
ATOM     27  C   UNL     1      46.022   1.682   8.517  0.00  0.00    +0.000 A 
ENDBRANCH  20  22
ENDBRANCH  15  16
ENDBRANCH   1  15
TORSDOF 5
ENDMDL
MODEL 4
REMARK VINA RESULT:    -7.588      2.346      4.053
REMARK INTER + INTRA:         -10.856
REMARK INTER:                  -9.768
REMARK INTRA:                  -1.088
REMARK UNBOUND:                -1.050
REMARK  Name = 
REMARK  8 active torsions:
REMARK  status: ('A' for Active; 'I' for Inactive)
REMARK    1  A    between atoms: C_1  and  C_2
REMARK    2  A    between atoms: C_4  and  N_5
REMARK    3  A    between atoms: N_5  and  C_6
REMARK    4  A    between atoms: C_6  and  C_7
REMARK    5  A    between atoms: C_11  and  C_12
REMARK    6  A    between atoms: C_20  and  C_21
REMARK    7  A    between atoms: N_23  and  C_24
REMARK    8  A    between atoms: N_23  and  C_25
REMARK                            x       y       z     vdW  Elec       q    Type
REMARK                         _______ _______ _______ _____ _____    ______ ____
ROOT
ATOM      1  N   UNL     1      46.364   5.815  14.035  0.00  0.00    +0.000 N 
ATOM      2  H   UNL     1      46.191   6.106  14.987  0.00  0.00    +0.000 HD
ENDROOT
BRANCH   1   6
ATOM      3  C   UNL     1      50.303   7.445  11.509  0.00  0.00    +0.000 C 
ATOM      4  C   UNL     1      48.903   7.585  12.026  0.00  0.00    +0.000 A 
ATOM      5  C   UNL     1      48.306   6.576  12.786  0.00  0.00    +0.000 A 
ATOM      6  C   UNL     1      47.014   6.746  13.277  0.00  0.00    +0.000 A 
ATOM      7  N   UNL     1      46.305   7.865  13.037  0.00  0.00    +0.000 NA
ATOM      8  C   UNL     1      46.873   8.834  12.277  0.00  0.00    +0.000 A 
ATOM      9  C   UNL     1      48.169   8.739  11.772  0.00  0.00    +0.000 A 
BRANCH   8  10
ATOM     10  C   UNL     1      46.110  10.098  12.007  0.00  0.00    +0.000 C 
ATOM     11  O   UNL     1      46.702  11.160  12.246  0.00  0.00    +0.000 OA
ATOM     12  N   UNL     1      44.805  10.102  11.498  0.00  0.00    +0.000 N 
ATOM     13  C   UNL     1      44.039   8.946  11.055  0.00  0.00    +0.000 C 
ATOM     14  C   UNL     1      44.146  11.385  11.302  0.00  0.00    +0.000 C 
ENDBRANCH   8  10
ENDBRANCH   1   6
BRANCH   1  15
ATOM     15  C   UNL     1      45.906   4.511  13.613  0.00  0.00    +0.000 C 
BRANCH  15  16
ATOM     16  C   UNL     1      45.102   4.529  12.331  0.00  0.00    +0.000 A 
ATOM     17  C   UNL     1      43.884   5.205  12.189  0.00  0.00    +0.000 A 
ATOM     18  C   UNL     1      43.188   5.160  10.984  0.00  0.00    +0.000 A 
ATOM     19  C   UNL     1      43.708   4.451   9.898  0.00  0.00    +0.000 A 
ATOM     20  C   UNL     1      44.943   3.787   9.981  0.00  0.00    +0.000 A 
ATOM     21  C   UNL     1      45.605   3.816  11.223  0.00  0.00    +0.000 A 
BRANCH  20  22
ATOM     22  C   UNL     1      45.569   3.161   8.792  0.00  0.00    +0.000 A 
ATOM     23  C   UNL     1      46.002   3.954   7.712  0.00  0.00    +0.000 A 
ATOM     24  C   UNL     1      46.673   3.402   6.618  0.00  0.00    +0.000 A 
ATOM     25  C   UNL     1      46.935   2.036   6.581  0.00  0.00    +0.000 A 
ATOM     26  C   UNL     1      46.507   1.224   7.627  0.00  0.00    +0.000 A 
ATOM     27  C   UNL     1      45.823   1.779   8.716  0.00  0.00    +0.000 A 
ENDBRANCH  20  22
ENDBRANCH  15  16
ENDBRANCH   1  15
TORSDOF 5
ENDMDL
MODEL 5
REMARK VINA RESULT:    -7.154      2.204      2.854
REMARK INTER + INTRA:         -10.295
REMARK INTER:                  -9.245
REMARK INTRA:                  -1.050
REMARK UNBOUND:                -1.050
REMARK  Name = 
REMARK  8 active torsions:
REMARK  status: ('A' for Active; 'I' for Inactive)
REMARK    1  A    between atoms: C_1  and  C_2
REMARK    2  A    between atoms: C_4  and  N_5
REMARK    3  A    between atoms: N_5  and  C_6
REMARK    4  A    between atoms: C_6  and  C_7
REMARK    5  A    between atoms: C_11  and  C_12
REMARK    6  A    between atoms: C_20  and  C_21
REMARK    7  A    between atoms: N_23  and  C_24
REMARK    8  A    between atoms: N_23  and  C_25
REMARK                            x       y       z     vdW  Elec       q    Type
REMARK                         _______ _______ _______ _____ _____    ______ ____
ROOT
ATOM      1  N   UNL     1      47.084   4.795  13.694  0.00  0.00    +0.000 N 
ATOM      2  H   UNL     1      47.613   3.944  13.558  0.00  0.00    +0.000 HD
ENDROOT
BRANCH   1   6
ATOM      3  C   UNL     1      48.797   8.958  11.623  0.00  0.00    +0.000 C 
ATOM      4  C   UNL     1      48.705   7.972  12.748  0.00  0.00    +0.000 A 
ATOM      5  C   UNL     1      47.889   6.842  12.658  0.00  0.00    +0.000 A 
ATOM      6  C   UNL     1      47.846   5.928  13.708  0.00  0.00    +0.000 A 
ATOM      7  N   UNL     1      48.571   6.101  14.829  0.00  0.00    +0.000 NA
ATOM      8  C   UNL     1      49.343   7.211  14.929  0.00  0.00    +0.000 A 
ATOM      9  C   UNL     1      49.450   8.155  13.909  0.00  0.00    +0.000 A 
BRANCH   8  10
ATOM     10  C   UNL     1      50.173   7.420  16.162  0.00  0.00    +0.000 C 
ATOM     11  O   UNL     1      51.325   6.963  16.134  0.00  0.00    +0.000 OA
ATOM     12  N   UNL     1      49.698   8.104  17.289  0.00  0.00    +0.000 N 
ATOM     13  C   UNL     1      48.425   8.798  17.415  0.00  0.00    +0.000 C 
ATOM     14  C   UNL     1      50.577   8.223  18.443  0.00  0.00    +0.000 C 
ENDBRANCH   8  10
ENDBRANCH   1   6
BRANCH   1  15
ATOM     15  C   UNL     1      45.652   4.703  13.866  0.00  0.00    +0.000 C 
BRANCH  15  16
ATOM     16  C   UNL     1      44.877   4.715  12.567  0.00  0.00    +0.000 A 
ATOM     17  C   UNL     1      43.667   5.397  12.393  0.00  0.00    +0.000 A 
ATOM     18  C   UNL     1      42.997   5.347  11.173  0.00  0.00    +0.000 A 
ATOM     19  C   UNL     1      43.535   4.625  10.105  0.00  0.00    +0.000 A 
ATOM     20  C   UNL     1      44.764   3.955  10.220  0.00  0.00    +0.000 A 
ATOM     21  C   UNL     1      45.399   3.989  11.476  0.00  0.00    +0.000 A 
BRANCH  20  22
ATOM     22  C   UNL     1      45.412   3.315   9.050  0.00  0.00    +0.000 A 
ATOM     23  C   UNL     1      45.933   4.100   8.004  0.00  0.00    +0.000 A 
ATOM     24  C   UNL     1      46.625   3.530   6.932  0.00  0.00    +0.000 A 
ATOM     25  C   UNL     1      46.819   2.153   6.884  0.00  0.00    +0.000 A 
ATOM     26  C   UNL     1      46.304   1.349   7.897  0.00  0.00    +0.000 A 
ATOM     27  C   UNL     1      45.599   1.922   8.963  0.00  0.00    +0.000 A 
ENDBRANCH  20  22
ENDBRANCH  15  16
ENDBRANCH   1  15
TORSDOF 5
ENDMDL
MODEL 6
REMARK VINA RESULT:    -7.050      2.357      5.181
REMARK INTER + INTRA:         -10.160
REMARK INTER:                  -9.397
REMARK INTRA:                  -0.764
REMARK UNBOUND:                -1.050
REMARK  Name = 
REMARK  8 active torsions:
REMARK  status: ('A' for Active; 'I' for Inactive)
REMARK    1  A    between atoms: C_1  and  C_2
REMARK    2  A    between atoms: C_4  and  N_5
REMARK    3  A    between atoms: N_5  and  C_6
REMARK    4  A    between atoms: C_6  and  C_7
REMARK    5  A    between atoms: C_11  and  C_12
REMARK    6  A    between atoms: C_20  and  C_21
REMARK    7  A    between atoms: N_23  and  C_24
REMARK    8  A    between atoms: N_23  and  C_25
REMARK                            x       y       z     vdW  Elec       q    Type
REMARK                         _______ _______ _______ _____ _____    ______ ____
ROOT
ATOM      1  N   UNL     1      48.484   7.083  15.842  0.00  0.00    +0.000 N 
ATOM      2  H   UNL     1      48.238   8.019  16.130  0.00  0.00    +0.000 HD
ENDROOT
BRANCH   1   6
ATOM      3  C   UNL     1      47.747   5.710  20.545  0.00  0.00    +0.000 C 
ATOM      4  C   UNL     1      48.241   5.469  19.151  0.00  0.00    +0.000 A 
ATOM      5  C   UNL     1      48.088   6.432  18.151  0.00  0.00    +0.000 A 
ATOM      6  C   UNL     1      48.583   6.191  16.871  0.00  0.00    +0.000 A 
ATOM      7  N   UNL     1      49.209   5.041  16.557  0.00  0.00    +0.000 NA
ATOM      8  C   UNL     1      49.334   4.095  17.520  0.00  0.00    +0.000 A 
ATOM      9  C   UNL     1      48.882   4.278  18.826  0.00  0.00    +0.000 A 
BRANCH   8  10
ATOM     10  C   UNL     1      50.042   2.811  17.201  0.00  0.00    +0.000 C 
ATOM     11  O   UNL     1      49.422   2.002  16.494  0.00  0.00    +0.000 OA
ATOM     12  N   UNL     1      51.336   2.524  17.654  0.00  0.00    +0.000 N 
ATOM     13  C   UNL     1      52.224   3.421  18.378  0.00  0.00    +0.000 C 
ATOM     14  C   UNL     1      51.916   1.234  17.311  0.00  0.00    +0.000 C 
ENDBRANCH   8  10
ENDBRANCH   1   6
BRANCH   1  15
ATOM     15  C   UNL     1      48.708   6.824  14.438  0.00  0.00    +0.000 C 
BRANCH  15  16
ATOM     16  C   UNL     1      47.509   7.115  13.562  0.00  0.00    +0.000 A 
ATOM     17  C   UNL     1      46.876   8.361  13.503  0.00  0.00    +0.000 A 
ATOM     18  C   UNL     1      45.762   8.550  12.688  0.00  0.00    +0.000 A 
ATOM     19  C   UNL     1      45.275   7.498  11.909  0.00  0.00    +0.000 A 
ATOM     20  C   UNL     1      45.898   6.239  11.907  0.00  0.00    +0.000 A 
ATOM     21  C   UNL     1      46.997   6.066  12.770  0.00  0.00    +0.000 A 
BRANCH  20  22
ATOM     22  C   UNL     1      45.479   5.167  10.972  0.00  0.00    +0.000 A 
ATOM     23  C   UNL     1      44.804   4.028  11.449  0.00  0.00    +0.000 A 
ATOM     24  C   UNL     1      44.321   3.044  10.583  0.00  0.00    +0.000 A 
ATOM     25  C   UNL     1      44.497   3.180   9.210  0.00  0.00    +0.000 A 
ATOM     26  C   UNL     1      45.173   4.289   8.709  0.00  0.00    +0.000 A 
ATOM     27  C   UNL     1      45.667   5.267   9.581  0.00  0.00    +0.000 A 
ENDBRANCH  20  22
ENDBRANCH  15  16
ENDBRANCH   1  15
TORSDOF 5
ENDMDL
MODEL 7
REMARK VINA RESULT:    -7.031      2.082      2.851
REMARK INTER + INTRA:         -10.137
REMARK INTER:                  -9.350
REMARK INTRA:                  -0.787
REMARK UNBOUND:                -1.050
REMARK  Name = 
REMARK  8 active torsions:
REMARK  status: ('A' for Active; 'I' for Inactive)
REMARK    1  A    between atoms: C_1  and  C_2
REMARK    2  A    between atoms: C_4  and  N_5
REMARK    3  A    between atoms: N_5  and  C_6
REMARK    4  A    between atoms: C_6  and  C_7
REMARK    5  A    between atoms: C_11  and  C_12
REMARK    6  A    between atoms: C_20  and  C_21
REMARK    7  A    between atoms: N_23  and  C_24
REMARK    8  A    between atoms: N_23  and  C_25
REMARK                            x       y       z     vdW  Elec       q    Type
REMARK                         _______ _______ _______ _____ _____    ______ ____
ROOT
ATOM      1  N   UNL     1      47.181   5.729  13.699  0.00  0.00    +0.000 N 
ATOM      2  H   UNL     1      47.366   5.960  12.733  0.00  0.00    +0.000 HD
ENDROOT
BRANCH   1   6
ATOM      3  C   UNL     1      51.020   8.585  14.988  0.00  0.00    +0.000 C 
ATOM      4  C   UNL     1      50.039   7.481  15.242  0.00  0.00    +0.000 A 
ATOM      5  C   UNL     1      49.048   7.162  14.310  0.00  0.00    +0.000 A 
ATOM      6  C   UNL     1      48.168   6.111  14.562  0.00  0.00    +0.000 A 
ATOM      7  N   UNL     1      48.237   5.383  15.692  0.00  0.00    +0.000 NA
ATOM      8  C   UNL     1      49.181   5.709  16.609  0.00  0.00    +0.000 A 
ATOM      9  C   UNL     1      50.106   6.733  16.413  0.00  0.00    +0.000 A 
BRANCH   8  10
ATOM     10  C   UNL     1      49.288   4.904  17.870  0.00  0.00    +0.000 C 
ATOM     11  O   UNL     1      50.120   3.984  17.868  0.00  0.00    +0.000 OA
ATOM     12  N   UNL     1      48.512   5.167  19.007  0.00  0.00    +0.000 N 
ATOM     13  C   UNL     1      47.596   6.282  19.197  0.00  0.00    +0.000 C 
ATOM     14  C   UNL     1      48.675   4.304  20.168  0.00  0.00    +0.000 C 
ENDBRANCH   8  10
ENDBRANCH   1   6
BRANCH   1  15
ATOM     15  C   UNL     1      45.955   5.039  14.026  0.00  0.00    +0.000 C 
BRANCH  15  16
ATOM     16  C   UNL     1      45.007   4.883  12.857  0.00  0.00    +0.000 A 
ATOM     17  C   UNL     1      43.691   5.359  12.857  0.00  0.00    +0.000 A 
ATOM     18  C   UNL     1      42.869   5.162  11.751  0.00  0.00    +0.000 A 
ATOM     19  C   UNL     1      43.356   4.498  10.622  0.00  0.00    +0.000 A 
ATOM     20  C   UNL     1      44.680   4.034  10.561  0.00  0.00    +0.000 A 
ATOM     21  C   UNL     1      45.476   4.212  11.709  0.00  0.00    +0.000 A 
BRANCH  20  22
ATOM     22  C   UNL     1      45.246   3.464   9.315  0.00  0.00    +0.000 A 
ATOM     23  C   UNL     1      45.716   4.309   8.292  0.00  0.00    +0.000 A 
ATOM     24  C   UNL     1      46.333   3.803   7.145  0.00  0.00    +0.000 A 
ATOM     25  C   UNL     1      46.501   2.430   6.997  0.00  0.00    +0.000 A 
ATOM     26  C   UNL     1      46.035   1.567   7.985  0.00  0.00    +0.000 A 
ATOM     27  C   UNL     1      45.405   2.078   9.126  0.00  0.00    +0.000 A 
ENDBRANCH  20  22
ENDBRANCH  15  16
ENDBRANCH   1  15
TORSDOF 5
ENDMDL
MODEL 8
REMARK VINA RESULT:    -6.707      2.263      4.281
REMARK INTER + INTRA:          -9.718
REMARK INTER:                  -8.778
REMARK INTRA:                  -0.940
REMARK UNBOUND:                -1.050
REMARK  Name = 
REMARK  8 active torsions:
REMARK  status: ('A' for Active; 'I' for Inactive)
REMARK    1  A    between atoms: C_1  and  C_2
REMARK    2  A    between atoms: C_4  and  N_5
REMARK    3  A    between atoms: N_5  and  C_6
REMARK    4  A    between atoms: C_6  and  C_7
REMARK    5  A    between atoms: C_11  and  C_12
REMARK    6  A    between atoms: C_20  and  C_21
REMARK    7  A    between atoms: N_23  and  C_24
REMARK    8  A    between atoms: N_23  and  C_25
REMARK                            x       y       z     vdW  Elec       q    Type
REMARK                         _______ _______ _______ _____ _____    ______ ____
ROOT
ATOM      1  N   UNL     1      49.912   7.514  12.969  0.00  0.00    +0.000 N 
ATOM      2  H   UNL     1      50.739   6.952  12.824  0.00  0.00    +0.000 HD
ENDROOT
BRANCH   1   6
ATOM      3  C   UNL     1      49.088  10.248  17.018  0.00  0.00    +0.000 C 
ATOM      4  C   UNL     1      49.134   8.945  16.280  0.00  0.00    +0.000 A 
ATOM      5  C   UNL     1      49.495   8.887  14.932  0.00  0.00    +0.000 A 
ATOM      6  C   UNL     1      49.558   7.657  14.280  0.00  0.00    +0.000 A 
ATOM      7  N   UNL     1      49.273   6.503  14.912  0.00  0.00    +0.000 NA
ATOM      8  C   UNL     1      48.897   6.560  16.213  0.00  0.00    +0.000 A 
ATOM      9  C   UNL     1      48.834   7.753  16.932  0.00  0.00    +0.000 A 
BRANCH   8  10
ATOM     10  C   UNL     1      48.588   5.288  16.946  0.00  0.00    +0.000 C 
ATOM     11  O   UNL     1      49.110   5.155  18.062  0.00  0.00    +0.000 OA
ATOM     12  N   UNL     1      47.749   4.295  16.423  0.00  0.00    +0.000 N 
ATOM     13  C   UNL     1      46.974   4.370  15.192  0.00  0.00    +0.000 C 
ATOM     14  C   UNL     1      47.542   3.085  17.204  0.00  0.00    +0.000 C 
ENDBRANCH   8  10
ENDBRANCH   1   6
BRANCH   1  15
ATOM     15  C   UNL     1      49.229   8.054  11.816  0.00  0.00    +0.000 C 
BRANCH  15  16
ATOM     16  C   UNL     1      47.726   7.878  11.854  0.00  0.00    +0.000 A 
ATOM     17  C   UNL     1      46.846   8.837  12.366  0.00  0.00    +0.000 A 
ATOM     18  C   UNL     1      45.474   8.597  12.388  0.00  0.00    +0.000 A 
ATOM     19  C   UNL     1      44.962   7.399  11.883  0.00  0.00    +0.000 A 
ATOM     20  C   UNL     1      45.803   6.421  11.326  0.00  0.00    +0.000 A 
ATOM     21  C   UNL     1      47.188   6.673  11.354  0.00  0.00    +0.000 A 
BRANCH  20  22
ATOM     22  C   UNL     1      45.255   5.218  10.655  0.00  0.00    +0.000 A 
ATOM     23  C   UNL     1      45.514   4.981   9.292  0.00  0.00    +0.000 A 
ATOM     24  C   UNL     1      45.084   3.814   8.655  0.00  0.00    +0.000 A 
ATOM     25  C   UNL     1      44.388   2.847   9.373  0.00  0.00    +0.000 A 
ATOM     26  C   UNL     1      44.105   3.059  10.719  0.00  0.00    +0.000 A 
ATOM     27  C   UNL     1      44.525   4.236  11.351  0.00  0.00    +0.000 A 
ENDBRANCH  20  22
ENDBRANCH  15  16
ENDBRANCH   1  15
TORSDOF 5
ENDMDL
MODEL 9
REMARK VINA RESULT:    -6.427      2.880      5.242
REMARK INTER + INTRA:          -9.356
REMARK INTER:                  -8.444
REMARK INTRA:                  -0.912
REMARK UNBOUND:                -1.050
REMARK  Name = 
REMARK  8 active torsions:
REMARK  status: ('A' for Active; 'I' for Inactive)
REMARK    1  A    between atoms: C_1  and  C_2
REMARK    2  A    between atoms: C_4  and  N_5
REMARK    3  A    between atoms: N_5  and  C_6
REMARK    4  A    between atoms: C_6  and  C_7
REMARK    5  A    between atoms: C_11  and  C_12
REMARK    6  A    between atoms: C_20  and  C_21
REMARK    7  A    between atoms: N_23  and  C_24
REMARK    8  A    between atoms: N_23  and  C_25
REMARK                            x       y       z     vdW  Elec       q    Type
REMARK                         _______ _______ _______ _____ _____    ______ ____
ROOT
ATOM      1  N   UNL     1      48.467   7.185  15.427  0.00  0.00    +0.000 N 
ATOM      2  H   UNL     1      48.354   8.151  15.700  0.00  0.00    +0.000 HD
ENDROOT
BRANCH   1   6
ATOM      3  C   UNL     1      47.465   2.805  17.517  0.00  0.00    +0.000 C 
ATOM      4  C   UNL     1      48.039   4.189  17.538  0.00  0.00    +0.000 A 
ATOM      5  C   UNL     1      47.979   5.018  16.415  0.00  0.00    +0.000 A 
ATOM      6  C   UNL     1      48.496   6.310  16.475  0.00  0.00    +0.000 A 
ATOM      7  N   UNL     1      49.066   6.795  17.594  0.00  0.00    +0.000 NA
ATOM      8  C   UNL     1      49.149   5.983  18.676  0.00  0.00    +0.000 A 
ATOM      9  C   UNL     1      48.634   4.688  18.693  0.00  0.00    +0.000 A 
BRANCH   8  10
ATOM     10  C   UNL     1      49.766   6.505  19.940  0.00  0.00    +0.000 C 
ATOM     11  O   UNL     1      50.982   6.306  20.082  0.00  0.00    +0.000 OA
ATOM     12  N   UNL     1      49.033   7.193  20.916  0.00  0.00    +0.000 N 
ATOM     13  C   UNL     1      47.639   7.606  20.827  0.00  0.00    +0.000 C 
ATOM     14  C   UNL     1      49.725   7.629  22.119  0.00  0.00    +0.000 C 
ENDBRANCH   8  10
ENDBRANCH   1   6
BRANCH   1  15
ATOM     15  C   UNL     1      48.596   6.869  14.023  0.00  0.00    +0.000 C 
BRANCH  15  16
ATOM     16  C   UNL     1      47.332   7.100  13.224  0.00  0.00    +0.000 A 
ATOM     17  C   UNL     1      46.617   8.303  13.234  0.00  0.00    +0.000 A 
ATOM     18  C   UNL     1      45.448   8.437  12.488  0.00  0.00    +0.000 A 
ATOM     19  C   UNL     1      44.986   7.374  11.709  0.00  0.00    +0.000 A 
ATOM     20  C   UNL     1      45.688   6.159  11.638  0.00  0.00    +0.000 A 
ATOM     21  C   UNL     1      46.844   6.039  12.433  0.00  0.00    +0.000 A 
BRANCH  20  22
ATOM     22  C   UNL     1      45.286   5.084  10.700  0.00  0.00    +0.000 A 
ATOM     23  C   UNL     1      45.611   5.171   9.333  0.00  0.00    +0.000 A 
ATOM     24  C   UNL     1      45.321   4.134   8.442  0.00  0.00    +0.000 A 
ATOM     25  C   UNL     1      44.703   2.976   8.902  0.00  0.00    +0.000 A 
ATOM     26  C   UNL     1      44.357   2.866  10.246  0.00  0.00    +0.000 A 
ATOM     27  C   UNL     1      44.636   3.913  11.133  0.00  0.00    +0.000 A 
ENDBRANCH  20  22
ENDBRANCH  15  16
ENDBRANCH   1  15
TORSDOF 5
ENDMDL
