MODEL 1
REMARK VINA RESULT:    -8.214      0.000      0.000
REMARK INTER + INTRA:         -12.827
REMARK INTER:                 -11.575
REMARK INTRA:                  -1.252
REMARK UNBOUND:                -1.252
REMARK  Name = 
REMARK  10 active torsions:
REMARK  status: ('A' for Active; 'I' for Inactive)
REMARK    1  A    between atoms: C_1  and  C_2
REMARK    2  A    between atoms: C_2  and  C_3
REMARK    3  A    between atoms: C_2  and  N_24
REMARK    4  A    between atoms: C_6  and  C_7
REMARK    5  A    between atoms: C_7  and  N_8
REMARK    6  A    between atoms: N_8  and  C_9
REMARK    7  A    between atoms: C_10  and  C_12
REMARK    8  A    between atoms: N_24  and  C_25
REMARK    9  A    between atoms: N_24  and  C_26
REMARK   10  A    between atoms: C_26  and  C_27
REMARK                            x       y       z     vdW  Elec       q    Type
REMARK                         _______ _______ _______ _____ _____    ______ ____
ROOT
ATOM      1  C   UNL     1      45.590   5.710  11.920  0.00  0.00    +0.000 A 
ATOM      2  C   UNL     1      46.111   5.084  13.068  0.00  0.00    +0.000 A 
ATOM      3  C   UNL     1      47.303   5.514  13.658  0.00  0.00    +0.000 A 
ATOM      4  C   UNL     1      48.003   6.603  13.131  0.00  0.00    +0.000 A 
ATOM      5  C   UNL     1      47.501   7.219  11.973  0.00  0.00    +0.000 A 
ATOM      6  C   UNL     1      46.316   6.777  11.372  0.00  0.00    +0.000 A 
ENDROOT
BRANCH   1   8
ATOM      7  C   UNL     1      43.066   5.422  12.110  0.00  0.00    +0.000 C 
ATOM      8  C   UNL     1      44.315   5.206  11.232  0.00  0.00    +0.000 C 
BRANCH   8   9
ATOM      9  N   UNL     1      44.485   3.825  10.708  0.00  0.00    +0.000 NA
ATOM     10  C   UNL     1      43.614   2.843  11.363  0.00  0.00    +0.000 C 
BRANCH   9  11
ATOM     11  C   UNL     1      44.314   3.709   9.248  0.00  0.00    +0.000 C 
BRANCH  11  12
ATOM     12  C   UNL     1      45.442   3.013   8.518  0.00  0.00    +0.000 A 
ATOM     13  C   UNL     1      45.605   1.624   8.617  0.00  0.00    +0.000 A 
ATOM     14  C   UNL     1      46.575   0.969   7.856  0.00  0.00    +0.000 A 
ATOM     15  C   UNL     1      47.391   1.694   6.990  0.00  0.00    +0.000 A 
ATOM     16  C   UNL     1      47.250   3.077   6.896  0.00  0.00    +0.000 A 
ATOM     17  C   UNL     1      46.281   3.734   7.656  0.00  0.00    +0.000 A 
ENDBRANCH  11  12
ENDBRANCH   9  11
ENDBRANCH   8   9
ENDBRANCH   1   8
BRANCH   4  18
ATOM     18  C   UNL     1      49.210   7.164  13.844  0.00  0.00    +0.000 C 
BRANCH  18  19
ATOM     19  N   UNL     1      49.008   7.571  15.237  0.00  0.00    +0.000 N 
ATOM     20  C   UNL     1      48.184   8.749  15.456  0.00  0.00    +0.000 C 
ATOM     21  C   UNL     1      49.800   6.947  16.213  0.00  0.00    +0.000 C 
ATOM     22  O   UNL     1      50.594   6.062  15.906  0.00  0.00    +0.000 OA
BRANCH  21  23
ATOM     23  C   UNL     1      49.667   7.337  17.628  0.00  0.00    +0.000 A 
ATOM     24  C   UNL     1      50.318   8.407  18.222  0.00  0.00    +0.000 A 
ATOM     25  S   UNL     1      49.926   8.625  19.868  0.00  0.00    +0.000 S 
ATOM     26  C   UNL     1      48.758   7.393  19.808  0.00  0.00    +0.000 A 
ATOM     27  N   UNL     1      47.966   7.128  20.883  0.00  0.00    +0.000 NA
ATOM     28  C   UNL     1      47.080   6.212  20.672  0.00  0.00    +0.000 A 
ATOM     29  N   UNL     1      46.943   5.512  19.502  0.00  0.00    +0.000 N 
ATOM     30  C   UNL     1      47.818   5.642  18.442  0.00  0.00    +0.000 A 
ATOM     31  O   UNL     1      47.822   4.817  17.539  0.00  0.00    +0.000 OA
ATOM     32  C   UNL     1      48.745   6.753  18.581  0.00  0.00    +0.000 A 
ATOM     33  H   UNL     1      46.282   4.754  19.428  0.00  0.00    +0.000 HD
ENDBRANCH  21  23
ENDBRANCH  18  19
ENDBRANCH   4  18
TORSDOF 7
ENDMDL
MODEL 2
REMARK VINA RESULT:    -8.128      1.587      1.746
REMARK INTER + INTRA:         -12.707
REMARK INTER:                 -11.383
REMARK INTRA:                  -1.324
REMARK UNBOUND:                -1.252
REMARK  Name = 
REMARK  10 active torsions:
REMARK  status: ('A' for Active; 'I' for Inactive)
REMARK    1  A    between atoms: C_1  and  C_2
REMARK    2  A    between atoms: C_2  and  C_3
REMARK    3  A    between atoms: C_2  and  N_24
REMARK    4  A    between atoms: C_6  and  C_7
REMARK    5  A    between atoms: C_7  and  N_8
REMARK    6  A    between atoms: N_8  and  C_9
REMARK    7  A    between atoms: C_10  and  C_12
REMARK    8  A    between atoms: N_24  and  C_25
REMARK    9  A    between atoms: N_24  and  C_26
REMARK   10  A    between atoms: C_26  and  C_27
REMARK                            x       y       z     vdW  Elec       q    Type
REMARK                         _______ _______ _______ _____ _____    ______ ____
ROOT
ATOM      1  C   UNL     1      45.213   6.270  11.490  0.00  0.00    +0.000 A 
ATOM      2  C   UNL     1      46.581   6.200  11.169  0.00  0.00    +0.000 A 
ATOM      3  C   UNL     1      47.513   7.066  11.748  0.00  0.00    +0.000 A 
ATOM      4  C   UNL     1      47.109   8.018  12.688  0.00  0.00    +0.000 A 
ATOM      5  C   UNL     1      45.742   8.109  12.998  0.00  0.00    +0.000 A 
ATOM      6  C   UNL     1      44.805   7.252  12.404  0.00  0.00    +0.000 A 
ENDROOT
BRANCH   1   8
ATOM      7  C   UNL     1      42.760   5.590  11.383  0.00  0.00    +0.000 C 
ATOM      8  C   UNL     1      44.175   5.364  10.814  0.00  0.00    +0.000 C 
BRANCH   8   9
ATOM      9  N   UNL     1      44.623   3.945  10.786  0.00  0.00    +0.000 NA
ATOM     10  C   UNL     1      44.183   3.174  11.953  0.00  0.00    +0.000 C 
BRANCH   9  11
ATOM     11  C   UNL     1      44.237   3.217   9.564  0.00  0.00    +0.000 C 
BRANCH  11  12
ATOM     12  C   UNL     1      45.374   2.888   8.621  0.00  0.00    +0.000 A 
ATOM     13  C   UNL     1      45.842   1.572   8.500  0.00  0.00    +0.000 A 
ATOM     14  C   UNL     1      46.813   1.251   7.550  0.00  0.00    +0.000 A 
ATOM     15  C   UNL     1      47.326   2.240   6.712  0.00  0.00    +0.000 A 
ATOM     16  C   UNL     1      46.881   3.554   6.835  0.00  0.00    +0.000 A 
ATOM     17  C   UNL     1      45.910   3.878   7.785  0.00  0.00    +0.000 A 
ENDBRANCH  11  12
ENDBRANCH   9  11
ENDBRANCH   8   9
ENDBRANCH   1   8
BRANCH   4  18
ATOM     18  C   UNL     1      48.125   8.857  13.425  0.00  0.00    +0.000 C 
BRANCH  18  19
ATOM     19  N   UNL     1      48.494   8.398  14.766  0.00  0.00    +0.000 N 
ATOM     20  C   UNL     1      47.943   9.147  15.884  0.00  0.00    +0.000 C 
ATOM     21  C   UNL     1      49.515   7.439  14.862  0.00  0.00    +0.000 C 
ATOM     22  O   UNL     1      50.038   6.976  13.852  0.00  0.00    +0.000 OA
BRANCH  21  23
ATOM     23  C   UNL     1      49.954   6.962  16.185  0.00  0.00    +0.000 A 
ATOM     24  C   UNL     1      50.923   7.570  16.967  0.00  0.00    +0.000 A 
ATOM     25  S   UNL     1      51.181   6.799  18.468  0.00  0.00    +0.000 S 
ATOM     26  C   UNL     1      49.902   5.715  18.192  0.00  0.00    +0.000 A 
ATOM     27  N   UNL     1      49.516   4.831  19.151  0.00  0.00    +0.000 NA
ATOM     28  C   UNL     1      48.490   4.116  18.828  0.00  0.00    +0.000 A 
ATOM     29  N   UNL     1      47.843   4.179  17.621  0.00  0.00    +0.000 N 
ATOM     30  C   UNL     1      48.292   4.951  16.568  0.00  0.00    +0.000 A 
ATOM     31  O   UNL     1      47.852   4.774  15.440  0.00  0.00    +0.000 OA
ATOM     32  C   UNL     1      49.358   5.870  16.928  0.00  0.00    +0.000 A 
ATOM     33  H   UNL     1      47.096   3.538  17.402  0.00  0.00    +0.000 HD
ENDBRANCH  21  23
ENDBRANCH  18  19
ENDBRANCH   4  18
TORSDOF 7
ENDMDL
MODEL 3
REMARK VINA RESULT:    -7.829      1.304      2.022
REMARK INTER + INTRA:         -12.285
REMARK INTER:                 -11.022
REMARK INTRA:                  -1.263
REMARK UNBOUND:                -1.252
REMARK  Name = 
REMARK  10 active torsions:
REMARK  status: ('A' for Active; 'I' for Inactive)
REMARK    1  A    between atoms: C_1  and  C_2
REMARK    2  A    between atoms: C_2  and  C_3
REMARK    3  A    between atoms: C_2  and  N_24
REMARK    4  A    between atoms: C_6  and  C_7
REMARK    5  A    between atoms: C_7  and  N_8
REMARK    6  A    between atoms: N_8  and  C_9
REMARK    7  A    between atoms: C_10  and  C_12
REMARK    8  A    between atoms: N_24  and  C_25
REMARK    9  A    between atoms: N_24  and  C_26
REMARK   10  A    between atoms: C_26  and  C_27
REMARK                            x       y       z     vdW  Elec       q    Type
REMARK                         _______ _______ _______ _____ _____    ______ ____
ROOT
ATOM      1  C   UNL     1      45.567   5.613  11.889  0.00  0.00    +0.000 A 
ATOM      2  C   UNL     1      45.931   4.992  13.097  0.00  0.00    +0.000 A 
ATOM      3  C   UNL     1      47.085   5.365  13.792  0.00  0.00    +0.000 A 
ATOM      4  C   UNL     1      47.902   6.392  13.312  0.00  0.00    +0.000 A 
ATOM      5  C   UNL     1      47.556   7.003  12.094  0.00  0.00    +0.000 A 
ATOM      6  C   UNL     1      46.409   6.616  11.389  0.00  0.00    +0.000 A 
ENDROOT
BRANCH   1   8
ATOM      7  C   UNL     1      43.024   5.460  11.846  0.00  0.00    +0.000 C 
ATOM      8  C   UNL     1      44.335   5.167  11.089  0.00  0.00    +0.000 C 
BRANCH   8   9
ATOM      9  N   UNL     1      44.478   3.772  10.595  0.00  0.00    +0.000 NA
ATOM     10  C   UNL     1      43.570   2.826  11.252  0.00  0.00    +0.000 C 
BRANCH   9  11
ATOM     11  C   UNL     1      44.331   3.632   9.135  0.00  0.00    +0.000 C 
BRANCH  11  12
ATOM     12  C   UNL     1      45.498   2.978   8.427  0.00  0.00    +0.000 A 
ATOM     13  C   UNL     1      45.703   1.594   8.518  0.00  0.00    +0.000 A 
ATOM     14  C   UNL     1      46.712   0.977   7.776  0.00  0.00    +0.000 A 
ATOM     15  C   UNL     1      47.525   1.736   6.937  0.00  0.00    +0.000 A 
ATOM     16  C   UNL     1      47.343   3.115   6.851  0.00  0.00    +0.000 A 
ATOM     17  C   UNL     1      46.335   3.734   7.593  0.00  0.00    +0.000 A 
ENDBRANCH  11  12
ENDBRANCH   9  11
ENDBRANCH   8   9
ENDBRANCH   1   8
BRANCH   4  18
ATOM     18  C   UNL     1      49.067   6.900  14.128  0.00  0.00    +0.000 C 
BRANCH  18  19
ATOM     19  N   UNL     1      48.757   7.351  15.486  0.00  0.00    +0.000 N 
ATOM     20  C   UNL     1      48.326   8.732  15.631  0.00  0.00    +0.000 C 
ATOM     21  C   UNL     1      49.120   6.504  16.546  0.00  0.00    +0.000 C 
ATOM     22  O   UNL     1      49.633   5.409  16.327  0.00  0.00    +0.000 OA
BRANCH  21  23
ATOM     23  C   UNL     1      48.866   6.916  17.938  0.00  0.00    +0.000 A 
ATOM     24  C   UNL     1      47.768   6.534  18.691  0.00  0.00    +0.000 A 
ATOM     25  S   UNL     1      47.778   7.146  20.284  0.00  0.00    +0.000 S 
ATOM     26  C   UNL     1      49.325   7.817  20.073  0.00  0.00    +0.000 A 
ATOM     27  N   UNL     1      49.976   8.412  21.110  0.00  0.00    +0.000 NA
ATOM     28  C   UNL     1      51.167   8.817  20.821  0.00  0.00    +0.000 A 
ATOM     29  N   UNL     1      51.748   8.719  19.583  0.00  0.00    +0.000 N 
ATOM     30  C   UNL     1      51.071   8.262  18.470  0.00  0.00    +0.000 A 
ATOM     31  O   UNL     1      51.529   8.442  17.350  0.00  0.00    +0.000 OA
ATOM     32  C   UNL     1      49.778   7.671  18.773  0.00  0.00    +0.000 A 
ATOM     33  H   UNL     1      52.653   9.126  19.403  0.00  0.00    +0.000 HD
ENDBRANCH  21  23
ENDBRANCH  18  19
ENDBRANCH   4  18
TORSDOF 7
ENDMDL
MODEL 4
REMARK VINA RESULT:    -7.261      3.198      3.746
REMARK INTER + INTRA:         -11.485
REMARK INTER:                 -10.932
REMARK INTRA:                  -0.553
REMARK UNBOUND:                -1.252
REMARK  Name = 
REMARK  10 active torsions:
REMARK  status: ('A' for Active; 'I' for Inactive)
REMARK    1  A    between atoms: C_1  and  C_2
REMARK    2  A    between atoms: C_2  and  C_3
REMARK    3  A    between atoms: C_2  and  N_24
REMARK    4  A    between atoms: C_6  and  C_7
REMARK    5  A    between atoms: C_7  and  N_8
REMARK    6  A    between atoms: N_8  and  C_9
REMARK    7  A    between atoms: C_10  and  C_12
REMARK    8  A    between atoms: N_24  and  C_25
REMARK    9  A    between atoms: N_24  and  C_26
REMARK   10  A    between atoms: C_26  and  C_27
REMARK                            x       y       z     vdW  Elec       q    Type
REMARK                         _______ _______ _______ _____ _____    ______ ____
ROOT
ATOM      1  C   UNL     1      46.752   6.280  12.872  0.00  0.00    +0.000 A 
ATOM      2  C   UNL     1      47.024   5.270  13.812  0.00  0.00    +0.000 A 
ATOM      3  C   UNL     1      47.764   5.529  14.970  0.00  0.00    +0.000 A 
ATOM      4  C   UNL     1      48.237   6.817  15.236  0.00  0.00    +0.000 A 
ATOM      5  C   UNL     1      47.987   7.826  14.291  0.00  0.00    +0.000 A 
ATOM      6  C   UNL     1      47.261   7.562  13.123  0.00  0.00    +0.000 A 
ENDROOT
BRANCH   1   8
ATOM      7  C   UNL     1      45.253   7.238  11.048  0.00  0.00    +0.000 C 
ATOM      8  C   UNL     1      45.993   5.990  11.569  0.00  0.00    +0.000 C 
BRANCH   8   9
ATOM      9  N   UNL     1      45.158   4.764  11.684  0.00  0.00    +0.000 NA
ATOM     10  C   UNL     1      44.289   4.762  12.866  0.00  0.00    +0.000 C 
BRANCH   9  11
ATOM     11  C   UNL     1      44.337   4.482  10.493  0.00  0.00    +0.000 C 
BRANCH  11  12
ATOM     12  C   UNL     1      45.043   3.731   9.385  0.00  0.00    +0.000 A 
ATOM     13  C   UNL     1      45.709   4.425   8.364  0.00  0.00    +0.000 A 
ATOM     14  C   UNL     1      46.453   3.734   7.406  0.00  0.00    +0.000 A 
ATOM     15  C   UNL     1      46.538   2.344   7.457  0.00  0.00    +0.000 A 
ATOM     16  C   UNL     1      45.866   1.642   8.456  0.00  0.00    +0.000 A 
ATOM     17  C   UNL     1      45.122   2.331   9.415  0.00  0.00    +0.000 A 
ENDBRANCH  11  12
ENDBRANCH   9  11
ENDBRANCH   8   9
ENDBRANCH   1   8
BRANCH   4  18
ATOM     18  C   UNL     1      48.909   7.138  16.550  0.00  0.00    +0.000 C 
BRANCH  18  19
ATOM     19  N   UNL     1      50.170   6.445  16.818  0.00  0.00    +0.000 N 
ATOM     20  C   UNL     1      51.277   6.740  15.922  0.00  0.00    +0.000 C 
ATOM     21  C   UNL     1      50.145   5.395  17.751  0.00  0.00    +0.000 C 
ATOM     22  O   UNL     1      49.110   5.111  18.348  0.00  0.00    +0.000 OA
BRANCH  21  23
ATOM     23  C   UNL     1      51.375   4.637  18.038  0.00  0.00    +0.000 A 
ATOM     24  C   UNL     1      52.485   5.143  18.695  0.00  0.00    +0.000 A 
ATOM     25  S   UNL     1      53.737   4.003  18.911  0.00  0.00    +0.000 S 
ATOM     26  C   UNL     1      52.782   2.753  18.270  0.00  0.00    +0.000 A 
ATOM     27  N   UNL     1      53.230   1.468  18.259  0.00  0.00    +0.000 NA
ATOM     28  C   UNL     1      52.373   0.615  17.804  0.00  0.00    +0.000 A 
ATOM     29  N   UNL     1      51.130   0.936  17.324  0.00  0.00    +0.000 N 
ATOM     30  C   UNL     1      50.695   2.238  17.177  0.00  0.00    +0.000 A 
ATOM     31  O   UNL     1      49.705   2.488  16.503  0.00  0.00    +0.000 OA
ATOM     32  C   UNL     1      51.567   3.220  17.799  0.00  0.00    +0.000 A 
ATOM     33  H   UNL     1      50.538   0.232  16.910  0.00  0.00    +0.000 HD
ENDBRANCH  21  23
ENDBRANCH  18  19
ENDBRANCH   4  18
TORSDOF 7
ENDMDL
MODEL 5
REMARK VINA RESULT:    -7.174      4.081      6.165
REMARK INTER + INTRA:         -11.362
REMARK INTER:                 -10.150
REMARK INTRA:                  -1.212
REMARK UNBOUND:                -1.252
REMARK  Name = 
REMARK  10 active torsions:
REMARK  status: ('A' for Active; 'I' for Inactive)
REMARK    1  A    between atoms: C_1  and  C_2
REMARK    2  A    between atoms: C_2  and  C_3
REMARK    3  A    between atoms: C_2  and  N_24
REMARK    4  A    between atoms: C_6  and  C_7
REMARK    5  A    between atoms: C_7  and  N_8
REMARK    6  A    between atoms: N_8  and  C_9
REMARK    7  A    between atoms: C_10  and  C_12
REMARK    8  A    between atoms: N_24  and  C_25
REMARK    9  A    between atoms: N_24  and  C_26
REMARK   10  A    between atoms: C_26  and  C_27
REMARK                            x       y       z     vdW  Elec       q    Type
REMARK                         _______ _______ _______ _____ _____    ______ ____
ROOT
ATOM      1  C   UNL     1      45.355   5.775  12.202  0.00  0.00    +0.000 A 
ATOM      2  C   UNL     1      46.311   5.031  12.918  0.00  0.00    +0.000 A 
ATOM      3  C   UNL     1      47.550   5.576  13.267  0.00  0.00    +0.000 A 
ATOM      4  C   UNL     1      47.865   6.896  12.931  0.00  0.00    +0.000 A 
ATOM      5  C   UNL     1      46.924   7.638  12.197  0.00  0.00    +0.000 A 
ATOM      6  C   UNL     1      45.690   7.086  11.832  0.00  0.00    +0.000 A 
ENDROOT
BRANCH   1   8
ATOM      7  C   UNL     1      43.011   5.091  12.928  0.00  0.00    +0.000 C 
ATOM      8  C   UNL     1      44.017   5.165  11.762  0.00  0.00    +0.000 C 
BRANCH   8   9
ATOM      9  N   UNL     1      44.215   3.891  11.019  0.00  0.00    +0.000 NA
ATOM     10  C   UNL     1      43.397   2.787  11.532  0.00  0.00    +0.000 C 
BRANCH   9  11
ATOM     11  C   UNL     1      44.000   4.004   9.566  0.00  0.00    +0.000 C 
BRANCH  11  12
ATOM     12  C   UNL     1      45.042   3.324   8.704  0.00  0.00    +0.000 A 
ATOM     13  C   UNL     1      45.861   4.075   7.848  0.00  0.00    +0.000 A 
ATOM     14  C   UNL     1      46.895   3.462   7.139  0.00  0.00    +0.000 A 
ATOM     15  C   UNL     1      47.121   2.094   7.275  0.00  0.00    +0.000 A 
ATOM     16  C   UNL     1      46.303   1.334   8.109  0.00  0.00    +0.000 A 
ATOM     17  C   UNL     1      45.268   1.945   8.820  0.00  0.00    +0.000 A 
ENDBRANCH  11  12
ENDBRANCH   9  11
ENDBRANCH   8   9
ENDBRANCH   1   8
BRANCH   4  18
ATOM     18  C   UNL     1      49.138   7.538  13.429  0.00  0.00    +0.000 C 
BRANCH  18  19
ATOM     19  N   UNL     1      49.840   8.403  12.479  0.00  0.00    +0.000 N 
ATOM     20  C   UNL     1      50.461   7.748  11.339  0.00  0.00    +0.000 C 
ATOM     21  C   UNL     1      50.057   9.737  12.859  0.00  0.00    +0.000 C 
ATOM     22  O   UNL     1      49.627  10.163  13.928  0.00  0.00    +0.000 OA
BRANCH  21  23
ATOM     23  C   UNL     1      50.787  10.649  11.961  0.00  0.00    +0.000 A 
ATOM     24  C   UNL     1      52.157  10.855  11.982  0.00  0.00    +0.000 A 
ATOM     25  S   UNL     1      52.709  11.944  10.788  0.00  0.00    +0.000 S 
ATOM     26  C   UNL     1      51.159  12.062  10.104  0.00  0.00    +0.000 A 
ATOM     27  N   UNL     1      50.952  12.774   8.963  0.00  0.00    +0.000 NA
ATOM     28  C   UNL     1      49.739  12.721   8.521  0.00  0.00    +0.000 A 
ATOM     29  N   UNL     1      48.711  12.057   9.138  0.00  0.00    +0.000 N 
ATOM     30  C   UNL     1      48.841  11.450  10.371  0.00  0.00    +0.000 A 
ATOM     31  O   UNL     1      47.850  11.110  11.001  0.00  0.00    +0.000 OA
ATOM     32  C   UNL     1      50.215  11.367  10.840  0.00  0.00    +0.000 A 
ATOM     33  H   UNL     1      47.769  12.119   8.783  0.00  0.00    +0.000 HD
ENDBRANCH  21  23
ENDBRANCH  18  19
ENDBRANCH   4  18
TORSDOF 7
ENDMDL
MODEL 6
REMARK VINA RESULT:    -7.061      3.853      5.505
REMARK INTER + INTRA:         -11.203
REMARK INTER:                 -10.221
REMARK INTRA:                  -0.982
REMARK UNBOUND:                -1.252
REMARK  Name = 
REMARK  10 active torsions:
REMARK  status: ('A' for Active; 'I' for Inactive)
REMARK    1  A    between atoms: C_1  and  C_2
REMARK    2  A    between atoms: C_2  and  C_3
REMARK    3  A    between atoms: C_2  and  N_24
REMARK    4  A    between atoms: C_6  and  C_7
REMARK    5  A    between atoms: C_7  and  N_8
REMARK    6  A    between atoms: N_8  and  C_9
REMARK    7  A    between atoms: C_10  and  C_12
REMARK    8  A    between atoms: N_24  and  C_25
REMARK    9  A    between atoms: N_24  and  C_26
REMARK   10  A    between atoms: C_26  and  C_27
REMARK                            x       y       z     vdW  Elec       q    Type
REMARK                         _______ _______ _______ _____ _____    ______ ____
ROOT
ATOM      1  C   UNL     1      45.176   6.125  11.630  0.00  0.00    +0.000 A 
ATOM      2  C   UNL     1      44.783   7.456  11.860  0.00  0.00    +0.000 A 
ATOM      3  C   UNL     1      45.557   8.322  12.638  0.00  0.00    +0.000 A 
ATOM      4  C   UNL     1      46.765   7.890  13.193  0.00  0.00    +0.000 A 
ATOM      5  C   UNL     1      47.153   6.556  12.985  0.00  0.00    +0.000 A 
ATOM      6  C   UNL     1      46.368   5.683  12.220  0.00  0.00    +0.000 A 
ENDROOT
BRANCH   1   8
ATOM      7  C   UNL     1      42.817   5.247  11.231  0.00  0.00    +0.000 C 
ATOM      8  C   UNL     1      44.302   5.151  10.827  0.00  0.00    +0.000 C 
BRANCH   8   9
ATOM      9  N   UNL     1      44.869   3.776  10.834  0.00  0.00    +0.000 NA
ATOM     10  C   UNL     1      44.601   3.042  12.075  0.00  0.00    +0.000 C 
BRANCH   9  11
ATOM     11  C   UNL     1      44.444   2.945   9.693  0.00  0.00    +0.000 C 
BRANCH  11  12
ATOM     12  C   UNL     1      45.492   2.735   8.621  0.00  0.00    +0.000 A 
ATOM     13  C   UNL     1      46.048   1.466   8.406  0.00  0.00    +0.000 A 
ATOM     14  C   UNL     1      46.930   1.250   7.345  0.00  0.00    +0.000 A 
ATOM     15  C   UNL     1      47.265   2.299   6.490  0.00  0.00    +0.000 A 
ATOM     16  C   UNL     1      46.731   3.568   6.704  0.00  0.00    +0.000 A 
ATOM     17  C   UNL     1      45.850   3.786   7.764  0.00  0.00    +0.000 A 
ENDBRANCH  11  12
ENDBRANCH   9  11
ENDBRANCH   8   9
ENDBRANCH   1   8
BRANCH   4  18
ATOM     18  C   UNL     1      47.676   8.857  13.911  0.00  0.00    +0.000 C 
BRANCH  18  19
ATOM     19  N   UNL     1      48.759   9.439  13.114  0.00  0.00    +0.000 N 
ATOM     20  C   UNL     1      48.375  10.074  11.863  0.00  0.00    +0.000 C 
ATOM     21  C   UNL     1      50.076   9.135  13.495  0.00  0.00    +0.000 C 
ATOM     22  O   UNL     1      50.300   8.448  14.488  0.00  0.00    +0.000 OA
BRANCH  21  23
ATOM     23  C   UNL     1      51.208   9.663  12.712  0.00  0.00    +0.000 A 
ATOM     24  C   UNL     1      51.946  10.788  13.043  0.00  0.00    +0.000 A 
ATOM     25  S   UNL     1      53.220  11.120  11.957  0.00  0.00    +0.000 S 
ATOM     26  C   UNL     1      52.926   9.688  11.091  0.00  0.00    +0.000 A 
ATOM     27  N   UNL     1      53.744   9.308  10.072  0.00  0.00    +0.000 NA
ATOM     28  C   UNL     1      53.439   8.167   9.549  0.00  0.00    +0.000 A 
ATOM     29  N   UNL     1      52.371   7.396   9.925  0.00  0.00    +0.000 N 
ATOM     30  C   UNL     1      51.431   7.812  10.847  0.00  0.00    +0.000 A 
ATOM     31  O   UNL     1      50.365   7.223  10.953  0.00  0.00    +0.000 OA
ATOM     32  C   UNL     1      51.805   9.023  11.558  0.00  0.00    +0.000 A 
ATOM     33  H   UNL     1      52.141   6.551   9.424  0.00  0.00    +0.000 HD
ENDBRANCH  21  23
ENDBRANCH  18  19
ENDBRANCH   4  18
TORSDOF 7
ENDMDL
MODEL 7
REMARK VINA RESULT:    -6.777      4.216      6.065
REMARK INTER + INTRA:         -10.803
REMARK INTER:                  -9.576
REMARK INTRA:                  -1.227
REMARK UNBOUND:                -1.252
REMARK  Name = 
REMARK  10 active torsions:
REMARK  status: ('A' for Active; 'I' for Inactive)
REMARK    1  A    between atoms: C_1  and  C_2
REMARK    2  A    between atoms: C_2  and  C_3
REMARK    3  A    between atoms: C_2  and  N_24
REMARK    4  A    between atoms: C_6  and  C_7
REMARK    5  A    between atoms: C_7  and  N_8
REMARK    6  A    between atoms: N_8  and  C_9
REMARK    7  A    between atoms: C_10  and  C_12
REMARK    8  A    between atoms: N_24  and  C_25
REMARK    9  A    between atoms: N_24  and  C_26
REMARK   10  A    between atoms: C_26  and  C_27
REMARK                            x       y       z     vdW  Elec       q    Type
REMARK                         _______ _______ _______ _____ _____    ______ ____
ROOT
ATOM      1  C   UNL     1      45.364   5.828  12.183  0.00  0.00    +0.000 A 
ATOM      2  C   UNL     1      46.323   5.108  12.919  0.00  0.00    +0.000 A 
ATOM      3  C   UNL     1      47.564   5.663  13.243  0.00  0.00    +0.000 A 
ATOM      4  C   UNL     1      47.879   6.970  12.860  0.00  0.00    +0.000 A 
ATOM      5  C   UNL     1      46.935   7.688  12.106  0.00  0.00    +0.000 A 
ATOM      6  C   UNL     1      45.698   7.125  11.767  0.00  0.00    +0.000 A 
ENDROOT
BRANCH   1   8
ATOM      7  C   UNL     1      43.016   5.192  12.938  0.00  0.00    +0.000 C 
ATOM      8  C   UNL     1      44.024   5.205  11.771  0.00  0.00    +0.000 C 
BRANCH   8   9
ATOM      9  N   UNL     1      44.215   3.896  11.090  0.00  0.00    +0.000 NA
ATOM     10  C   UNL     1      43.452   2.804  11.703  0.00  0.00    +0.000 C 
BRANCH   9  11
ATOM     11  C   UNL     1      43.926   3.922   9.645  0.00  0.00    +0.000 C 
BRANCH  11  12
ATOM     12  C   UNL     1      44.982   3.294   8.763  0.00  0.00    +0.000 A 
ATOM     13  C   UNL     1      45.771   4.088   7.918  0.00  0.00    +0.000 A 
ATOM     14  C   UNL     1      46.819   3.522   7.189  0.00  0.00    +0.000 A 
ATOM     15  C   UNL     1      47.087   2.158   7.295  0.00  0.00    +0.000 A 
ATOM     16  C   UNL     1      46.299   1.356   8.118  0.00  0.00    +0.000 A 
ATOM     17  C   UNL     1      45.251   1.920   8.847  0.00  0.00    +0.000 A 
ENDBRANCH  11  12
ENDBRANCH   9  11
ENDBRANCH   8   9
ENDBRANCH   1   8
BRANCH   4  18
ATOM     18  C   UNL     1      49.155   7.628  13.330  0.00  0.00    +0.000 C 
BRANCH  18  19
ATOM     19  N   UNL     1      49.930   8.338  12.309  0.00  0.00    +0.000 N 
ATOM     20  C   UNL     1      50.474   7.531  11.229  0.00  0.00    +0.000 C 
ATOM     21  C   UNL     1      50.278   9.672  12.575  0.00  0.00    +0.000 C 
ATOM     22  O   UNL     1      49.901  10.226  13.604  0.00  0.00    +0.000 OA
BRANCH  21  23
ATOM     23  C   UNL     1      51.087  10.429  11.603  0.00  0.00    +0.000 A 
ATOM     24  C   UNL     1      50.576  11.292  10.647  0.00  0.00    +0.000 A 
ATOM     25  S   UNL     1      51.771  12.051   9.694  0.00  0.00    +0.000 S 
ATOM     26  C   UNL     1      53.020  11.368  10.623  0.00  0.00    +0.000 A 
ATOM     27  N   UNL     1      54.320  11.699  10.395  0.00  0.00    +0.000 NA
ATOM     28  C   UNL     1      55.154  11.156  11.219  0.00  0.00    +0.000 A 
ATOM     29  N   UNL     1      54.810  10.286  12.219  0.00  0.00    +0.000 N 
ATOM     30  C   UNL     1      53.526   9.807  12.390  0.00  0.00    +0.000 A 
ATOM     31  O   UNL     1      53.316   8.840  13.109  0.00  0.00    +0.000 OA
ATOM     32  C   UNL     1      52.534  10.491  11.576  0.00  0.00    +0.000 A 
ATOM     33  H   UNL     1      55.518   9.836  12.779  0.00  0.00    +0.000 HD
ENDBRANCH  21  23
ENDBRANCH  18  19
ENDBRANCH   4  18
TORSDOF 7
ENDMDL
MODEL 8
REMARK VINA RESULT:    -6.761      1.699      2.912
REMARK INTER + INTRA:         -10.780
REMARK INTER:                  -9.499
REMARK INTRA:                  -1.280
REMARK UNBOUND:                -1.252
REMARK  Name = 
REMARK  10 active torsions:
REMARK  status: ('A' for Active; 'I' for Inactive)
REMARK    1  A    between atoms: C_1  and  C_2
REMARK    2  A    between atoms: C_2  and  C_3
REMARK    3  A    between atoms: C_2  and  N_24
REMARK    4  A    between atoms: C_6  and  C_7
REMARK    5  A    between atoms: C_7  and  N_8
REMARK    6  A    between atoms: N_8  and  C_9
REMARK    7  A    between atoms: C_10  and  C_12
REMARK    8  A    between atoms: N_24  and  C_25
REMARK    9  A    between atoms: N_24  and  C_26
REMARK   10  A    between atoms: C_26  and  C_27
REMARK                            x       y       z     vdW  Elec       q    Type
REMARK                         _______ _______ _______ _____ _____    ______ ____
ROOT
ATOM      1  C   UNL     1      46.264   5.080  12.760  0.00  0.00    +0.000 A 
ATOM      2  C   UNL     1      46.941   6.004  13.576  0.00  0.00    +0.000 A 
ATOM      3  C   UNL     1      47.555   5.614  14.769  0.00  0.00    +0.000 A 
ATOM      4  C   UNL     1      47.531   4.276  15.175  0.00  0.00    +0.000 A 
ATOM      5  C   UNL     1      46.837   3.351  14.377  0.00  0.00    +0.000 A 
ATOM      6  C   UNL     1      46.208   3.747  13.190  0.00  0.00    +0.000 A 
ENDROOT
BRANCH   1   8
ATOM      7  C   UNL     1      45.294   7.034  11.444  0.00  0.00    +0.000 C 
ATOM      8  C   UNL     1      45.536   5.512  11.480  0.00  0.00    +0.000 C 
BRANCH   8   9
ATOM      9  N   UNL     1      44.331   4.677  11.227  0.00  0.00    +0.000 NA
ATOM     10  C   UNL     1      43.155   5.108  11.991  0.00  0.00    +0.000 C 
BRANCH   9  11
ATOM     11  C   UNL     1      43.958   4.573   9.805  0.00  0.00    +0.000 C 
BRANCH  11  12
ATOM     12  C   UNL     1      44.881   3.726   8.955  0.00  0.00    +0.000 A 
ATOM     13  C   UNL     1      45.742   4.324   8.024  0.00  0.00    +0.000 A 
ATOM     14  C   UNL     1      46.671   3.554   7.322  0.00  0.00    +0.000 A 
ATOM     15  C   UNL     1      46.748   2.180   7.541  0.00  0.00    +0.000 A 
ATOM     16  C   UNL     1      45.886   1.572   8.452  0.00  0.00    +0.000 A 
ATOM     17  C   UNL     1      44.956   2.340   9.155  0.00  0.00    +0.000 A 
ENDBRANCH  11  12
ENDBRANCH   9  11
ENDBRANCH   8   9
ENDBRANCH   1   8
BRANCH   4  18
ATOM     18  C   UNL     1      48.313   3.820  16.384  0.00  0.00    +0.000 C 
BRANCH  18  19
ATOM     19  N   UNL     1      48.441   4.789  17.475  0.00  0.00    +0.000 N 
ATOM     20  C   UNL     1      47.243   5.048  18.259  0.00  0.00    +0.000 C 
ATOM     21  C   UNL     1      49.619   5.551  17.526  0.00  0.00    +0.000 C 
ATOM     22  O   UNL     1      50.521   5.369  16.713  0.00  0.00    +0.000 OA
BRANCH  21  23
ATOM     23  C   UNL     1      49.793   6.566  18.580  0.00  0.00    +0.000 A 
ATOM     24  C   UNL     1      50.309   6.321  19.843  0.00  0.00    +0.000 A 
ATOM     25  S   UNL     1      50.421   7.712  20.825  0.00  0.00    +0.000 S 
ATOM     26  C   UNL     1      49.926   8.718  19.548  0.00  0.00    +0.000 A 
ATOM     27  N   UNL     1      49.905  10.071  19.692  0.00  0.00    +0.000 NA
ATOM     28  C   UNL     1      49.573  10.710  18.621  0.00  0.00    +0.000 A 
ATOM     29  N   UNL     1      49.222  10.120  17.435  0.00  0.00    +0.000 N 
ATOM     30  C   UNL     1      49.085   8.753  17.288  0.00  0.00    +0.000 A 
ATOM     31  O   UNL     1      48.516   8.291  16.309  0.00  0.00    +0.000 OA
ATOM     32  C   UNL     1      49.578   7.991  18.423  0.00  0.00    +0.000 A 
ATOM     33  H   UNL     1      48.897  10.674  16.657  0.00  0.00    +0.000 HD
ENDBRANCH  21  23
ENDBRANCH  18  19
ENDBRANCH   4  18
TORSDOF 7
ENDMDL
MODEL 9
REMARK VINA RESULT:    -6.425      3.824      8.301
REMARK INTER + INTRA:         -10.306
REMARK INTER:                  -8.412
REMARK INTRA:                  -1.894
REMARK UNBOUND:                -1.252
REMARK  Name = 
REMARK  10 active torsions:
REMARK  status: ('A' for Active; 'I' for Inactive)
REMARK    1  A    between atoms: C_1  and  C_2
REMARK    2  A    between atoms: C_2  and  C_3
REMARK    3  A    between atoms: C_2  and  N_24
REMARK    4  A    between atoms: C_6  and  C_7
REMARK    5  A    between atoms: C_7  and  N_8
REMARK    6  A    between atoms: N_8  and  C_9
REMARK    7  A    between atoms: C_10  and  C_12
REMARK    8  A    between atoms: N_24  and  C_25
REMARK    9  A    between atoms: N_24  and  C_26
REMARK   10  A    between atoms: C_26  and  C_27
REMARK                            x       y       z     vdW  Elec       q    Type
REMARK                         _______ _______ _______ _____ _____    ______ ____
ROOT
ATOM      1  C   UNL     1      52.286   6.544  16.675  0.00  0.00    +0.000 A 
ATOM      2  C   UNL     1      50.883   6.619  16.742  0.00  0.00    +0.000 A 
ATOM      3  C   UNL     1      50.146   7.369  15.821  0.00  0.00    +0.000 A 
ATOM      4  C   UNL     1      50.790   8.052  14.784  0.00  0.00    +0.000 A 
ATOM      5  C   UNL     1      52.192   7.999  14.724  0.00  0.00    +0.000 A 
ATOM      6  C   UNL     1      52.931   7.262  15.658  0.00  0.00    +0.000 A 
ENDROOT
BRANCH   1   8
ATOM      7  C   UNL     1      54.553   6.297  17.811  0.00  0.00    +0.000 C 
ATOM      8  C   UNL     1      53.106   5.772  17.718  0.00  0.00    +0.000 C 
BRANCH   8   9
ATOM      9  N   UNL     1      52.980   4.302  17.533  0.00  0.00    +0.000 NA
ATOM     10  C   UNL     1      54.269   3.602  17.550  0.00  0.00    +0.000 C 
BRANCH   9  11
ATOM     11  C   UNL     1      52.075   3.650  18.497  0.00  0.00    +0.000 C 
BRANCH  11  12
ATOM     12  C   UNL     1      50.666   3.411  18.001  0.00  0.00    +0.000 A 
ATOM     13  C   UNL     1      50.410   2.445  17.017  0.00  0.00    +0.000 A 
ATOM     14  C   UNL     1      49.099   2.148  16.640  0.00  0.00    +0.000 A 
ATOM     15  C   UNL     1      48.031   2.812  17.242  0.00  0.00    +0.000 A 
ATOM     16  C   UNL     1      48.274   3.786  18.209  0.00  0.00    +0.000 A 
ATOM     17  C   UNL     1      49.584   4.085  18.586  0.00  0.00    +0.000 A 
ENDBRANCH  11  12
ENDBRANCH   9  11
ENDBRANCH   8   9
ENDBRANCH   1   8
BRANCH   4  18
ATOM     18  C   UNL     1      49.995   8.743  13.702  0.00  0.00    +0.000 C 
BRANCH  18  19
ATOM     19  N   UNL     1      48.957   7.942  13.050  0.00  0.00    +0.000 N 
ATOM     20  C   UNL     1      49.346   7.234  11.840  0.00  0.00    +0.000 C 
ATOM     21  C   UNL     1      47.637   8.105  13.499  0.00  0.00    +0.000 C 
ATOM     22  O   UNL     1      47.381   8.857  14.436  0.00  0.00    +0.000 OA
BRANCH  21  23
ATOM     23  C   UNL     1      46.543   7.352  12.860  0.00  0.00    +0.000 A 
ATOM     24  C   UNL     1      45.649   7.877  11.941  0.00  0.00    +0.000 A 
ATOM     25  S   UNL     1      44.520   6.741  11.352  0.00  0.00    +0.000 S 
ATOM     26  C   UNL     1      45.281   5.472  12.187  0.00  0.00    +0.000 A 
ATOM     27  N   UNL     1      44.866   4.185  12.031  0.00  0.00    +0.000 NA
ATOM     28  C   UNL     1      45.577   3.320  12.674  0.00  0.00    +0.000 A 
ATOM     29  N   UNL     1      46.636   3.629  13.487  0.00  0.00    +0.000 N 
ATOM     30  C   UNL     1      46.996   4.927  13.792  0.00  0.00    +0.000 A 
ATOM     31  O   UNL     1      47.760   5.156  14.719  0.00  0.00    +0.000 OA
ATOM     32  C   UNL     1      46.313   5.927  12.989  0.00  0.00    +0.000 A 
ATOM     33  H   UNL     1      47.102   2.913  14.024  0.00  0.00    +0.000 HD
ENDBRANCH  21  23
ENDBRANCH  18  19
ENDBRANCH   4  18
TORSDOF 7
ENDMDL
