MODEL 1
REMARK VINA RESULT:    -8.484      0.000      0.000
REMARK INTER + INTRA:         -13.066
REMARK INTER:                 -11.956
REMARK INTRA:                  -1.110
REMARK UNBOUND:                -1.110
REMARK  Name = 
REMARK  9 active torsions:
REMARK  status: ('A' for Active; 'I' for Inactive)
REMARK    1  A    between atoms: C_1  and  C_2
REMARK    2  A    between atoms: C_2  and  C_3
REMARK    3  A    between atoms: C_2  and  C_14
REMARK    4  A    between atoms: C_3  and  O_4
REMARK    5  A    between atoms: O_4  and  C_5
REMARK    6  A    between atoms: C_8  and  C_9
REMARK    7  A    between atoms: C_18  and  O_19
REMARK    8  A    between atoms: O_19  and  C_20
REMARK    9  A    between atoms: N_22  and  C_23
REMARK                            x       y       z     vdW  Elec       q    Type
REMARK                         _______ _______ _______ _____ _____    ______ ____
ROOT
ATOM      1  C   UNL     1      42.555   5.401  12.170  0.00  0.00    +0.000 C 
ATOM      2  C   UNL     1      43.582   4.315  12.505  0.00  0.00    +0.000 C 
ENDROOT
BRANCH   2   3
ATOM      3  C   UNL     1      44.974   4.903  12.697  0.00  0.00    +0.000 A 
ATOM      4  C   UNL     1      45.384   6.024  11.968  0.00  0.00    +0.000 A 
ATOM      5  C   UNL     1      46.631   6.610  12.212  0.00  0.00    +0.000 A 
ATOM      6  C   UNL     1      47.483   6.087  13.189  0.00  0.00    +0.000 A 
ATOM      7  C   UNL     1      47.093   4.963  13.910  0.00  0.00    +0.000 A 
ATOM      8  C   UNL     1      45.851   4.378  13.661  0.00  0.00    +0.000 A 
BRANCH   7   9
ATOM      9  O   UNL     1      47.812   4.381  14.921  0.00  0.00    +0.000 OA
BRANCH   9  10
ATOM     10  C   UNL     1      47.753   4.950  16.248  0.00  0.00    +0.000 C 
ATOM     11  C   UNL     1      49.067   5.044  17.051  0.00  0.00    +0.000 C 
ATOM     12  N   UNL     1      48.460   4.304  18.172  0.00  0.00    +0.000 NA
ATOM     13  C   UNL     1      48.085   5.213  19.252  0.00  0.00    +0.000 C 
ATOM     14  C   UNL     1      47.287   3.969  17.347  0.00  0.00    +0.000 C 
ENDBRANCH   9  10
ENDBRANCH   7   9
ENDBRANCH   2   3
BRANCH   2  15
ATOM     15  C   UNL     1      43.646   3.202  11.439  0.00  0.00    +0.000 C 
BRANCH  15  16
ATOM     16  O   UNL     1      43.454   3.712  10.116  0.00  0.00    +0.000 OA
BRANCH  16  17
ATOM     17  C   UNL     1      44.483   3.427   9.249  0.00  0.00    +0.000 A 
ATOM     18  C   UNL     1      45.204   4.385   8.533  0.00  0.00    +0.000 A 
ATOM     19  C   UNL     1      46.235   3.999   7.673  0.00  0.00    +0.000 A 
ATOM     20  C   UNL     1      46.573   2.651   7.533  0.00  0.00    +0.000 A 
ATOM     21  C   UNL     1      45.862   1.686   8.254  0.00  0.00    +0.000 A 
ATOM     22  C   UNL     1      44.825   2.078   9.115  0.00  0.00    +0.000 A 
BRANCH  20  23
ATOM     23  C   UNL     1      47.677   2.317   6.596  0.00  0.00    +0.000 C 
ATOM     24  N   UNL     1      47.765   3.034   5.436  0.00  0.00    +0.000 N 
ATOM     25  O   UNL     1      48.463   1.405   6.825  0.00  0.00    +0.000 OA
ATOM     26  H   UNL     1      47.015   3.618   5.100  0.00  0.00    +0.000 HD
ATOM     27  H   UNL     1      48.442   2.699   4.762  0.00  0.00    +0.000 HD
ENDBRANCH  20  23
ENDBRANCH  16  17
ENDBRANCH  15  16
ENDBRANCH   2  15
TORSDOF 7
ENDMDL
MODEL 2
REMARK VINA RESULT:    -8.039      1.383      1.601
REMARK INTER + INTRA:         -12.439
REMARK INTER:                 -11.433
REMARK INTRA:                  -1.006
REMARK UNBOUND:                -1.110
REMARK  Name = 
REMARK  9 active torsions:
REMARK  status: ('A' for Active; 'I' for Inactive)
REMARK    1  A    between atoms: C_1  and  C_2
REMARK    2  A    between atoms: C_2  and  C_3
REMARK    3  A    between atoms: C_2  and  C_14
REMARK    4  A    between atoms: C_3  and  O_4
REMARK    5  A    between atoms: O_4  and  C_5
REMARK    6  A    between atoms: C_8  and  C_9
REMARK    7  A    between atoms: C_18  and  O_19
REMARK    8  A    between atoms: O_19  and  C_20
REMARK    9  A    between atoms: N_22  and  C_23
REMARK                            x       y       z     vdW  Elec       q    Type
REMARK                         _______ _______ _______ _____ _____    ______ ____
ROOT
ATOM      1  C   UNL     1      42.457   5.375  12.009  0.00  0.00    +0.000 C 
ATOM      2  C   UNL     1      43.678   4.650  12.581  0.00  0.00    +0.000 C 
ENDROOT
BRANCH   2   3
ATOM      3  C   UNL     1      44.896   5.563  12.631  0.00  0.00    +0.000 A 
ATOM      4  C   UNL     1      44.908   6.779  11.938  0.00  0.00    +0.000 A 
ATOM      5  C   UNL     1      45.995   7.651  12.059  0.00  0.00    +0.000 A 
ATOM      6  C   UNL     1      47.083   7.324  12.874  0.00  0.00    +0.000 A 
ATOM      7  C   UNL     1      47.089   6.112  13.556  0.00  0.00    +0.000 A 
ATOM      8  C   UNL     1      46.006   5.241  13.430  0.00  0.00    +0.000 A 
BRANCH   7   9
ATOM      9  O   UNL     1      48.068   5.693  14.419  0.00  0.00    +0.000 OA
BRANCH   9  10
ATOM     10  C   UNL     1      48.645   6.640  15.345  0.00  0.00    +0.000 C 
ATOM     11  C   UNL     1      50.057   7.182  15.036  0.00  0.00    +0.000 C 
ATOM     12  N   UNL     1      50.535   6.755  16.363  0.00  0.00    +0.000 NA
ATOM     13  C   UNL     1      50.624   7.893  17.275  0.00  0.00    +0.000 C 
ATOM     14  C   UNL     1      49.291   6.002  16.595  0.00  0.00    +0.000 C 
ENDBRANCH   9  10
ENDBRANCH   7   9
ENDBRANCH   2   3
BRANCH   2  15
ATOM     15  C   UNL     1      44.038   3.371  11.797  0.00  0.00    +0.000 C 
BRANCH  15  16
ATOM     16  O   UNL     1      43.536   3.402  10.458  0.00  0.00    +0.000 OA
BRANCH  16  17
ATOM     17  C   UNL     1      44.500   3.220   9.493  0.00  0.00    +0.000 A 
ATOM     18  C   UNL     1      45.082   4.250   8.751  0.00  0.00    +0.000 A 
ATOM     19  C   UNL     1      46.055   3.969   7.790  0.00  0.00    +0.000 A 
ATOM     20  C   UNL     1      46.474   2.654   7.570  0.00  0.00    +0.000 A 
ATOM     21  C   UNL     1      45.902   1.618   8.315  0.00  0.00    +0.000 A 
ATOM     22  C   UNL     1      44.923   1.905   9.279  0.00  0.00    +0.000 A 
BRANCH  20  23
ATOM     23  C   UNL     1      47.509   2.432   6.528  0.00  0.00    +0.000 C 
ATOM     24  N   UNL     1      47.371   3.098   5.343  0.00  0.00    +0.000 N 
ATOM     25  O   UNL     1      48.436   1.649   6.697  0.00  0.00    +0.000 OA
ATOM     26  H   UNL     1      46.514   3.556   5.074  0.00  0.00    +0.000 HD
ATOM     27  H   UNL     1      48.013   2.828   4.608  0.00  0.00    +0.000 HD
ENDBRANCH  20  23
ENDBRANCH  16  17
ENDBRANCH  15  16
ENDBRANCH   2  15
TORSDOF 7
ENDMDL
MODEL 3
REMARK VINA RESULT:    -7.567      3.579      5.510
REMARK INTER + INTRA:         -11.773
REMARK INTER:                 -10.851
REMARK INTRA:                  -0.923
REMARK UNBOUND:                -1.110
REMARK  Name = 
REMARK  9 active torsions:
REMARK  status: ('A' for Active; 'I' for Inactive)
REMARK    1  A    between atoms: C_1  and  C_2
REMARK    2  A    between atoms: C_2  and  C_3
REMARK    3  A    between atoms: C_2  and  C_14
REMARK    4  A    between atoms: C_3  and  O_4
REMARK    5  A    between atoms: O_4  and  C_5
REMARK    6  A    between atoms: C_8  and  C_9
REMARK    7  A    between atoms: C_18  and  O_19
REMARK    8  A    between atoms: O_19  and  C_20
REMARK    9  A    between atoms: N_22  and  C_23
REMARK                            x       y       z     vdW  Elec       q    Type
REMARK                         _______ _______ _______ _____ _____    ______ ____
ROOT
ATOM      1  C   UNL     1      45.827   3.948  12.913  0.00  0.00    +0.000 C 
ATOM      2  C   UNL     1      45.498   4.859  11.727  0.00  0.00    +0.000 C 
ENDROOT
BRANCH   2   3
ATOM      3  C   UNL     1      46.002   6.278  11.955  0.00  0.00    +0.000 A 
ATOM      4  C   UNL     1      47.374   6.553  11.990  0.00  0.00    +0.000 A 
ATOM      5  C   UNL     1      47.828   7.870  12.113  0.00  0.00    +0.000 A 
ATOM      6  C   UNL     1      46.921   8.931  12.200  0.00  0.00    +0.000 A 
ATOM      7  C   UNL     1      45.555   8.669  12.181  0.00  0.00    +0.000 A 
ATOM      8  C   UNL     1      45.105   7.353  12.063  0.00  0.00    +0.000 A 
BRANCH   7   9
ATOM      9  O   UNL     1      44.566   9.616  12.213  0.00  0.00    +0.000 OA
BRANCH   9  10
ATOM     10  C   UNL     1      43.869   9.950  10.992  0.00  0.00    +0.000 C 
ATOM     11  C   UNL     1      44.390  11.147  10.169  0.00  0.00    +0.000 C 
ATOM     12  N   UNL     1      43.056  11.775  10.199  0.00  0.00    +0.000 NA
ATOM     13  C   UNL     1      42.363  11.586   8.928  0.00  0.00    +0.000 C 
ATOM     14  C   UNL     1      42.590  10.793  11.193  0.00  0.00    +0.000 C 
ENDBRANCH   9  10
ENDBRANCH   7   9
ENDBRANCH   2   3
BRANCH   2  15
ATOM     15  C   UNL     1      43.991   4.904  11.405  0.00  0.00    +0.000 C 
BRANCH  15  16
ATOM     16  O   UNL     1      43.739   4.820   9.998  0.00  0.00    +0.000 OA
BRANCH  16  17
ATOM     17  C   UNL     1      44.578   3.961   9.328  0.00  0.00    +0.000 A 
ATOM     18  C   UNL     1      44.580   2.573   9.484  0.00  0.00    +0.000 A 
ATOM     19  C   UNL     1      45.472   1.780   8.759  0.00  0.00    +0.000 A 
ATOM     20  C   UNL     1      46.361   2.362   7.852  0.00  0.00    +0.000 A 
ATOM     21  C   UNL     1      46.358   3.750   7.683  0.00  0.00    +0.000 A 
ATOM     22  C   UNL     1      45.462   4.544   8.416  0.00  0.00    +0.000 A 
BRANCH  20  23
ATOM     23  C   UNL     1      47.283   1.455   7.121  0.00  0.00    +0.000 C 
ATOM     24  N   UNL     1      48.410   2.000   6.574  0.00  0.00    +0.000 N 
ATOM     25  O   UNL     1      47.031   0.265   6.971  0.00  0.00    +0.000 OA
ATOM     26  H   UNL     1      48.535   2.995   6.466  0.00  0.00    +0.000 HD
ATOM     27  H   UNL     1      48.949   1.388   5.973  0.00  0.00    +0.000 HD
ENDBRANCH  20  23
ENDBRANCH  16  17
ENDBRANCH  15  16
ENDBRANCH   2  15
TORSDOF 7
ENDMDL
MODEL 4
REMARK VINA RESULT:    -7.277      2.045      2.674
REMARK INTER + INTRA:         -11.365
REMARK INTER:                 -10.600
REMARK INTRA:                  -0.765
REMARK UNBOUND:                -1.110
REMARK  Name = 
REMARK  9 active torsions:
REMARK  status: ('A' for Active; 'I' for Inactive)
REMARK    1  A    between atoms: C_1  and  C_2
REMARK    2  A    between atoms: C_2  and  C_3
REMARK    3  A    between atoms: C_2  and  C_14
REMARK    4  A    between atoms: C_3  and  O_4
REMARK    5  A    between atoms: O_4  and  C_5
REMARK    6  A    between atoms: C_8  and  C_9
REMARK    7  A    between atoms: C_18  and  O_19
REMARK    8  A    between atoms: O_19  and  C_20
REMARK    9  A    between atoms: N_22  and  C_23
REMARK                            x       y       z     vdW  Elec       q    Type
REMARK                         _______ _______ _______ _____ _____    ______ ____
ROOT
ATOM      1  C   UNL     1      46.063   4.086  12.981  0.00  0.00    +0.000 C 
ATOM      2  C   UNL     1      45.491   4.841  11.778  0.00  0.00    +0.000 C 
ENDROOT
BRANCH   2   3
ATOM      3  C   UNL     1      45.655   6.347  11.934  0.00  0.00    +0.000 A 
ATOM      4  C   UNL     1      44.681   7.227  11.448  0.00  0.00    +0.000 A 
ATOM      5  C   UNL     1      44.796   8.604  11.671  0.00  0.00    +0.000 A 
ATOM      6  C   UNL     1      45.883   9.120  12.383  0.00  0.00    +0.000 A 
ATOM      7  C   UNL     1      46.865   8.257  12.858  0.00  0.00    +0.000 A 
ATOM      8  C   UNL     1      46.750   6.885  12.630  0.00  0.00    +0.000 A 
BRANCH   7   9
ATOM      9  O   UNL     1      47.952   8.628  13.605  0.00  0.00    +0.000 OA
BRANCH   9  10
ATOM     10  C   UNL     1      48.537   7.676  14.521  0.00  0.00    +0.000 C 
ATOM     11  C   UNL     1      48.717   8.107  15.992  0.00  0.00    +0.000 C 
ATOM     12  N   UNL     1      50.152   7.777  15.935  0.00  0.00    +0.000 NA
ATOM     13  C   UNL     1      50.418   6.499  16.591  0.00  0.00    +0.000 C 
ATOM     14  C   UNL     1      50.079   7.605  14.475  0.00  0.00    +0.000 C 
ENDBRANCH   9  10
ENDBRANCH   7   9
ENDBRANCH   2   3
BRANCH   2  15
ATOM     15  C   UNL     1      44.004   4.520  11.519  0.00  0.00    +0.000 C 
BRANCH  15  16
ATOM     16  O   UNL     1      43.682   4.551  10.125  0.00  0.00    +0.000 OA
BRANCH  16  17
ATOM     17  C   UNL     1      44.583   3.888   9.326  0.00  0.00    +0.000 A 
ATOM     18  C   UNL     1      45.449   4.510   8.424  0.00  0.00    +0.000 A 
ATOM     19  C   UNL     1      46.332   3.752   7.651  0.00  0.00    +0.000 A 
ATOM     20  C   UNL     1      46.375   2.361   7.784  0.00  0.00    +0.000 A 
ATOM     21  C   UNL     1      45.517   1.732   8.692  0.00  0.00    +0.000 A 
ATOM     22  C   UNL     1      44.630   2.498   9.465  0.00  0.00    +0.000 A 
BRANCH  20  23
ATOM     23  C   UNL     1      47.335   1.622   6.925  0.00  0.00    +0.000 C 
ATOM     24  N   UNL     1      48.432   2.298   6.471  0.00  0.00    +0.000 N 
ATOM     25  O   UNL     1      47.141   0.459   6.595  0.00  0.00    +0.000 OA
ATOM     26  H   UNL     1      48.509   3.303   6.517  0.00  0.00    +0.000 HD
ATOM     27  H   UNL     1      48.997   1.812   5.785  0.00  0.00    +0.000 HD
ENDBRANCH  20  23
ENDBRANCH  16  17
ENDBRANCH  15  16
ENDBRANCH   2  15
TORSDOF 7
ENDMDL
MODEL 5
REMARK VINA RESULT:    -6.861      1.687      7.714
REMARK INTER + INTRA:         -10.779
REMARK INTER:                  -9.539
REMARK INTRA:                  -1.240
REMARK UNBOUND:                -1.110
REMARK  Name = 
REMARK  9 active torsions:
REMARK  status: ('A' for Active; 'I' for Inactive)
REMARK    1  A    between atoms: C_1  and  C_2
REMARK    2  A    between atoms: C_2  and  C_3
REMARK    3  A    between atoms: C_2  and  C_14
REMARK    4  A    between atoms: C_3  and  O_4
REMARK    5  A    between atoms: O_4  and  C_5
REMARK    6  A    between atoms: C_8  and  C_9
REMARK    7  A    between atoms: C_18  and  O_19
REMARK    8  A    between atoms: O_19  and  C_20
REMARK    9  A    between atoms: N_22  and  C_23
REMARK                            x       y       z     vdW  Elec       q    Type
REMARK                         _______ _______ _______ _____ _____    ______ ____
ROOT
ATOM      1  C   UNL     1      44.639   8.560  11.402  0.00  0.00    +0.000 C 
ATOM      2  C   UNL     1      45.580   7.355  11.475  0.00  0.00    +0.000 C 
ENDROOT
BRANCH   2   3
ATOM      3  C   UNL     1      44.806   6.048  11.588  0.00  0.00    +0.000 A 
ATOM      4  C   UNL     1      43.895   5.844  12.630  0.00  0.00    +0.000 A 
ATOM      5  C   UNL     1      43.124   4.677  12.678  0.00  0.00    +0.000 A 
ATOM      6  C   UNL     1      43.251   3.699  11.686  0.00  0.00    +0.000 A 
ATOM      7  C   UNL     1      44.165   3.884  10.654  0.00  0.00    +0.000 A 
ATOM      8  C   UNL     1      44.935   5.047  10.611  0.00  0.00    +0.000 A 
BRANCH   7   9
ATOM      9  O   UNL     1      44.353   3.029   9.600  0.00  0.00    +0.000 OA
BRANCH   9  10
ATOM     10  C   UNL     1      45.646   2.976   8.956  0.00  0.00    +0.000 C 
ATOM     11  C   UNL     1      45.754   3.513   7.512  0.00  0.00    +0.000 C 
ATOM     12  N   UNL     1      46.328   2.233   7.058  0.00  0.00    +0.000 NA
ATOM     13  C   UNL     1      47.774   2.343   6.888  0.00  0.00    +0.000 C 
ATOM     14  C   UNL     1      46.005   1.602   8.348  0.00  0.00    +0.000 C 
ENDBRANCH   9  10
ENDBRANCH   7   9
ENDBRANCH   2   3
BRANCH   2  15
ATOM     15  C   UNL     1      46.585   7.448  12.641  0.00  0.00    +0.000 C 
BRANCH  15  16
ATOM     16  O   UNL     1      47.551   6.393  12.605  0.00  0.00    +0.000 OA
BRANCH  16  17
ATOM     17  C   UNL     1      47.543   5.586  13.719  0.00  0.00    +0.000 A 
ATOM     18  C   UNL     1      47.045   4.282  13.749  0.00  0.00    +0.000 A 
ATOM     19  C   UNL     1      47.078   3.537  14.930  0.00  0.00    +0.000 A 
ATOM     20  C   UNL     1      47.628   4.080  16.094  0.00  0.00    +0.000 A 
ATOM     21  C   UNL     1      48.136   5.383  16.070  0.00  0.00    +0.000 A 
ATOM     22  C   UNL     1      48.099   6.129  14.881  0.00  0.00    +0.000 A 
BRANCH  20  23
ATOM     23  C   UNL     1      47.624   3.231  17.312  0.00  0.00    +0.000 C 
ATOM     24  N   UNL     1      48.796   3.103  18.003  0.00  0.00    +0.000 N 
ATOM     25  O   UNL     1      46.621   2.627  17.673  0.00  0.00    +0.000 OA
ATOM     26  H   UNL     1      49.687   3.380  17.617  0.00  0.00    +0.000 HD
ATOM     27  H   UNL     1      48.797   2.418  18.748  0.00  0.00    +0.000 HD
ENDBRANCH  20  23
ENDBRANCH  16  17
ENDBRANCH  15  16
ENDBRANCH   2  15
TORSDOF 7
ENDMDL
MODEL 6
REMARK VINA RESULT:    -6.796      3.103      4.418
REMARK INTER + INTRA:         -10.687
REMARK INTER:                  -9.793
REMARK INTRA:                  -0.894
REMARK UNBOUND:                -1.110
REMARK  Name = 
REMARK  9 active torsions:
REMARK  status: ('A' for Active; 'I' for Inactive)
REMARK    1  A    between atoms: C_1  and  C_2
REMARK    2  A    between atoms: C_2  and  C_3
REMARK    3  A    between atoms: C_2  and  C_14
REMARK    4  A    between atoms: C_3  and  O_4
REMARK    5  A    between atoms: O_4  and  C_5
REMARK    6  A    between atoms: C_8  and  C_9
REMARK    7  A    between atoms: C_18  and  O_19
REMARK    8  A    between atoms: O_19  and  C_20
REMARK    9  A    between atoms: N_22  and  C_23
REMARK                            x       y       z     vdW  Elec       q    Type
REMARK                         _______ _______ _______ _____ _____    ______ ____
ROOT
ATOM      1  C   UNL     1      45.128   3.480  12.809  0.00  0.00    +0.000 C 
ATOM      2  C   UNL     1      45.653   4.546  11.844  0.00  0.00    +0.000 C 
ENDROOT
BRANCH   2   3
ATOM      3  C   UNL     1      46.559   5.544  12.552  0.00  0.00    +0.000 A 
ATOM      4  C   UNL     1      47.005   5.304  13.857  0.00  0.00    +0.000 A 
ATOM      5  C   UNL     1      47.907   6.182  14.469  0.00  0.00    +0.000 A 
ATOM      6  C   UNL     1      48.376   7.309  13.788  0.00  0.00    +0.000 A 
ATOM      7  C   UNL     1      47.928   7.567  12.497  0.00  0.00    +0.000 A 
ATOM      8  C   UNL     1      47.026   6.692  11.890  0.00  0.00    +0.000 A 
BRANCH   7   9
ATOM      9  O   UNL     1      48.342   8.606  11.707  0.00  0.00    +0.000 OA
BRANCH   9  10
ATOM     10  C   UNL     1      49.620   9.228  11.970  0.00  0.00    +0.000 C 
ATOM     11  C   UNL     1      50.009  10.462  11.128  0.00  0.00    +0.000 C 
ATOM     12  N   UNL     1      51.270   9.814  10.723  0.00  0.00    +0.000 NA
ATOM     13  C   UNL     1      52.397  10.350  11.482  0.00  0.00    +0.000 C 
ATOM     14  C   UNL     1      50.823   8.533  11.295  0.00  0.00    +0.000 C 
ENDBRANCH   9  10
ENDBRANCH   7   9
ENDBRANCH   2   3
BRANCH   2  15
ATOM     15  C   UNL     1      44.524   5.312  11.123  0.00  0.00    +0.000 C 
BRANCH  15  16
ATOM     16  O   UNL     1      43.903   4.521  10.106  0.00  0.00    +0.000 OA
BRANCH  16  17
ATOM     17  C   UNL     1      44.789   3.881   9.272  0.00  0.00    +0.000 A 
ATOM     18  C   UNL     1      44.937   2.494   9.187  0.00  0.00    +0.000 A 
ATOM     19  C   UNL     1      45.867   1.933   8.310  0.00  0.00    +0.000 A 
ATOM     20  C   UNL     1      46.649   2.750   7.489  0.00  0.00    +0.000 A 
ATOM     21  C   UNL     1      46.501   4.138   7.561  0.00  0.00    +0.000 A 
ATOM     22  C   UNL     1      45.566   4.699   8.447  0.00  0.00    +0.000 A 
BRANCH  20  23
ATOM     23  C   UNL     1      47.619   2.081   6.585  0.00  0.00    +0.000 C 
ATOM     24  N   UNL     1      48.166   2.824   5.577  0.00  0.00    +0.000 N 
ATOM     25  O   UNL     1      47.897   0.893   6.703  0.00  0.00    +0.000 OA
ATOM     26  H   UNL     1      47.794   3.720   5.299  0.00  0.00    +0.000 HD
ATOM     27  H   UNL     1      48.719   2.312   4.901  0.00  0.00    +0.000 HD
ENDBRANCH  20  23
ENDBRANCH  16  17
ENDBRANCH  15  16
ENDBRANCH   2  15
TORSDOF 7
ENDMDL
MODEL 7
REMARK VINA RESULT:    -6.646      3.379      4.579
REMARK INTER + INTRA:         -10.477
REMARK INTER:                  -9.780
REMARK INTRA:                  -0.697
REMARK UNBOUND:                -1.110
REMARK  Name = 
REMARK  9 active torsions:
REMARK  status: ('A' for Active; 'I' for Inactive)
REMARK    1  A    between atoms: C_1  and  C_2
REMARK    2  A    between atoms: C_2  and  C_3
REMARK    3  A    between atoms: C_2  and  C_14
REMARK    4  A    between atoms: C_3  and  O_4
REMARK    5  A    between atoms: O_4  and  C_5
REMARK    6  A    between atoms: C_8  and  C_9
REMARK    7  A    between atoms: C_18  and  O_19
REMARK    8  A    between atoms: O_19  and  C_20
REMARK    9  A    between atoms: N_22  and  C_23
REMARK                            x       y       z     vdW  Elec       q    Type
REMARK                         _______ _______ _______ _____ _____    ______ ____
ROOT
ATOM      1  C   UNL     1      46.587   4.938  13.028  0.00  0.00    +0.000 C 
ATOM      2  C   UNL     1      45.895   5.474  11.772  0.00  0.00    +0.000 C 
ENDROOT
BRANCH   2   3
ATOM      3  C   UNL     1      45.777   6.992  11.804  0.00  0.00    +0.000 A 
ATOM      4  C   UNL     1      44.634   7.631  11.309  0.00  0.00    +0.000 A 
ATOM      5  C   UNL     1      44.495   9.019  11.420  0.00  0.00    +0.000 A 
ATOM      6  C   UNL     1      45.493   9.787  12.028  0.00  0.00    +0.000 A 
ATOM      7  C   UNL     1      46.640   9.165  12.510  0.00  0.00    +0.000 A 
ATOM      8  C   UNL     1      46.778   7.781  12.393  0.00  0.00    +0.000 A 
BRANCH   7   9
ATOM      9  O   UNL     1      47.667   9.793  13.163  0.00  0.00    +0.000 OA
BRANCH   9  10
ATOM     10  C   UNL     1      48.979   9.819  12.559  0.00  0.00    +0.000 C 
ATOM     11  C   UNL     1      49.950  10.939  12.988  0.00  0.00    +0.000 C 
ATOM     12  N   UNL     1      50.134  11.346  11.583  0.00  0.00    +0.000 NA
ATOM     13  C   UNL     1      51.407  10.854  11.062  0.00  0.00    +0.000 C 
ATOM     14  C   UNL     1      49.028  10.471  11.159  0.00  0.00    +0.000 C 
ENDBRANCH   9  10
ENDBRANCH   7   9
ENDBRANCH   2   3
BRANCH   2  15
ATOM     15  C   UNL     1      44.496   4.863  11.551  0.00  0.00    +0.000 C 
BRANCH  15  16
ATOM     16  O   UNL     1      44.107   4.893  10.174  0.00  0.00    +0.000 OA
BRANCH  16  17
ATOM     17  C   UNL     1      44.890   4.116   9.353  0.00  0.00    +0.000 A 
ATOM     18  C   UNL     1      45.749   4.616   8.372  0.00  0.00    +0.000 A 
ATOM     19  C   UNL     1      46.506   3.747   7.583  0.00  0.00    +0.000 A 
ATOM     20  C   UNL     1      46.430   2.366   7.778  0.00  0.00    +0.000 A 
ATOM     21  C   UNL     1      45.579   1.857   8.764  0.00  0.00    +0.000 A 
ATOM     22  C   UNL     1      44.817   2.734   9.553  0.00  0.00    +0.000 A 
BRANCH  20  23
ATOM     23  C   UNL     1      47.261   1.505   6.897  0.00  0.00    +0.000 C 
ATOM     24  N   UNL     1      48.337   2.077   6.280  0.00  0.00    +0.000 N 
ATOM     25  O   UNL     1      46.977   0.331   6.690  0.00  0.00    +0.000 OA
ATOM     26  H   UNL     1      48.467   3.077   6.230  0.00  0.00    +0.000 HD
ATOM     27  H   UNL     1      48.804   1.505   5.588  0.00  0.00    +0.000 HD
ENDBRANCH  20  23
ENDBRANCH  16  17
ENDBRANCH  15  16
ENDBRANCH   2  15
TORSDOF 7
ENDMDL
MODEL 8
REMARK VINA RESULT:    -6.517      2.315      8.339
REMARK INTER + INTRA:         -10.294
REMARK INTER:                  -9.775
REMARK INTRA:                  -0.519
REMARK UNBOUND:                -1.110
REMARK  Name = 
REMARK  9 active torsions:
REMARK  status: ('A' for Active; 'I' for Inactive)
REMARK    1  A    between atoms: C_1  and  C_2
REMARK    2  A    between atoms: C_2  and  C_3
REMARK    3  A    between atoms: C_2  and  C_14
REMARK    4  A    between atoms: C_3  and  O_4
REMARK    5  A    between atoms: O_4  and  C_5
REMARK    6  A    between atoms: C_8  and  C_9
REMARK    7  A    between atoms: C_18  and  O_19
REMARK    8  A    between atoms: O_19  and  C_20
REMARK    9  A    between atoms: N_22  and  C_23
REMARK                            x       y       z     vdW  Elec       q    Type
REMARK                         _______ _______ _______ _____ _____    ______ ____
ROOT
ATOM      1  C   UNL     1      47.411   6.177  13.648  0.00  0.00    +0.000 C 
ATOM      2  C   UNL     1      46.838   4.757  13.673  0.00  0.00    +0.000 C 
ENDROOT
BRANCH   2   3
ATOM      3  C   UNL     1      45.541   4.663  12.881  0.00  0.00    +0.000 A 
ATOM      4  C   UNL     1      44.592   5.691  12.939  0.00  0.00    +0.000 A 
ATOM      5  C   UNL     1      43.443   5.638  12.143  0.00  0.00    +0.000 A 
ATOM      6  C   UNL     1      43.226   4.562  11.277  0.00  0.00    +0.000 A 
ATOM      7  C   UNL     1      44.154   3.528  11.222  0.00  0.00    +0.000 A 
ATOM      8  C   UNL     1      45.297   3.580  12.021  0.00  0.00    +0.000 A 
BRANCH   7   9
ATOM      9  O   UNL     1      44.084   2.443  10.387  0.00  0.00    +0.000 OA
BRANCH   9  10
ATOM     10  C   UNL     1      44.493   2.586   9.008  0.00  0.00    +0.000 C 
ATOM     11  C   UNL     1      45.783   1.867   8.561  0.00  0.00    +0.000 C 
ATOM     12  N   UNL     1      46.340   3.136   8.057  0.00  0.00    +0.000 NA
ATOM     13  C   UNL     1      46.233   3.209   6.602  0.00  0.00    +0.000 C 
ATOM     14  C   UNL     1      45.252   3.894   8.696  0.00  0.00    +0.000 C 
ENDBRANCH   9  10
ENDBRANCH   7   9
ENDBRANCH   2   3
BRANCH   2  15
ATOM     15  C   UNL     1      46.596   4.233  15.104  0.00  0.00    +0.000 C 
BRANCH  15  16
ATOM     16  O   UNL     1      47.401   4.916  16.070  0.00  0.00    +0.000 OA
BRANCH  16  17
ATOM     17  C   UNL     1      48.489   4.195  16.504  0.00  0.00    +0.000 A 
ATOM     18  C   UNL     1      49.625   4.754  17.094  0.00  0.00    +0.000 A 
ATOM     19  C   UNL     1      50.684   3.941  17.504  0.00  0.00    +0.000 A 
ATOM     20  C   UNL     1      50.613   2.555  17.348  0.00  0.00    +0.000 A 
ATOM     21  C   UNL     1      49.475   1.986  16.766  0.00  0.00    +0.000 A 
ATOM     22  C   UNL     1      48.414   2.808  16.353  0.00  0.00    +0.000 A 
BRANCH  20  23
ATOM     23  C   UNL     1      51.780   1.755  17.802  0.00  0.00    +0.000 C 
ATOM     24  N   UNL     1      51.583   0.425  18.046  0.00  0.00    +0.000 N 
ATOM     25  O   UNL     1      52.876   2.268  17.996  0.00  0.00    +0.000 OA
ATOM     26  H   UNL     1      50.664   0.018  18.132  0.00  0.00    +0.000 HD
ATOM     27  H   UNL     1      52.358  -0.063  18.479  0.00  0.00    +0.000 HD
ENDBRANCH  20  23
ENDBRANCH  16  17
ENDBRANCH  15  16
ENDBRANCH   2  15
TORSDOF 7
ENDMDL
MODEL 9
REMARK VINA RESULT:    -6.066      3.010      5.609
REMARK INTER + INTRA:          -9.658
REMARK INTER:                  -8.874
REMARK INTRA:                  -0.784
REMARK UNBOUND:                -1.110
REMARK  Name = 
REMARK  9 active torsions:
REMARK  status: ('A' for Active; 'I' for Inactive)
REMARK    1  A    between atoms: C_1  and  C_2
REMARK    2  A    between atoms: C_2  and  C_3
REMARK    3  A    between atoms: C_2  and  C_14
REMARK    4  A    between atoms: C_3  and  O_4
REMARK    5  A    between atoms: O_4  and  C_5
REMARK    6  A    between atoms: C_8  and  C_9
REMARK    7  A    between atoms: C_18  and  O_19
REMARK    8  A    between atoms: O_19  and  C_20
REMARK    9  A    between atoms: N_22  and  C_23
REMARK                            x       y       z     vdW  Elec       q    Type
REMARK                         _______ _______ _______ _____ _____    ______ ____
ROOT
ATOM      1  C   UNL     1      49.991   7.638  15.737  0.00  0.00    +0.000 C 
ATOM      2  C   UNL     1      48.683   6.870  15.524  0.00  0.00    +0.000 C 
ENDROOT
BRANCH   2   3
ATOM      3  C   UNL     1      48.672   5.560  16.300  0.00  0.00    +0.000 A 
ATOM      4  C   UNL     1      47.611   4.657  16.164  0.00  0.00    +0.000 A 
ATOM      5  C   UNL     1      47.648   3.418  16.813  0.00  0.00    +0.000 A 
ATOM      6  C   UNL     1      48.745   3.062  17.604  0.00  0.00    +0.000 A 
ATOM      7  C   UNL     1      49.798   3.957  17.760  0.00  0.00    +0.000 A 
ATOM      8  C   UNL     1      49.756   5.195  17.115  0.00  0.00    +0.000 A 
BRANCH   7   9
ATOM      9  O   UNL     1      50.946   3.715  18.467  0.00  0.00    +0.000 OA
BRANCH   9  10
ATOM     10  C   UNL     1      52.039   3.023  17.824  0.00  0.00    +0.000 C 
ATOM     11  C   UNL     1      51.886   1.507  17.576  0.00  0.00    +0.000 C 
ATOM     12  N   UNL     1      53.148   1.241  18.291  0.00  0.00    +0.000 NA
ATOM     13  C   UNL     1      54.234   0.982  17.351  0.00  0.00    +0.000 C 
ATOM     14  C   UNL     1      53.197   2.633  18.769  0.00  0.00    +0.000 C 
ENDBRANCH   9  10
ENDBRANCH   7   9
ENDBRANCH   2   3
BRANCH   2  15
ATOM     15  C   UNL     1      48.394   6.578  14.037  0.00  0.00    +0.000 C 
BRANCH  15  16
ATOM     16  O   UNL     1      47.148   7.138  13.611  0.00  0.00    +0.000 OA
BRANCH  16  17
ATOM     17  C   UNL     1      46.415   6.315  12.788  0.00  0.00    +0.000 A 
ATOM     18  C   UNL     1      45.595   5.276  13.234  0.00  0.00    +0.000 A 
ATOM     19  C   UNL     1      44.887   4.491  12.321  0.00  0.00    +0.000 A 
ATOM     20  C   UNL     1      44.974   4.747  10.950  0.00  0.00    +0.000 A 
ATOM     21  C   UNL     1      45.786   5.791  10.497  0.00  0.00    +0.000 A 
ATOM     22  C   UNL     1      46.498   6.576  11.417  0.00  0.00    +0.000 A 
BRANCH  20  23
ATOM     23  C   UNL     1      44.196   3.866  10.041  0.00  0.00    +0.000 C 
ATOM     24  N   UNL     1      44.053   4.263   8.741  0.00  0.00    +0.000 N 
ATOM     25  O   UNL     1      43.662   2.839  10.440  0.00  0.00    +0.000 OA
ATOM     26  H   UNL     1      44.265   5.200   8.432  0.00  0.00    +0.000 HD
ATOM     27  H   UNL     1      43.412   3.715   8.181  0.00  0.00    +0.000 HD
ENDBRANCH  20  23
ENDBRANCH  16  17
ENDBRANCH  15  16
ENDBRANCH   2  15
TORSDOF 7
ENDMDL
