MODEL 1
REMARK VINA RESULT:    -8.321      0.000      0.000
REMARK INTER + INTRA:         -11.008
REMARK INTER:                 -10.753
REMARK INTRA:                  -0.255
REMARK UNBOUND:                -0.255
REMARK  Name = 
REMARK  5 active torsions:
REMARK  status: ('A' for Active; 'I' for Inactive)
REMARK    1  A    between atoms: C_2  and  C_4
REMARK    2  A    between atoms: C_8  and  O_9
REMARK    3  A    between atoms: O_9  and  C_10
REMARK    4  A    between atoms: C_10  and  C_11
REMARK    5  A    between atoms: C_16  and  C_17
REMARK                            x       y       z     vdW  Elec       q    Type
REMARK                         _______ _______ _______ _____ _____    ______ ____
ROOT
ATOM      1  C   UNL     1      45.054   4.770  12.066  0.00  0.00    +0.000 A 
ATOM      2  C   UNL     1      45.599   3.773  12.872  0.00  0.00    +0.000 A 
ATOM      3  C   UNL     1      46.716   4.060  13.653  0.00  0.00    +0.000 A 
ATOM      4  F   UNL     1      47.250   3.091  14.410  0.00  0.00    +0.000 F 
ATOM      5  C   UNL     1      47.296   5.329  13.659  0.00  0.00    +0.000 A 
ATOM      6  C   UNL     1      46.757   6.355  12.872  0.00  0.00    +0.000 A 
ATOM      7  C   UNL     1      45.635   6.044  12.090  0.00  0.00    +0.000 A 
ENDROOT
BRANCH   6   8
ATOM      8  C   UNL     1      47.383   7.744  12.875  0.00  0.00    +0.000 C 
ATOM      9  C   UNL     1      48.347   7.997  11.704  0.00  0.00    +0.000 C 
ATOM     10  C   UNL     1      49.738   7.396  11.905  0.00  0.00    +0.000 C 
ATOM     11  N   UNL     1      50.336   7.736  13.197  0.00  0.00    +0.000 NA
ATOM     12  C   UNL     1      49.467   7.482  14.346  0.00  0.00    +0.000 C 
ATOM     13  C   UNL     1      48.076   8.099  14.201  0.00  0.00    +0.000 C 
ATOM     14  H   UNL     1      50.582   8.726  13.188  0.00  0.00    +0.000 HD
ENDBRANCH   6   8
BRANCH   1  15
ATOM     15  C   UNL     1      43.857   4.535  11.180  0.00  0.00    +0.000 C 
BRANCH  15  16
ATOM     16  O   UNL     1      43.998   3.270  10.540  0.00  0.00    +0.000 OA
BRANCH  16  21
ATOM     17  C   UNL     1      46.370   2.179   7.908  0.00  0.00    +0.000 A 
ATOM     18  C   UNL     1      46.535   3.422   7.312  0.00  0.00    +0.000 A 
ATOM     19  N   UNL     1      45.902   4.542   7.735  0.00  0.00    +0.000 NA
ATOM     20  C   UNL     1      45.083   4.404   8.806  0.00  0.00    +0.000 A 
ATOM     21  C   UNL     1      44.861   3.207   9.485  0.00  0.00    +0.000 A 
ATOM     22  C   UNL     1      45.532   2.075   9.024  0.00  0.00    +0.000 A 
BRANCH  17  24
ATOM     23  N   UNL     1      46.634  -0.223   7.661  0.00  0.00    +0.000 N 
ATOM     24  C   UNL     1      47.093   1.024   7.340  0.00  0.00    +0.000 C 
ATOM     25  O   UNL     1      48.040   1.173   6.576  0.00  0.00    +0.000 OA
ATOM     26  H   UNL     1      47.059  -0.994   7.158  0.00  0.00    +0.000 HD
ATOM     27  H   UNL     1      45.710  -0.378   8.042  0.00  0.00    +0.000 HD
ENDBRANCH  17  24
ENDBRANCH  16  21
ENDBRANCH  15  16
ENDBRANCH   1  15
TORSDOF 5
ENDMDL
MODEL 2
REMARK VINA RESULT:    -8.131      1.359      1.769
REMARK INTER + INTRA:         -10.763
REMARK INTER:                 -10.478
REMARK INTRA:                  -0.285
REMARK UNBOUND:                -0.255
REMARK  Name = 
REMARK  5 active torsions:
REMARK  status: ('A' for Active; 'I' for Inactive)
REMARK    1  A    between atoms: C_2  and  C_4
REMARK    2  A    between atoms: C_8  and  O_9
REMARK    3  A    between atoms: O_9  and  C_10
REMARK    4  A    between atoms: C_10  and  C_11
REMARK    5  A    between atoms: C_16  and  C_17
REMARK                            x       y       z     vdW  Elec       q    Type
REMARK                         _______ _______ _______ _____ _____    ______ ____
ROOT
ATOM      1  C   UNL     1      45.073   4.746  11.628  0.00  0.00    +0.000 A 
ATOM      2  C   UNL     1      45.514   3.917  12.658  0.00  0.00    +0.000 A 
ATOM      3  C   UNL     1      46.635   4.285  13.399  0.00  0.00    +0.000 A 
ATOM      4  F   UNL     1      47.068   3.474  14.374  0.00  0.00    +0.000 F 
ATOM      5  C   UNL     1      47.321   5.474  13.144  0.00  0.00    +0.000 A 
ATOM      6  C   UNL     1      46.888   6.334  12.126  0.00  0.00    +0.000 A 
ATOM      7  C   UNL     1      45.760   5.942  11.390  0.00  0.00    +0.000 A 
ENDROOT
BRANCH   6   8
ATOM      8  C   UNL     1      47.629   7.634  11.843  0.00  0.00    +0.000 C 
ATOM      9  C   UNL     1      49.153   7.535  12.022  0.00  0.00    +0.000 C 
ATOM     10  C   UNL     1      49.613   7.618  13.477  0.00  0.00    +0.000 C 
ATOM     11  N   UNL     1      49.044   8.755  14.203  0.00  0.00    +0.000 NA
ATOM     12  C   UNL     1      47.591   8.872  14.089  0.00  0.00    +0.000 C 
ATOM     13  C   UNL     1      47.092   8.831  12.644  0.00  0.00    +0.000 C 
ATOM     14  H   UNL     1      49.468   9.611  13.845  0.00  0.00    +0.000 HD
ENDBRANCH   6   8
BRANCH   1  15
ATOM     15  C   UNL     1      43.879   4.411  10.771  0.00  0.00    +0.000 C 
BRANCH  15  16
ATOM     16  O   UNL     1      44.225   4.610   9.402  0.00  0.00    +0.000 OA
BRANCH  16  21
ATOM     17  C   UNL     1      46.493   2.642   7.229  0.00  0.00    +0.000 A 
ATOM     18  C   UNL     1      46.262   1.410   7.825  0.00  0.00    +0.000 A 
ATOM     19  N   UNL     1      45.428   1.235   8.878  0.00  0.00    +0.000 NA
ATOM     20  C   UNL     1      44.795   2.343   9.336  0.00  0.00    +0.000 A 
ATOM     21  C   UNL     1      44.946   3.621   8.800  0.00  0.00    +0.000 A 
ATOM     22  C   UNL     1      45.810   3.763   7.715  0.00  0.00    +0.000 A 
BRANCH  17  24
ATOM     23  N   UNL     1      48.763   2.470   6.381  0.00  0.00    +0.000 N 
ATOM     24  C   UNL     1      47.447   2.713   6.104  0.00  0.00    +0.000 C 
ATOM     25  O   UNL     1      47.072   2.936   4.958  0.00  0.00    +0.000 OA
ATOM     26  H   UNL     1      49.377   2.393   5.577  0.00  0.00    +0.000 HD
ATOM     27  H   UNL     1      49.062   2.012   7.232  0.00  0.00    +0.000 HD
ENDBRANCH  17  24
ENDBRANCH  16  21
ENDBRANCH  15  16
ENDBRANCH   1  15
TORSDOF 5
ENDMDL
MODEL 3
REMARK VINA RESULT:    -7.220      4.209      7.819
REMARK INTER + INTRA:          -9.585
REMARK INTER:                  -9.147
REMARK INTRA:                  -0.438
REMARK UNBOUND:                -0.255
REMARK  Name = 
REMARK  5 active torsions:
REMARK  status: ('A' for Active; 'I' for Inactive)
REMARK    1  A    between atoms: C_2  and  C_4
REMARK    2  A    between atoms: C_8  and  O_9
REMARK    3  A    between atoms: O_9  and  C_10
REMARK    4  A    between atoms: C_10  and  C_11
REMARK    5  A    between atoms: C_16  and  C_17
REMARK                            x       y       z     vdW  Elec       q    Type
REMARK                         _______ _______ _______ _____ _____    ______ ____
ROOT
ATOM      1  C   UNL     1      46.780   5.009  13.692  0.00  0.00    +0.000 A 
ATOM      2  C   UNL     1      47.617   6.064  13.334  0.00  0.00    +0.000 A 
ATOM      3  C   UNL     1      47.375   6.757  12.150  0.00  0.00    +0.000 A 
ATOM      4  F   UNL     1      48.195   7.757  11.800  0.00  0.00    +0.000 F 
ATOM      5  C   UNL     1      46.304   6.429  11.318  0.00  0.00    +0.000 A 
ATOM      6  C   UNL     1      45.437   5.384  11.663  0.00  0.00    +0.000 A 
ATOM      7  C   UNL     1      45.701   4.697  12.856  0.00  0.00    +0.000 A 
ENDROOT
BRANCH   6   8
ATOM      8  C   UNL     1      44.264   5.021  10.761  0.00  0.00    +0.000 C 
ATOM      9  C   UNL     1      43.131   4.272  11.481  0.00  0.00    +0.000 C 
ATOM     10  C   UNL     1      43.403   2.783  11.685  0.00  0.00    +0.000 C 
ATOM     11  N   UNL     1      43.830   2.097  10.464  0.00  0.00    +0.000 NA
ATOM     12  C   UNL     1      44.930   2.756   9.760  0.00  0.00    +0.000 C 
ATOM     13  C   UNL     1      44.680   4.242   9.502  0.00  0.00    +0.000 C 
ATOM     14  H   UNL     1      43.031   2.036   9.833  0.00  0.00    +0.000 HD
ENDBRANCH   6   8
BRANCH   1  15
ATOM     15  C   UNL     1      46.984   4.200  14.947  0.00  0.00    +0.000 C 
BRANCH  15  16
ATOM     16  O   UNL     1      47.291   5.085  16.021  0.00  0.00    +0.000 OA
BRANCH  16  21
ATOM     17  C   UNL     1      50.208   3.418  17.590  0.00  0.00    +0.000 A 
ATOM     18  C   UNL     1      50.449   4.385  18.556  0.00  0.00    +0.000 A 
ATOM     19  N   UNL     1      49.713   5.516  18.679  0.00  0.00    +0.000 NA
ATOM     20  C   UNL     1      48.690   5.668  17.803  0.00  0.00    +0.000 A 
ATOM     21  C   UNL     1      48.355   4.751  16.808  0.00  0.00    +0.000 A 
ATOM     22  C   UNL     1      49.132   3.597  16.713  0.00  0.00    +0.000 A 
BRANCH  17  24
ATOM     23  N   UNL     1      52.231   2.274  18.296  0.00  0.00    +0.000 N 
ATOM     24  C   UNL     1      51.096   2.240  17.536  0.00  0.00    +0.000 C 
ATOM     25  O   UNL     1      50.809   1.250  16.871  0.00  0.00    +0.000 OA
ATOM     26  H   UNL     1      52.756   1.408  18.347  0.00  0.00    +0.000 HD
ATOM     27  H   UNL     1      52.355   2.930  19.056  0.00  0.00    +0.000 HD
ENDBRANCH  17  24
ENDBRANCH  16  21
ENDBRANCH  15  16
ENDBRANCH   1  15
TORSDOF 5
ENDMDL
MODEL 4
REMARK VINA RESULT:    -7.199      4.680      8.608
REMARK INTER + INTRA:          -9.558
REMARK INTER:                  -9.208
REMARK INTRA:                  -0.350
REMARK UNBOUND:                -0.255
REMARK  Name = 
REMARK  5 active torsions:
REMARK  status: ('A' for Active; 'I' for Inactive)
REMARK    1  A    between atoms: C_2  and  C_4
REMARK    2  A    between atoms: C_8  and  O_9
REMARK    3  A    between atoms: O_9  and  C_10
REMARK    4  A    between atoms: C_10  and  C_11
REMARK    5  A    between atoms: C_16  and  C_17
REMARK                            x       y       z     vdW  Elec       q    Type
REMARK                         _______ _______ _______ _____ _____    ______ ____
ROOT
ATOM      1  C   UNL     1      46.753   5.215  13.528  0.00  0.00    +0.000 A 
ATOM      2  C   UNL     1      47.580   6.237  13.066  0.00  0.00    +0.000 A 
ATOM      3  C   UNL     1      47.306   6.835  11.837  0.00  0.00    +0.000 A 
ATOM      4  F   UNL     1      48.117   7.802  11.387  0.00  0.00    +0.000 F 
ATOM      5  C   UNL     1      46.213   6.443  11.063  0.00  0.00    +0.000 A 
ATOM      6  C   UNL     1      45.356   5.430  11.512  0.00  0.00    +0.000 A 
ATOM      7  C   UNL     1      45.652   4.839  12.749  0.00  0.00    +0.000 A 
ENDROOT
BRANCH   6   8
ATOM      8  C   UNL     1      44.160   4.999  10.673  0.00  0.00    +0.000 C 
ATOM      9  C   UNL     1      43.089   4.228  11.462  0.00  0.00    +0.000 C 
ATOM     10  C   UNL     1      43.428   2.756  11.691  0.00  0.00    +0.000 C 
ATOM     11  N   UNL     1      43.828   2.054  10.470  0.00  0.00    +0.000 NA
ATOM     12  C   UNL     1      44.869   2.734   9.701  0.00  0.00    +0.000 C 
ATOM     13  C   UNL     1      44.550   4.202   9.417  0.00  0.00    +0.000 C 
ATOM     14  H   UNL     1      43.004   1.945   9.877  0.00  0.00    +0.000 HD
ENDBRANCH   6   8
BRANCH   1  15
ATOM     15  C   UNL     1      46.990   4.507  14.838  0.00  0.00    +0.000 C 
BRANCH  15  16
ATOM     16  O   UNL     1      48.105   5.109  15.492  0.00  0.00    +0.000 OA
BRANCH  16  21
ATOM     17  C   UNL     1      48.094   5.265  19.196  0.00  0.00    +0.000 A 
ATOM     18  C   UNL     1      48.665   4.019  19.413  0.00  0.00    +0.000 A 
ATOM     19  N   UNL     1      49.020   3.176  18.414  0.00  0.00    +0.000 NA
ATOM     20  C   UNL     1      48.801   3.614  17.150  0.00  0.00    +0.000 A 
ATOM     21  C   UNL     1      48.248   4.851  16.824  0.00  0.00    +0.000 A 
ATOM     22  C   UNL     1      47.898   5.694  17.878  0.00  0.00    +0.000 A 
BRANCH  17  24
ATOM     23  N   UNL     1      47.057   5.460  21.384  0.00  0.00    +0.000 N 
ATOM     24  C   UNL     1      47.723   6.084  20.367  0.00  0.00    +0.000 C 
ATOM     25  O   UNL     1      48.036   7.267  20.447  0.00  0.00    +0.000 OA
ATOM     26  H   UNL     1      46.930   6.005  22.230  0.00  0.00    +0.000 HD
ATOM     27  H   UNL     1      47.036   4.453  21.480  0.00  0.00    +0.000 HD
ENDBRANCH  17  24
ENDBRANCH  16  21
ENDBRANCH  15  16
ENDBRANCH   1  15
TORSDOF 5
ENDMDL
MODEL 5
REMARK VINA RESULT:    -7.107      4.133      7.628
REMARK INTER + INTRA:          -9.439
REMARK INTER:                  -8.671
REMARK INTRA:                  -0.768
REMARK UNBOUND:                -0.255
REMARK  Name = 
REMARK  5 active torsions:
REMARK  status: ('A' for Active; 'I' for Inactive)
REMARK    1  A    between atoms: C_2  and  C_4
REMARK    2  A    between atoms: C_8  and  O_9
REMARK    3  A    between atoms: O_9  and  C_10
REMARK    4  A    between atoms: C_10  and  C_11
REMARK    5  A    between atoms: C_16  and  C_17
REMARK                            x       y       z     vdW  Elec       q    Type
REMARK                         _______ _______ _______ _____ _____    ______ ____
ROOT
ATOM      1  C   UNL     1      47.418   7.289  12.657  0.00  0.00    +0.000 A 
ATOM      2  C   UNL     1      46.939   8.595  12.720  0.00  0.00    +0.000 A 
ATOM      3  C   UNL     1      45.674   8.884  12.213  0.00  0.00    +0.000 A 
ATOM      4  F   UNL     1      45.226  10.147  12.256  0.00  0.00    +0.000 F 
ATOM      5  C   UNL     1      44.868   7.892  11.654  0.00  0.00    +0.000 A 
ATOM      6  C   UNL     1      45.318   6.567  11.594  0.00  0.00    +0.000 A 
ATOM      7  C   UNL     1      46.596   6.298  12.106  0.00  0.00    +0.000 A 
ENDROOT
BRANCH   6   8
ATOM      8  C   UNL     1      44.443   5.478  10.987  0.00  0.00    +0.000 C 
ATOM      9  C   UNL     1      43.035   5.394  11.600  0.00  0.00    +0.000 C 
ATOM     10  C   UNL     1      42.984   4.656  12.936  0.00  0.00    +0.000 C 
ATOM     11  N   UNL     1      43.653   3.354  12.908  0.00  0.00    +0.000 NA
ATOM     12  C   UNL     1      45.009   3.389  12.362  0.00  0.00    +0.000 C 
ATOM     13  C   UNL     1      45.098   4.087  11.005  0.00  0.00    +0.000 C 
ATOM     14  H   UNL     1      43.091   2.716  12.343  0.00  0.00    +0.000 HD
ENDBRANCH   6   8
BRANCH   1  15
ATOM     15  C   UNL     1      48.781   6.897  13.169  0.00  0.00    +0.000 C 
BRANCH  15  16
ATOM     16  O   UNL     1      48.976   7.480  14.455  0.00  0.00    +0.000 OA
BRANCH  16  21
ATOM     17  C   UNL     1      48.549   4.845  17.028  0.00  0.00    +0.000 A 
ATOM     18  C   UNL     1      49.774   5.029  17.654  0.00  0.00    +0.000 A 
ATOM     19  N   UNL     1      50.686   5.946  17.254  0.00  0.00    +0.000 NA
ATOM     20  C   UNL     1      50.343   6.714  16.190  0.00  0.00    +0.000 A 
ATOM     21  C   UNL     1      49.135   6.620  15.503  0.00  0.00    +0.000 A 
ATOM     22  C   UNL     1      48.218   5.667  15.944  0.00  0.00    +0.000 A 
BRANCH  17  24
ATOM     23  N   UNL     1      48.011   3.160  18.692  0.00  0.00    +0.000 N 
ATOM     24  C   UNL     1      47.647   3.793  17.537  0.00  0.00    +0.000 C 
ATOM     25  O   UNL     1      46.591   3.525  16.974  0.00  0.00    +0.000 OA
ATOM     26  H   UNL     1      47.318   2.539  19.094  0.00  0.00    +0.000 HD
ATOM     27  H   UNL     1      48.706   3.540  19.322  0.00  0.00    +0.000 HD
ENDBRANCH  17  24
ENDBRANCH  16  21
ENDBRANCH  15  16
ENDBRANCH   1  15
TORSDOF 5
ENDMDL
MODEL 6
REMARK VINA RESULT:    -6.742      4.340      6.079
REMARK INTER + INTRA:          -8.968
REMARK INTER:                  -8.381
REMARK INTRA:                  -0.587
REMARK UNBOUND:                -0.255
REMARK  Name = 
REMARK  5 active torsions:
REMARK  status: ('A' for Active; 'I' for Inactive)
REMARK    1  A    between atoms: C_2  and  C_4
REMARK    2  A    between atoms: C_8  and  O_9
REMARK    3  A    between atoms: O_9  and  C_10
REMARK    4  A    between atoms: C_10  and  C_11
REMARK    5  A    between atoms: C_16  and  C_17
REMARK                            x       y       z     vdW  Elec       q    Type
REMARK                         _______ _______ _______ _____ _____    ______ ____
ROOT
ATOM      1  C   UNL     1      48.429   3.502  16.535  0.00  0.00    +0.000 A 
ATOM      2  C   UNL     1      49.124   2.297  16.601  0.00  0.00    +0.000 A 
ATOM      3  C   UNL     1      50.337   2.244  17.285  0.00  0.00    +0.000 A 
ATOM      4  F   UNL     1      51.013   1.087  17.327  0.00  0.00    +0.000 F 
ATOM      5  C   UNL     1      50.866   3.368  17.920  0.00  0.00    +0.000 A 
ATOM      6  C   UNL     1      50.178   4.588  17.885  0.00  0.00    +0.000 A 
ATOM      7  C   UNL     1      48.962   4.621  17.187  0.00  0.00    +0.000 A 
ENDROOT
BRANCH   6   8
ATOM      8  C   UNL     1      50.749   5.819  18.578  0.00  0.00    +0.000 C 
ATOM      9  C   UNL     1      51.608   5.499  19.813  0.00  0.00    +0.000 C 
ATOM     10  C   UNL     1      50.796   5.197  21.071  0.00  0.00    +0.000 C 
ATOM     11  N   UNL     1      49.771   6.202  21.357  0.00  0.00    +0.000 NA
ATOM     12  C   UNL     1      48.906   6.517  20.220  0.00  0.00    +0.000 C 
ATOM     13  C   UNL     1      49.682   6.862  18.948  0.00  0.00    +0.000 C 
ATOM     14  H   UNL     1      50.235   7.059  21.659  0.00  0.00    +0.000 HD
ENDBRANCH   6   8
BRANCH   1  15
ATOM     15  C   UNL     1      47.120   3.647  15.801  0.00  0.00    +0.000 C 
BRANCH  15  16
ATOM     16  O   UNL     1      47.293   3.206  14.457  0.00  0.00    +0.000 OA
BRANCH  16  21
ATOM     17  C   UNL     1      45.090   4.384  11.719  0.00  0.00    +0.000 A 
ATOM     18  C   UNL     1      45.618   5.663  11.624  0.00  0.00    +0.000 A 
ATOM     19  N   UNL     1      46.620   6.118  12.412  0.00  0.00    +0.000 NA
ATOM     20  C   UNL     1      47.117   5.242  13.321  0.00  0.00    +0.000 A 
ATOM     21  C   UNL     1      46.669   3.933  13.486  0.00  0.00    +0.000 A 
ATOM     22  C   UNL     1      45.637   3.498  12.654  0.00  0.00    +0.000 A 
BRANCH  17  24
ATOM     23  N   UNL     1      43.869   4.690   9.641  0.00  0.00    +0.000 N 
ATOM     24  C   UNL     1      43.977   4.012  10.822  0.00  0.00    +0.000 C 
ATOM     25  O   UNL     1      43.204   3.102  11.103  0.00  0.00    +0.000 OA
ATOM     26  H   UNL     1      43.183   4.331   8.986  0.00  0.00    +0.000 HD
ATOM     27  H   UNL     1      44.632   5.231   9.255  0.00  0.00    +0.000 HD
ENDBRANCH  17  24
ENDBRANCH  16  21
ENDBRANCH  15  16
ENDBRANCH   1  15
TORSDOF 5
ENDMDL
MODEL 7
REMARK VINA RESULT:    -6.677      3.409      5.029
REMARK INTER + INTRA:          -8.883
REMARK INTER:                  -8.201
REMARK INTRA:                  -0.682
REMARK UNBOUND:                -0.255
REMARK  Name = 
REMARK  5 active torsions:
REMARK  status: ('A' for Active; 'I' for Inactive)
REMARK    1  A    between atoms: C_2  and  C_4
REMARK    2  A    between atoms: C_8  and  O_9
REMARK    3  A    between atoms: O_9  and  C_10
REMARK    4  A    between atoms: C_10  and  C_11
REMARK    5  A    between atoms: C_16  and  C_17
REMARK                            x       y       z     vdW  Elec       q    Type
REMARK                         _______ _______ _______ _____ _____    ______ ____
ROOT
ATOM      1  C   UNL     1      47.948   7.745  13.982  0.00  0.00    +0.000 A 
ATOM      2  C   UNL     1      48.107   9.056  14.425  0.00  0.00    +0.000 A 
ATOM      3  C   UNL     1      48.583   9.289  15.713  0.00  0.00    +0.000 A 
ATOM      4  F   UNL     1      48.714  10.552  16.142  0.00  0.00    +0.000 F 
ATOM      5  C   UNL     1      48.918   8.238  16.569  0.00  0.00    +0.000 A 
ATOM      6  C   UNL     1      48.783   6.911  16.143  0.00  0.00    +0.000 A 
ATOM      7  C   UNL     1      48.299   6.698  14.844  0.00  0.00    +0.000 A 
ENDROOT
BRANCH   6   8
ATOM      8  C   UNL     1      49.148   5.759  17.071  0.00  0.00    +0.000 C 
ATOM      9  C   UNL     1      48.578   4.400  16.632  0.00  0.00    +0.000 C 
ATOM     10  C   UNL     1      47.109   4.197  16.999  0.00  0.00    +0.000 C 
ATOM     11  N   UNL     1      46.813   4.494  18.401  0.00  0.00    +0.000 NA
ATOM     12  C   UNL     1      47.308   5.793  18.856  0.00  0.00    +0.000 C 
ATOM     13  C   UNL     1      48.787   6.021  18.542  0.00  0.00    +0.000 C 
ATOM     14  H   UNL     1      47.231   3.766  18.980  0.00  0.00    +0.000 HD
ENDBRANCH   6   8
BRANCH   1  15
ATOM     15  C   UNL     1      47.424   7.408  12.609  0.00  0.00    +0.000 C 
BRANCH  15  16
ATOM     16  O   UNL     1      46.053   7.036  12.717  0.00  0.00    +0.000 OA
BRANCH  16  21
ATOM     17  C   UNL     1      45.262   4.526  10.105  0.00  0.00    +0.000 A 
ATOM     18  C   UNL     1      44.808   3.535  10.964  0.00  0.00    +0.000 A 
ATOM     19  N   UNL     1      44.774   3.672  12.311  0.00  0.00    +0.000 NA
ATOM     20  C   UNL     1      45.203   4.859  12.807  0.00  0.00    +0.000 A 
ATOM     21  C   UNL     1      45.662   5.922  12.032  0.00  0.00    +0.000 A 
ATOM     22  C   UNL     1      45.680   5.747  10.649  0.00  0.00    +0.000 A 
BRANCH  17  24
ATOM     23  N   UNL     1      44.221   3.558   8.136  0.00  0.00    +0.000 N 
ATOM     24  C   UNL     1      45.278   4.249   8.655  0.00  0.00    +0.000 C 
ATOM     25  O   UNL     1      46.181   4.661   7.934  0.00  0.00    +0.000 OA
ATOM     26  H   UNL     1      44.186   3.495   7.125  0.00  0.00    +0.000 HD
ATOM     27  H   UNL     1      43.344   3.456   8.632  0.00  0.00    +0.000 HD
ENDBRANCH  17  24
ENDBRANCH  16  21
ENDBRANCH  15  16
ENDBRANCH   1  15
TORSDOF 5
ENDMDL
MODEL 8
REMARK VINA RESULT:    -6.663      3.640      5.536
REMARK INTER + INTRA:          -8.865
REMARK INTER:                  -8.241
REMARK INTRA:                  -0.624
REMARK UNBOUND:                -0.255
REMARK  Name = 
REMARK  5 active torsions:
REMARK  status: ('A' for Active; 'I' for Inactive)
REMARK    1  A    between atoms: C_2  and  C_4
REMARK    2  A    between atoms: C_8  and  O_9
REMARK    3  A    between atoms: O_9  and  C_10
REMARK    4  A    between atoms: C_10  and  C_11
REMARK    5  A    between atoms: C_16  and  C_17
REMARK                            x       y       z     vdW  Elec       q    Type
REMARK                         _______ _______ _______ _____ _____    ______ ____
ROOT
ATOM      1  C   UNL     1      48.527   3.685  16.552  0.00  0.00    +0.000 A 
ATOM      2  C   UNL     1      49.076   2.423  16.767  0.00  0.00    +0.000 A 
ATOM      3  C   UNL     1      50.331   2.316  17.363  0.00  0.00    +0.000 A 
ATOM      4  F   UNL     1      50.864   1.100  17.548  0.00  0.00    +0.000 F 
ATOM      5  C   UNL     1      51.047   3.445  17.763  0.00  0.00    +0.000 A 
ATOM      6  C   UNL     1      50.511   4.725  17.574  0.00  0.00    +0.000 A 
ATOM      7  C   UNL     1      49.249   4.810  16.969  0.00  0.00    +0.000 A 
ENDROOT
BRANCH   6   8
ATOM      8  C   UNL     1      51.286   5.961  18.010  0.00  0.00    +0.000 C 
ATOM      9  C   UNL     1      51.049   7.193  17.120  0.00  0.00    +0.000 C 
ATOM     10  C   UNL     1      51.849   7.180  15.818  0.00  0.00    +0.000 C 
ATOM     11  N   UNL     1      53.274   6.905  16.014  0.00  0.00    +0.000 NA
ATOM     12  C   UNL     1      53.550   5.723  16.829  0.00  0.00    +0.000 C 
ATOM     13  C   UNL     1      52.796   5.715  18.159  0.00  0.00    +0.000 C 
ATOM     14  H   UNL     1      53.699   7.716  16.464  0.00  0.00    +0.000 HD
ENDBRANCH   6   8
BRANCH   1  15
ATOM     15  C   UNL     1      47.183   3.886  15.899  0.00  0.00    +0.000 C 
BRANCH  15  16
ATOM     16  O   UNL     1      47.232   3.369  14.572  0.00  0.00    +0.000 OA
BRANCH  16  21
ATOM     17  C   UNL     1      45.040   4.508  11.808  0.00  0.00    +0.000 A 
ATOM     18  C   UNL     1      45.493   5.819  11.770  0.00  0.00    +0.000 A 
ATOM     19  N   UNL     1      46.445   6.304  12.602  0.00  0.00    +0.000 NA
ATOM     20  C   UNL     1      46.967   5.428  13.497  0.00  0.00    +0.000 A 
ATOM     21  C   UNL     1      46.593   4.090  13.606  0.00  0.00    +0.000 A 
ATOM     22  C   UNL     1      45.612   3.625  12.731  0.00  0.00    +0.000 A 
BRANCH  17  24
ATOM     23  N   UNL     1      44.008   4.642   9.613  0.00  0.00    +0.000 N 
ATOM     24  C   UNL     1      43.976   4.102  10.868  0.00  0.00    +0.000 C 
ATOM     25  O   UNL     1      43.122   3.280  11.182  0.00  0.00    +0.000 OA
ATOM     26  H   UNL     1      43.352   4.252   8.946  0.00  0.00    +0.000 HD
ATOM     27  H   UNL     1      44.835   5.086   9.236  0.00  0.00    +0.000 HD
ENDBRANCH  17  24
ENDBRANCH  16  21
ENDBRANCH  15  16
ENDBRANCH   1  15
TORSDOF 5
ENDMDL
MODEL 9
REMARK VINA RESULT:    -6.564      4.317      6.039
REMARK INTER + INTRA:          -8.737
REMARK INTER:                  -8.064
REMARK INTRA:                  -0.673
REMARK UNBOUND:                -0.255
REMARK  Name = 
REMARK  5 active torsions:
REMARK  status: ('A' for Active; 'I' for Inactive)
REMARK    1  A    between atoms: C_2  and  C_4
REMARK    2  A    between atoms: C_8  and  O_9
REMARK    3  A    between atoms: O_9  and  C_10
REMARK    4  A    between atoms: C_10  and  C_11
REMARK    5  A    between atoms: C_16  and  C_17
REMARK                            x       y       z     vdW  Elec       q    Type
REMARK                         _______ _______ _______ _____ _____    ______ ____
ROOT
ATOM      1  C   UNL     1      48.184   5.343  16.114  0.00  0.00    +0.000 A 
ATOM      2  C   UNL     1      47.374   4.228  16.319  0.00  0.00    +0.000 A 
ATOM      3  C   UNL     1      47.523   3.479  17.485  0.00  0.00    +0.000 A 
ATOM      4  F   UNL     1      46.758   2.395  17.667  0.00  0.00    +0.000 F 
ATOM      5  C   UNL     1      48.457   3.829  18.462  0.00  0.00    +0.000 A 
ATOM      6  C   UNL     1      49.271   4.956  18.290  0.00  0.00    +0.000 A 
ATOM      7  C   UNL     1      49.108   5.692  17.107  0.00  0.00    +0.000 A 
ENDROOT
BRANCH   6   8
ATOM      8  C   UNL     1      50.291   5.344  19.352  0.00  0.00    +0.000 C 
ATOM      9  C   UNL     1      49.866   4.985  20.786  0.00  0.00    +0.000 C 
ATOM     10  C   UNL     1      48.880   5.973  21.406  0.00  0.00    +0.000 C 
ATOM     11  N   UNL     1      49.303   7.369  21.289  0.00  0.00    +0.000 NA
ATOM     12  C   UNL     1      49.686   7.768  19.935  0.00  0.00    +0.000 C 
ATOM     13  C   UNL     1      50.703   6.824  19.291  0.00  0.00    +0.000 C 
ATOM     14  H   UNL     1      50.100   7.517  21.909  0.00  0.00    +0.000 HD
ENDBRANCH   6   8
BRANCH   1  15
ATOM     15  C   UNL     1      48.096   6.195  14.874  0.00  0.00    +0.000 C 
BRANCH  15  16
ATOM     16  O   UNL     1      48.050   5.343  13.732  0.00  0.00    +0.000 OA
BRANCH  16  21
ATOM     17  C   UNL     1      44.832   4.617  12.039  0.00  0.00    +0.000 A 
ATOM     18  C   UNL     1      44.735   5.819  11.352  0.00  0.00    +0.000 A 
ATOM     19  N   UNL     1      45.655   6.809  11.445  0.00  0.00    +0.000 NA
ATOM     20  C   UNL     1      46.718   6.570  12.252  0.00  0.00    +0.000 A 
ATOM     21  C   UNL     1      46.918   5.393  12.972  0.00  0.00    +0.000 A 
ATOM     22  C   UNL     1      45.952   4.395  12.850  0.00  0.00    +0.000 A 
BRANCH  17  24
ATOM     23  N   UNL     1      43.838   2.478  12.617  0.00  0.00    +0.000 N 
ATOM     24  C   UNL     1      43.751   3.625  11.879  0.00  0.00    +0.000 C 
ATOM     25  O   UNL     1      42.789   3.836  11.149  0.00  0.00    +0.000 OA
ATOM     26  H   UNL     1      43.024   1.873  12.593  0.00  0.00    +0.000 HD
ATOM     27  H   UNL     1      44.446   2.396  13.421  0.00  0.00    +0.000 HD
ENDBRANCH  17  24
ENDBRANCH  16  21
ENDBRANCH  15  16
ENDBRANCH   1  15
TORSDOF 5
ENDMDL
