MODEL 1
REMARK VINA RESULT:    -8.524      0.000      0.000
REMARK INTER + INTRA:         -13.435
REMARK INTER:                 -12.012
REMARK INTRA:                  -1.422
REMARK UNBOUND:                -1.422
REMARK  Name = 
REMARK  7 active torsions:
REMARK  status: ('A' for Active; 'I' for Inactive)
REMARK    1  A    between atoms: C_2  and  C_20
REMARK    2  A    between atoms: N_3  and  C_4
REMARK    3  A    between atoms: C_4  and  C_5
REMARK    4  A    between atoms: C_8  and  C_9
REMARK    5  A    between atoms: C_9  and  N_10
REMARK    6  A    between atoms: N_10  and  C_11
REMARK    7  A    between atoms: C_11  and  C_12
REMARK                            x       y       z     vdW  Elec       q    Type
REMARK                         _______ _______ _______ _____ _____    ______ ____
ROOT
ATOM      1  C   UNL     1      45.922   6.847  12.332  0.00  0.00    +0.000 A 
ATOM      2  C   UNL     1      44.852   6.322  13.065  0.00  0.00    +0.000 A 
ATOM      3  C   UNL     1      44.085   5.273  12.554  0.00  0.00    +0.000 A 
ATOM      4  C   UNL     1      44.380   4.723  11.296  0.00  0.00    +0.000 A 
ATOM      5  C   UNL     1      45.464   5.236  10.572  0.00  0.00    +0.000 A 
ATOM      6  C   UNL     1      46.233   6.286  11.087  0.00  0.00    +0.000 A 
ENDROOT
BRANCH   1   7
ATOM      7  C   UNL     1      46.724   7.995  12.886  0.00  0.00    +0.000 C 
BRANCH   7  10
ATOM      8  O   UNL     1      49.109   6.542  13.183  0.00  0.00    +0.000 OA
ATOM      9  C   UNL     1      48.531   6.938  14.188  0.00  0.00    +0.000 C 
ATOM     10  N   UNL     1      47.350   7.650  14.139  0.00  0.00    +0.000 N 
ATOM     11  H   UNL     1      46.993   8.082  14.979  0.00  0.00    +0.000 HD
BRANCH   9  12
ATOM     12  C   UNL     1      49.005   6.635  15.541  0.00  0.00    +0.000 A 
ATOM     13  C   UNL     1      49.912   7.464  16.187  0.00  0.00    +0.000 A 
ATOM     14  S   UNL     1      50.232   7.000  17.792  0.00  0.00    +0.000 S 
ATOM     15  C   UNL     1      49.165   5.687  17.672  0.00  0.00    +0.000 A 
ATOM     16  N   UNL     1      48.967   4.881  18.736  0.00  0.00    +0.000 NA
ATOM     17  N   UNL     1      48.152   3.865  18.620  0.00  0.00    +0.000 NA
ATOM     18  C   UNL     1      47.551   3.630  17.439  0.00  0.00    +0.000 A 
ATOM     19  C   UNL     1      47.732   4.425  16.322  0.00  0.00    +0.000 A 
ATOM     20 CL   UNL     1      47.025   4.004  14.832  0.00  0.00    +0.000 Cl
ATOM     21  C   UNL     1      48.573   5.552  16.418  0.00  0.00    +0.000 A 
ENDBRANCH   9  12
ENDBRANCH   7  10
ENDBRANCH   1   7
BRANCH   4  22
ATOM     22  C   UNL     1      43.554   3.585  10.738  0.00  0.00    +0.000 C 
BRANCH  22  23
ATOM     23  N   UNL     1      43.910   3.306   9.351  0.00  0.00    +0.000 NA
ATOM     24  H   UNL     1      44.467   4.075   8.982  0.00  0.00    +0.000 HD
BRANCH  23  25
ATOM     25  C   UNL     1      44.670   2.065   9.230  0.00  0.00    +0.000 C 
BRANCH  25  26
ATOM     26  C   UNL     1      45.721   2.180   8.151  0.00  0.00    +0.000 A 
ATOM     27  C   UNL     1      46.608   1.128   7.884  0.00  0.00    +0.000 A 
ATOM     28  C   UNL     1      47.558   1.243   6.866  0.00  0.00    +0.000 A 
ATOM     29  C   UNL     1      47.631   2.410   6.106  0.00  0.00    +0.000 A 
ATOM     30  C   UNL     1      46.761   3.465   6.367  0.00  0.00    +0.000 A 
ATOM     31  C   UNL     1      45.812   3.351   7.383  0.00  0.00    +0.000 A 
ENDBRANCH  25  26
ENDBRANCH  23  25
ENDBRANCH  22  23
ENDBRANCH   4  22
TORSDOF 7
ENDMDL
MODEL 2
REMARK VINA RESULT:    -8.104      2.102      2.691
REMARK INTER + INTRA:         -12.843
REMARK INTER:                 -11.782
REMARK INTRA:                  -1.061
REMARK UNBOUND:                -1.422
REMARK  Name = 
REMARK  7 active torsions:
REMARK  status: ('A' for Active; 'I' for Inactive)
REMARK    1  A    between atoms: C_2  and  C_20
REMARK    2  A    between atoms: N_3  and  C_4
REMARK    3  A    between atoms: C_4  and  C_5
REMARK    4  A    between atoms: C_8  and  C_9
REMARK    5  A    between atoms: C_9  and  N_10
REMARK    6  A    between atoms: N_10  and  C_11
REMARK    7  A    between atoms: C_11  and  C_12
REMARK                            x       y       z     vdW  Elec       q    Type
REMARK                         _______ _______ _______ _____ _____    ______ ____
ROOT
ATOM      1  C   UNL     1      46.853   5.847  12.968  0.00  0.00    +0.000 A 
ATOM      2  C   UNL     1      46.114   4.820  13.565  0.00  0.00    +0.000 A 
ATOM      3  C   UNL     1      45.023   4.252  12.906  0.00  0.00    +0.000 A 
ATOM      4  C   UNL     1      44.652   4.699  11.628  0.00  0.00    +0.000 A 
ATOM      5  C   UNL     1      45.404   5.714  11.023  0.00  0.00    +0.000 A 
ATOM      6  C   UNL     1      46.500   6.280  11.684  0.00  0.00    +0.000 A 
ENDROOT
BRANCH   1   7
ATOM      7  C   UNL     1      48.013   6.466  13.703  0.00  0.00    +0.000 C 
BRANCH   7  10
ATOM      8  O   UNL     1      50.145   6.522  15.530  0.00  0.00    +0.000 OA
ATOM      9  C   UNL     1      49.013   6.322  15.952  0.00  0.00    +0.000 C 
ATOM     10  N   UNL     1      47.907   6.268  15.128  0.00  0.00    +0.000 N 
ATOM     11  H   UNL     1      46.983   6.250  15.534  0.00  0.00    +0.000 HD
BRANCH   9  12
ATOM     12  C   UNL     1      48.733   6.052  17.365  0.00  0.00    +0.000 A 
ATOM     13  C   UNL     1      48.905   4.783  17.902  0.00  0.00    +0.000 A 
ATOM     14  S   UNL     1      48.648   4.717  19.582  0.00  0.00    +0.000 S 
ATOM     15  C   UNL     1      48.309   6.377  19.641  0.00  0.00    +0.000 A 
ATOM     16  N   UNL     1      48.020   6.964  20.821  0.00  0.00    +0.000 NA
ATOM     17  N   UNL     1      47.746   8.242  20.845  0.00  0.00    +0.000 NA
ATOM     18  C   UNL     1      47.732   8.937  19.693  0.00  0.00    +0.000 A 
ATOM     19  C   UNL     1      48.013   8.374  18.461  0.00  0.00    +0.000 A 
ATOM     20 CL   UNL     1      47.867   9.291  17.033  0.00  0.00    +0.000 Cl
ATOM     21  C   UNL     1      48.350   7.008  18.399  0.00  0.00    +0.000 A 
ENDBRANCH   9  12
ENDBRANCH   7  10
ENDBRANCH   1   7
BRANCH   4  22
ATOM     22  C   UNL     1      43.471   4.085  10.907  0.00  0.00    +0.000 C 
BRANCH  22  23
ATOM     23  N   UNL     1      43.831   3.686   9.551  0.00  0.00    +0.000 NA
ATOM     24  H   UNL     1      44.394   4.418   9.120  0.00  0.00    +0.000 HD
BRANCH  23  25
ATOM     25  C   UNL     1      44.585   2.435   9.540  0.00  0.00    +0.000 C 
BRANCH  25  26
ATOM     26  C   UNL     1      45.582   2.416   8.406  0.00  0.00    +0.000 A 
ATOM     27  C   UNL     1      45.819   3.556   7.626  0.00  0.00    +0.000 A 
ATOM     28  C   UNL     1      46.764   3.527   6.598  0.00  0.00    +0.000 A 
ATOM     29  C   UNL     1      47.479   2.359   6.337  0.00  0.00    +0.000 A 
ATOM     30  C   UNL     1      47.245   1.217   7.099  0.00  0.00    +0.000 A 
ATOM     31  C   UNL     1      46.303   1.245   8.127  0.00  0.00    +0.000 A 
ENDBRANCH  25  26
ENDBRANCH  23  25
ENDBRANCH  22  23
ENDBRANCH   4  22
TORSDOF 7
ENDMDL
MODEL 3
REMARK VINA RESULT:    -7.953      1.687      2.214
REMARK INTER + INTRA:         -12.630
REMARK INTER:                 -11.631
REMARK INTRA:                  -1.000
REMARK UNBOUND:                -1.422
REMARK  Name = 
REMARK  7 active torsions:
REMARK  status: ('A' for Active; 'I' for Inactive)
REMARK    1  A    between atoms: C_2  and  C_20
REMARK    2  A    between atoms: N_3  and  C_4
REMARK    3  A    between atoms: C_4  and  C_5
REMARK    4  A    between atoms: C_8  and  C_9
REMARK    5  A    between atoms: C_9  and  N_10
REMARK    6  A    between atoms: N_10  and  C_11
REMARK    7  A    between atoms: C_11  and  C_12
REMARK                            x       y       z     vdW  Elec       q    Type
REMARK                         _______ _______ _______ _____ _____    ______ ____
ROOT
ATOM      1  C   UNL     1      47.071   6.116  12.883  0.00  0.00    +0.000 A 
ATOM      2  C   UNL     1      46.695   6.564  11.612  0.00  0.00    +0.000 A 
ATOM      3  C   UNL     1      45.554   6.057  10.988  0.00  0.00    +0.000 A 
ATOM      4  C   UNL     1      44.760   5.093  11.629  0.00  0.00    +0.000 A 
ATOM      5  C   UNL     1      45.127   4.661  12.910  0.00  0.00    +0.000 A 
ATOM      6  C   UNL     1      46.269   5.172  13.536  0.00  0.00    +0.000 A 
ENDROOT
BRANCH   1   7
ATOM      7  C   UNL     1      48.319   6.654  13.532  0.00  0.00    +0.000 C 
BRANCH   7  10
ATOM      8  O   UNL     1      50.275   6.567  15.546  0.00  0.00    +0.000 OA
ATOM      9  C   UNL     1      49.134   6.893  15.847  0.00  0.00    +0.000 C 
ATOM     10  N   UNL     1      48.107   6.955  14.927  0.00  0.00    +0.000 N 
ATOM     11  H   UNL     1      47.226   7.371  15.190  0.00  0.00    +0.000 HD
BRANCH   9  12
ATOM     12  C   UNL     1      48.735   7.185  17.227  0.00  0.00    +0.000 A 
ATOM     13  C   UNL     1      48.273   8.443  17.590  0.00  0.00    +0.000 A 
ATOM     14  S   UNL     1      47.746   8.532  19.205  0.00  0.00    +0.000 S 
ATOM     15  C   UNL     1      48.110   6.895  19.460  0.00  0.00    +0.000 A 
ATOM     16  N   UNL     1      47.869   6.332  20.662  0.00  0.00    +0.000 NA
ATOM     17  N   UNL     1      48.170   5.073  20.846  0.00  0.00    +0.000 NA
ATOM     18  C   UNL     1      48.737   4.376  19.844  0.00  0.00    +0.000 A 
ATOM     19  C   UNL     1      49.009   4.915  18.600  0.00  0.00    +0.000 A 
ATOM     20 CL   UNL     1      49.828   4.004  17.418  0.00  0.00    +0.000 Cl
ATOM     21  C   UNL     1      48.664   6.259  18.351  0.00  0.00    +0.000 A 
ENDBRANCH   9  12
ENDBRANCH   7  10
ENDBRANCH   1   7
BRANCH   4  22
ATOM     22  C   UNL     1      43.520   4.543  10.959  0.00  0.00    +0.000 C 
BRANCH  22  23
ATOM     23  N   UNL     1      43.818   4.062   9.613  0.00  0.00    +0.000 NA
ATOM     24  H   UNL     1      44.443   4.720   9.149  0.00  0.00    +0.000 HD
BRANCH  23  25
ATOM     25  C   UNL     1      44.445   2.744   9.639  0.00  0.00    +0.000 C 
BRANCH  25  26
ATOM     26  C   UNL     1      45.457   2.607   8.527  0.00  0.00    +0.000 A 
ATOM     27  C   UNL     1      45.796   3.695   7.712  0.00  0.00    +0.000 A 
ATOM     28  C   UNL     1      46.752   3.555   6.704  0.00  0.00    +0.000 A 
ATOM     29  C   UNL     1      47.378   2.326   6.498  0.00  0.00    +0.000 A 
ATOM     30  C   UNL     1      47.042   1.234   7.295  0.00  0.00    +0.000 A 
ATOM     31  C   UNL     1      46.088   1.373   8.303  0.00  0.00    +0.000 A 
ENDBRANCH  25  26
ENDBRANCH  23  25
ENDBRANCH  22  23
ENDBRANCH   4  22
TORSDOF 7
ENDMDL
MODEL 4
REMARK VINA RESULT:    -7.125      2.331      2.939
REMARK INTER + INTRA:         -11.462
REMARK INTER:                 -10.682
REMARK INTRA:                  -0.781
REMARK UNBOUND:                -1.422
REMARK  Name = 
REMARK  7 active torsions:
REMARK  status: ('A' for Active; 'I' for Inactive)
REMARK    1  A    between atoms: C_2  and  C_20
REMARK    2  A    between atoms: N_3  and  C_4
REMARK    3  A    between atoms: C_4  and  C_5
REMARK    4  A    between atoms: C_8  and  C_9
REMARK    5  A    between atoms: C_9  and  N_10
REMARK    6  A    between atoms: N_10  and  C_11
REMARK    7  A    between atoms: C_11  and  C_12
REMARK                            x       y       z     vdW  Elec       q    Type
REMARK                         _______ _______ _______ _____ _____    ______ ____
ROOT
ATOM      1  C   UNL     1      46.963   6.065  13.352  0.00  0.00    +0.000 A 
ATOM      2  C   UNL     1      46.096   6.518  12.350  0.00  0.00    +0.000 A 
ATOM      3  C   UNL     1      45.196   5.643  11.740  0.00  0.00    +0.000 A 
ATOM      4  C   UNL     1      45.139   4.295  12.126  0.00  0.00    +0.000 A 
ATOM      5  C   UNL     1      45.993   3.848  13.142  0.00  0.00    +0.000 A 
ATOM      6  C   UNL     1      46.894   4.726  13.756  0.00  0.00    +0.000 A 
ENDROOT
BRANCH   1   7
ATOM      7  C   UNL     1      47.946   7.015  13.983  0.00  0.00    +0.000 C 
BRANCH   7  10
ATOM      8  O   UNL     1      50.264   6.561  15.502  0.00  0.00    +0.000 OA
ATOM      9  C   UNL     1      49.188   6.644  16.080  0.00  0.00    +0.000 C 
ATOM     10  N   UNL     1      47.996   6.855  15.415  0.00  0.00    +0.000 N 
ATOM     11  H   UNL     1      47.162   7.065  15.943  0.00  0.00    +0.000 HD
BRANCH   9  12
ATOM     12  C   UNL     1      49.053   6.457  17.527  0.00  0.00    +0.000 A 
ATOM     13  C   UNL     1      48.241   5.459  18.050  0.00  0.00    +0.000 A 
ATOM     14  S   UNL     1      48.326   5.334  19.744  0.00  0.00    +0.000 S 
ATOM     15  C   UNL     1      49.452   6.599  19.826  0.00  0.00    +0.000 A 
ATOM     16  N   UNL     1      49.950   6.981  21.021  0.00  0.00    +0.000 NA
ATOM     17  N   UNL     1      50.806   7.968  21.066  0.00  0.00    +0.000 NA
ATOM     18  C   UNL     1      51.150   8.598  19.927  0.00  0.00    +0.000 A 
ATOM     19  C   UNL     1      50.658   8.246  18.683  0.00  0.00    +0.000 A 
ATOM     20 CL   UNL     1      51.053   9.158  17.302  0.00  0.00    +0.000 Cl
ATOM     21  C   UNL     1      49.762   7.162  18.589  0.00  0.00    +0.000 A 
ENDBRANCH   9  12
ENDBRANCH   7  10
ENDBRANCH   1   7
BRANCH   4  22
ATOM     22  C   UNL     1      44.163   3.343  11.470  0.00  0.00    +0.000 C 
BRANCH  22  23
ATOM     23  N   UNL     1      44.830   2.502  10.482  0.00  0.00    +0.000 NA
ATOM     24  H   UNL     1      44.572   1.528  10.637  0.00  0.00    +0.000 HD
BRANCH  23  25
ATOM     25  C   UNL     1      44.466   2.880   9.119  0.00  0.00    +0.000 C 
BRANCH  25  26
ATOM     26  C   UNL     1      45.592   2.583   8.158  0.00  0.00    +0.000 A 
ATOM     27  C   UNL     1      46.254   1.347   8.172  0.00  0.00    +0.000 A 
ATOM     28  C   UNL     1      47.276   1.081   7.258  0.00  0.00    +0.000 A 
ATOM     29  C   UNL     1      47.650   2.046   6.324  0.00  0.00    +0.000 A 
ATOM     30  C   UNL     1      47.006   3.281   6.306  0.00  0.00    +0.000 A 
ATOM     31  C   UNL     1      45.984   3.548   7.218  0.00  0.00    +0.000 A 
ENDBRANCH  25  26
ENDBRANCH  23  25
ENDBRANCH  22  23
ENDBRANCH   4  22
TORSDOF 7
ENDMDL
MODEL 5
REMARK VINA RESULT:    -7.047      3.174      5.091
REMARK INTER + INTRA:         -11.353
REMARK INTER:                 -10.312
REMARK INTRA:                  -1.041
REMARK UNBOUND:                -1.422
REMARK  Name = 
REMARK  7 active torsions:
REMARK  status: ('A' for Active; 'I' for Inactive)
REMARK    1  A    between atoms: C_2  and  C_20
REMARK    2  A    between atoms: N_3  and  C_4
REMARK    3  A    between atoms: C_4  and  C_5
REMARK    4  A    between atoms: C_8  and  C_9
REMARK    5  A    between atoms: C_9  and  N_10
REMARK    6  A    between atoms: N_10  and  C_11
REMARK    7  A    between atoms: C_11  and  C_12
REMARK                            x       y       z     vdW  Elec       q    Type
REMARK                         _______ _______ _______ _____ _____    ______ ____
ROOT
ATOM      1  C   UNL     1      46.816   5.742  13.145  0.00  0.00    +0.000 A 
ATOM      2  C   UNL     1      46.638   6.340  11.893  0.00  0.00    +0.000 A 
ATOM      3  C   UNL     1      45.571   5.968  11.072  0.00  0.00    +0.000 A 
ATOM      4  C   UNL     1      44.655   4.991  11.493  0.00  0.00    +0.000 A 
ATOM      5  C   UNL     1      44.824   4.408  12.756  0.00  0.00    +0.000 A 
ATOM      6  C   UNL     1      45.891   4.784  13.579  0.00  0.00    +0.000 A 
ENDROOT
BRANCH   1   7
ATOM      7  C   UNL     1      47.985   6.137  14.008  0.00  0.00    +0.000 C 
BRANCH   7  10
ATOM      8  O   UNL     1      47.945   8.852  14.726  0.00  0.00    +0.000 OA
ATOM      9  C   UNL     1      48.690   8.492  13.823  0.00  0.00    +0.000 C 
ATOM     10  N   UNL     1      48.769   7.182  13.397  0.00  0.00    +0.000 N 
ATOM     11  H   UNL     1      49.501   6.909  12.758  0.00  0.00    +0.000 HD
BRANCH   9  12
ATOM     12  C   UNL     1      49.519   9.432  13.063  0.00  0.00    +0.000 A 
ATOM     13  C   UNL     1      50.891   9.504  13.265  0.00  0.00    +0.000 A 
ATOM     14  S   UNL     1      51.679  10.566  12.195  0.00  0.00    +0.000 S 
ATOM     15  C   UNL     1      50.216  10.952  11.430  0.00  0.00    +0.000 A 
ATOM     16  N   UNL     1      50.205  11.815  10.393  0.00  0.00    +0.000 NA
ATOM     17  N   UNL     1      49.066  12.113   9.824  0.00  0.00    +0.000 NA
ATOM     18  C   UNL     1      47.928  11.574  10.302  0.00  0.00    +0.000 A 
ATOM     19  C   UNL     1      47.892  10.692  11.367  0.00  0.00    +0.000 A 
ATOM     20 CL   UNL     1      46.406  10.137  11.985  0.00  0.00    +0.000 Cl
ATOM     21  C   UNL     1      49.104  10.318  11.981  0.00  0.00    +0.000 A 
ENDBRANCH   9  12
ENDBRANCH   7  10
ENDBRANCH   1   7
BRANCH   4  22
ATOM     22  C   UNL     1      43.497   4.586  10.609  0.00  0.00    +0.000 C 
BRANCH  22  23
ATOM     23  N   UNL     1      43.889   3.538   9.672  0.00  0.00    +0.000 NA
ATOM     24  H   UNL     1      43.065   3.009   9.391  0.00  0.00    +0.000 HD
BRANCH  23  25
ATOM     25  C   UNL     1      44.529   4.093   8.482  0.00  0.00    +0.000 C 
BRANCH  25  26
ATOM     26  C   UNL     1      45.565   3.141   7.934  0.00  0.00    +0.000 A 
ATOM     27  C   UNL     1      46.464   3.540   6.935  0.00  0.00    +0.000 A 
ATOM     28  C   UNL     1      47.431   2.653   6.457  0.00  0.00    +0.000 A 
ATOM     29  C   UNL     1      47.510   1.359   6.971  0.00  0.00    +0.000 A 
ATOM     30  C   UNL     1      46.617   0.948   7.958  0.00  0.00    +0.000 A 
ATOM     31  C   UNL     1      45.650   1.834   8.436  0.00  0.00    +0.000 A 
ENDBRANCH  25  26
ENDBRANCH  23  25
ENDBRANCH  22  23
ENDBRANCH   4  22
TORSDOF 7
ENDMDL
MODEL 6
REMARK VINA RESULT:    -6.939      3.706      4.988
REMARK INTER + INTRA:         -11.201
REMARK INTER:                  -9.966
REMARK INTRA:                  -1.236
REMARK UNBOUND:                -1.422
REMARK  Name = 
REMARK  7 active torsions:
REMARK  status: ('A' for Active; 'I' for Inactive)
REMARK    1  A    between atoms: C_2  and  C_20
REMARK    2  A    between atoms: N_3  and  C_4
REMARK    3  A    between atoms: C_4  and  C_5
REMARK    4  A    between atoms: C_8  and  C_9
REMARK    5  A    between atoms: C_9  and  N_10
REMARK    6  A    between atoms: N_10  and  C_11
REMARK    7  A    between atoms: C_11  and  C_12
REMARK                            x       y       z     vdW  Elec       q    Type
REMARK                         _______ _______ _______ _____ _____    ______ ____
ROOT
ATOM      1  C   UNL     1      45.648   7.480  12.505  0.00  0.00    +0.000 A 
ATOM      2  C   UNL     1      46.321   6.440  13.157  0.00  0.00    +0.000 A 
ATOM      3  C   UNL     1      46.084   5.110  12.807  0.00  0.00    +0.000 A 
ATOM      4  C   UNL     1      45.170   4.792  11.790  0.00  0.00    +0.000 A 
ATOM      5  C   UNL     1      44.512   5.835  11.125  0.00  0.00    +0.000 A 
ATOM      6  C   UNL     1      44.753   7.169  11.475  0.00  0.00    +0.000 A 
ENDROOT
BRANCH   1   7
ATOM      7  C   UNL     1      45.897   8.909  12.911  0.00  0.00    +0.000 C 
BRANCH   7  10
ATOM      8  O   UNL     1      48.281   9.706  14.163  0.00  0.00    +0.000 OA
ATOM      9  C   UNL     1      48.190   9.814  12.947  0.00  0.00    +0.000 C 
ATOM     10  N   UNL     1      47.055   9.457  12.247  0.00  0.00    +0.000 N 
ATOM     11  H   UNL     1      47.081   9.422  11.239  0.00  0.00    +0.000 HD
BRANCH   9  12
ATOM     12  C   UNL     1      49.255  10.396  12.125  0.00  0.00    +0.000 A 
ATOM     13  C   UNL     1      49.356  11.770  11.950  0.00  0.00    +0.000 A 
ATOM     14  S   UNL     1      50.731  12.241  11.067  0.00  0.00    +0.000 S 
ATOM     15  C   UNL     1      51.233  10.629  10.902  0.00  0.00    +0.000 A 
ATOM     16  N   UNL     1      52.377  10.344  10.247  0.00  0.00    +0.000 NA
ATOM     17  N   UNL     1      52.741   9.095  10.116  0.00  0.00    +0.000 NA
ATOM     18  C   UNL     1      51.953   8.122  10.612  0.00  0.00    +0.000 A 
ATOM     19  C   UNL     1      50.768   8.369  11.282  0.00  0.00    +0.000 A 
ATOM     20 CL   UNL     1      49.771   7.085  11.785  0.00  0.00    +0.000 Cl
ATOM     21  C   UNL     1      50.363   9.705  11.476  0.00  0.00    +0.000 A 
ENDBRANCH   9  12
ENDBRANCH   7  10
ENDBRANCH   1   7
BRANCH   4  22
ATOM     22  C   UNL     1      44.910   3.353  11.406  0.00  0.00    +0.000 C 
BRANCH  22  23
ATOM     23  N   UNL     1      44.216   3.265  10.125  0.00  0.00    +0.000 NA
ATOM     24  H   UNL     1      44.497   4.046   9.534  0.00  0.00    +0.000 HD
BRANCH  23  25
ATOM     25  C   UNL     1      44.515   2.013   9.436  0.00  0.00    +0.000 C 
BRANCH  25  26
ATOM     26  C   UNL     1      45.605   2.210   8.408  0.00  0.00    +0.000 A 
ATOM     27  C   UNL     1      45.806   3.451   7.790  0.00  0.00    +0.000 A 
ATOM     28  C   UNL     1      46.835   3.621   6.860  0.00  0.00    +0.000 A 
ATOM     29  C   UNL     1      47.671   2.553   6.538  0.00  0.00    +0.000 A 
ATOM     30  C   UNL     1      47.475   1.312   7.139  0.00  0.00    +0.000 A 
ATOM     31  C   UNL     1      46.448   1.141   8.068  0.00  0.00    +0.000 A 
ENDBRANCH  25  26
ENDBRANCH  23  25
ENDBRANCH  22  23
ENDBRANCH   4  22
TORSDOF 7
ENDMDL
MODEL 7
REMARK VINA RESULT:    -6.509      3.851      5.143
REMARK INTER + INTRA:         -10.595
REMARK INTER:                  -9.658
REMARK INTRA:                  -0.936
REMARK UNBOUND:                -1.422
REMARK  Name = 
REMARK  7 active torsions:
REMARK  status: ('A' for Active; 'I' for Inactive)
REMARK    1  A    between atoms: C_2  and  C_20
REMARK    2  A    between atoms: N_3  and  C_4
REMARK    3  A    between atoms: C_4  and  C_5
REMARK    4  A    between atoms: C_8  and  C_9
REMARK    5  A    between atoms: C_9  and  N_10
REMARK    6  A    between atoms: N_10  and  C_11
REMARK    7  A    between atoms: C_11  and  C_12
REMARK                            x       y       z     vdW  Elec       q    Type
REMARK                         _______ _______ _______ _____ _____    ______ ____
ROOT
ATOM      1  C   UNL     1      46.457   6.962  12.876  0.00  0.00    +0.000 A 
ATOM      2  C   UNL     1      46.747   5.640  13.233  0.00  0.00    +0.000 A 
ATOM      3  C   UNL     1      45.984   4.584  12.731  0.00  0.00    +0.000 A 
ATOM      4  C   UNL     1      44.916   4.831  11.853  0.00  0.00    +0.000 A 
ATOM      5  C   UNL     1      44.640   6.153  11.482  0.00  0.00    +0.000 A 
ATOM      6  C   UNL     1      45.407   7.210  11.984  0.00  0.00    +0.000 A 
ENDROOT
BRANCH   1   7
ATOM      7  C   UNL     1      47.273   8.092  13.447  0.00  0.00    +0.000 C 
BRANCH   7  10
ATOM      8  O   UNL     1      48.420   9.734  11.479  0.00  0.00    +0.000 OA
ATOM      9  C   UNL     1      49.122   8.895  12.028  0.00  0.00    +0.000 C 
ATOM     10  N   UNL     1      48.643   8.038  12.998  0.00  0.00    +0.000 N 
ATOM     11  H   UNL     1      49.289   7.470  13.525  0.00  0.00    +0.000 HD
BRANCH   9  12
ATOM     12  C   UNL     1      50.523   8.674  11.658  0.00  0.00    +0.000 A 
ATOM     13  C   UNL     1      50.895   7.594  10.868  0.00  0.00    +0.000 A 
ATOM     14  S   UNL     1      52.545   7.595  10.454  0.00  0.00    +0.000 S 
ATOM     15  C   UNL     1      52.806   9.036  11.308  0.00  0.00    +0.000 A 
ATOM     16  N   UNL     1      54.035   9.591  11.333  0.00  0.00    +0.000 NA
ATOM     17  N   UNL     1      54.221  10.694  12.009  0.00  0.00    +0.000 NA
ATOM     18  C   UNL     1      53.192  11.236  12.687  0.00  0.00    +0.000 A 
ATOM     19  C   UNL     1      51.918  10.696  12.696  0.00  0.00    +0.000 A 
ATOM     20 CL   UNL     1      50.694  11.374  13.665  0.00  0.00    +0.000 Cl
ATOM     21  C   UNL     1      51.670   9.528  11.948  0.00  0.00    +0.000 A 
ENDBRANCH   9  12
ENDBRANCH   7  10
ENDBRANCH   1   7
BRANCH   4  22
ATOM     22  C   UNL     1      44.089   3.690  11.303  0.00  0.00    +0.000 C 
BRANCH  22  23
ATOM     23  N   UNL     1      44.178   3.626   9.848  0.00  0.00    +0.000 NA
ATOM     24  H   UNL     1      44.886   4.284   9.523  0.00  0.00    +0.000 HD
BRANCH  23  25
ATOM     25  C   UNL     1      44.527   2.285   9.389  0.00  0.00    +0.000 C 
BRANCH  25  26
ATOM     26  C   UNL     1      45.585   2.341   8.313  0.00  0.00    +0.000 A 
ATOM     27  C   UNL     1      45.794   3.503   7.558  0.00  0.00    +0.000 A 
ATOM     28  C   UNL     1      46.794   3.545   6.584  0.00  0.00    +0.000 A 
ATOM     29  C   UNL     1      47.592   2.425   6.352  0.00  0.00    +0.000 A 
ATOM     30  C   UNL     1      47.388   1.262   7.089  0.00  0.00    +0.000 A 
ATOM     31  C   UNL     1      46.390   1.219   8.063  0.00  0.00    +0.000 A 
ENDBRANCH  25  26
ENDBRANCH  23  25
ENDBRANCH  22  23
ENDBRANCH   4  22
TORSDOF 7
ENDMDL
MODEL 8
REMARK VINA RESULT:    -6.441      3.364      4.798
REMARK INTER + INTRA:         -10.499
REMARK INTER:                  -9.634
REMARK INTRA:                  -0.865
REMARK UNBOUND:                -1.422
REMARK  Name = 
REMARK  7 active torsions:
REMARK  status: ('A' for Active; 'I' for Inactive)
REMARK    1  A    between atoms: C_2  and  C_20
REMARK    2  A    between atoms: N_3  and  C_4
REMARK    3  A    between atoms: C_4  and  C_5
REMARK    4  A    between atoms: C_8  and  C_9
REMARK    5  A    between atoms: C_9  and  N_10
REMARK    6  A    between atoms: N_10  and  C_11
REMARK    7  A    between atoms: C_11  and  C_12
REMARK                            x       y       z     vdW  Elec       q    Type
REMARK                         _______ _______ _______ _____ _____    ______ ____
ROOT
ATOM      1  C   UNL     1      46.931   5.765  13.297  0.00  0.00    +0.000 A 
ATOM      2  C   UNL     1      46.786   6.333  12.027  0.00  0.00    +0.000 A 
ATOM      3  C   UNL     1      45.746   5.937  11.184  0.00  0.00    +0.000 A 
ATOM      4  C   UNL     1      44.823   4.964  11.601  0.00  0.00    +0.000 A 
ATOM      5  C   UNL     1      44.958   4.411  12.880  0.00  0.00    +0.000 A 
ATOM      6  C   UNL     1      45.999   4.811  13.725  0.00  0.00    +0.000 A 
ENDROOT
BRANCH   1   7
ATOM      7  C   UNL     1      48.073   6.185  14.184  0.00  0.00    +0.000 C 
BRANCH   7  10
ATOM      8  O   UNL     1      47.867   8.892  14.904  0.00  0.00    +0.000 OA
ATOM      9  C   UNL     1      48.663   8.574  14.029  0.00  0.00    +0.000 C 
ATOM     10  N   UNL     1      48.825   7.271  13.604  0.00  0.00    +0.000 N 
ATOM     11  H   UNL     1      49.594   7.038  12.993  0.00  0.00    +0.000 HD
BRANCH   9  12
ATOM     12  C   UNL     1      49.472   9.557  13.303  0.00  0.00    +0.000 A 
ATOM     13  C   UNL     1      49.277   9.785  11.947  0.00  0.00    +0.000 A 
ATOM     14  S   UNL     1      50.230  11.051  11.329  0.00  0.00    +0.000 S 
ATOM     15  C   UNL     1      50.921  11.334  12.851  0.00  0.00    +0.000 A 
ATOM     16  N   UNL     1      51.826  12.323  13.007  0.00  0.00    +0.000 NA
ATOM     17  N   UNL     1      52.360  12.517  14.185  0.00  0.00    +0.000 NA
ATOM     18  C   UNL     1      52.017  11.711  15.207  0.00  0.00    +0.000 A 
ATOM     19  C   UNL     1      51.101  10.681  15.090  0.00  0.00    +0.000 A 
ATOM     20 CL   UNL     1      50.800   9.634  16.398  0.00  0.00    +0.000 Cl
ATOM     21  C   UNL     1      50.476  10.465  13.845  0.00  0.00    +0.000 A 
ENDBRANCH   9  12
ENDBRANCH   7  10
ENDBRANCH   1   7
BRANCH   4  22
ATOM     22  C   UNL     1      43.692   4.532  10.693  0.00  0.00    +0.000 C 
BRANCH  22  23
ATOM     23  N   UNL     1      44.106   3.441   9.817  0.00  0.00    +0.000 NA
ATOM     24  H   UNL     1      43.338   2.779   9.715  0.00  0.00    +0.000 HD
BRANCH  23  25
ATOM     25  C   UNL     1      44.495   3.928   8.497  0.00  0.00    +0.000 C 
BRANCH  25  26
ATOM     26  C   UNL     1      45.565   3.051   7.892  0.00  0.00    +0.000 A 
ATOM     27  C   UNL     1      46.386   3.515   6.855  0.00  0.00    +0.000 A 
ATOM     28  C   UNL     1      47.387   2.698   6.325  0.00  0.00    +0.000 A 
ATOM     29  C   UNL     1      47.576   1.410   6.822  0.00  0.00    +0.000 A 
ATOM     30  C   UNL     1      46.760   0.934   7.845  0.00  0.00    +0.000 A 
ATOM     31  C   UNL     1      45.760   1.749   8.377  0.00  0.00    +0.000 A 
ENDBRANCH  25  26
ENDBRANCH  23  25
ENDBRANCH  22  23
ENDBRANCH   4  22
TORSDOF 7
ENDMDL
MODEL 9
REMARK VINA RESULT:    -6.267      2.865      8.413
REMARK INTER + INTRA:         -10.254
REMARK INTER:                  -8.710
REMARK INTRA:                  -1.545
REMARK UNBOUND:                -1.422
REMARK  Name = 
REMARK  7 active torsions:
REMARK  status: ('A' for Active; 'I' for Inactive)
REMARK    1  A    between atoms: C_2  and  C_20
REMARK    2  A    between atoms: N_3  and  C_4
REMARK    3  A    between atoms: C_4  and  C_5
REMARK    4  A    between atoms: C_8  and  C_9
REMARK    5  A    between atoms: C_9  and  N_10
REMARK    6  A    between atoms: N_10  and  C_11
REMARK    7  A    between atoms: C_11  and  C_12
REMARK                            x       y       z     vdW  Elec       q    Type
REMARK                         _______ _______ _______ _____ _____    ______ ____
ROOT
ATOM      1  C   UNL     1      48.143   7.862  13.703  0.00  0.00    +0.000 A 
ATOM      2  C   UNL     1      47.809   8.961  14.502  0.00  0.00    +0.000 A 
ATOM      3  C   UNL     1      48.258   9.045  15.822  0.00  0.00    +0.000 A 
ATOM      4  C   UNL     1      49.059   8.029  16.367  0.00  0.00    +0.000 A 
ATOM      5  C   UNL     1      49.409   6.939  15.560  0.00  0.00    +0.000 A 
ATOM      6  C   UNL     1      48.960   6.858  14.237  0.00  0.00    +0.000 A 
ENDROOT
BRANCH   1   7
ATOM      7  C   UNL     1      47.630   7.774  12.290  0.00  0.00    +0.000 C 
BRANCH   7  10
ATOM      8  O   UNL     1      44.839   7.524  12.099  0.00  0.00    +0.000 OA
ATOM      9  C   UNL     1      45.531   6.521  11.973  0.00  0.00    +0.000 C 
ATOM     10  N   UNL     1      46.908   6.547  12.061  0.00  0.00    +0.000 N 
ATOM     11  H   UNL     1      47.439   5.729  11.803  0.00  0.00    +0.000 HD
BRANCH   9  12
ATOM     12  C   UNL     1      44.957   5.186  11.784  0.00  0.00    +0.000 A 
ATOM     13  C   UNL     1      44.266   4.550  12.807  0.00  0.00    +0.000 A 
ATOM     14  S   UNL     1      43.576   3.067  12.339  0.00  0.00    +0.000 S 
ATOM     15  C   UNL     1      44.171   3.237  10.760  0.00  0.00    +0.000 A 
ATOM     16  N   UNL     1      43.907   2.290   9.836  0.00  0.00    +0.000 NA
ATOM     17  N   UNL     1      44.387   2.430   8.627  0.00  0.00    +0.000 NA
ATOM     18  C   UNL     1      45.154   3.498   8.340  0.00  0.00    +0.000 A 
ATOM     19  C   UNL     1      45.456   4.488   9.259  0.00  0.00    +0.000 A 
ATOM     20 CL   UNL     1      46.522   5.752   8.855  0.00  0.00    +0.000 Cl
ATOM     21  C   UNL     1      44.926   4.391  10.561  0.00  0.00    +0.000 A 
ENDBRANCH   9  12
ENDBRANCH   7  10
ENDBRANCH   1   7
BRANCH   4  22
ATOM     22  C   UNL     1      49.551   8.116  17.795  0.00  0.00    +0.000 C 
BRANCH  22  23
ATOM     23  N   UNL     1      48.599   7.507  18.719  0.00  0.00    +0.000 NA
ATOM     24  H   UNL     1      47.743   7.273  18.218  0.00  0.00    +0.000 HD
BRANCH  23  25
ATOM     25  C   UNL     1      49.142   6.296  19.329  0.00  0.00    +0.000 C 
BRANCH  25  26
ATOM     26  C   UNL     1      48.795   5.077  18.508  0.00  0.00    +0.000 A 
ATOM     27  C   UNL     1      47.489   4.855  18.049  0.00  0.00    +0.000 A 
ATOM     28  C   UNL     1      47.192   3.735  17.270  0.00  0.00    +0.000 A 
ATOM     29  C   UNL     1      48.196   2.824  16.943  0.00  0.00    +0.000 A 
ATOM     30  C   UNL     1      49.495   3.028  17.401  0.00  0.00    +0.000 A 
ATOM     31  C   UNL     1      49.793   4.148  18.178  0.00  0.00    +0.000 A 
ENDBRANCH  25  26
ENDBRANCH  23  25
ENDBRANCH  22  23
ENDBRANCH   4  22
TORSDOF 7
ENDMDL
