MODEL 1
REMARK VINA RESULT:    -8.318      0.000      0.000
REMARK INTER + INTRA:         -13.108
REMARK INTER:                 -11.965
REMARK INTRA:                  -1.143
REMARK UNBOUND:                -1.143
REMARK  Name = 
REMARK  8 active torsions:
REMARK  status: ('A' for Active; 'I' for Inactive)
REMARK    1  A    between atoms: N_1  and  C_2
REMARK    2  A    between atoms: C_2  and  C_3
REMARK    3  A    between atoms: C_2  and  C_18
REMARK    4  A    between atoms: C_3  and  C_4
REMARK    5  A    between atoms: C_7  and  O_8
REMARK    6  A    between atoms: O_8  and  C_9
REMARK    7  A    between atoms: C_9  and  C_10
REMARK    8  A    between atoms: N_20  and  C_21
REMARK                            x       y       z     vdW  Elec       q    Type
REMARK                         _______ _______ _______ _____ _____    ______ ____
ROOT
ATOM      1  C   UNL     1      47.501   8.330  13.084  0.00  0.00    +0.000 C 
ENDROOT
BRANCH   1   2
ATOM      2  C   UNL     1      48.345   7.303  13.860  0.00  0.00    +0.000 C 
ATOM      3  O   UNL     1      49.128   6.550  13.282  0.00  0.00    +0.000 OA
ATOM      4  N   UNL     1      48.079   7.274  15.218  0.00  0.00    +0.000 N 
ATOM      5  H   UNL     1      47.277   7.787  15.578  0.00  0.00    +0.000 HD
BRANCH   4   6
ATOM      6  C   UNL     1      48.800   6.512  16.136  0.00  0.00    +0.000 A 
ATOM      7  C   UNL     1      49.902   6.941  16.853  0.00  0.00    +0.000 A 
ATOM      8  S   UNL     1      50.506   5.757  17.929  0.00  0.00    +0.000 S 
ATOM      9  C   UNL     1      49.312   4.643  17.454  0.00  0.00    +0.000 A 
ATOM     10  N   UNL     1      49.248   3.403  18.002  0.00  0.00    +0.000 NA
ATOM     11  C   UNL     1      48.294   2.664  17.529  0.00  0.00    +0.000 A 
ATOM     12  N   UNL     1      47.408   3.054  16.554  0.00  0.00    +0.000 N 
ATOM     13  C   UNL     1      47.442   4.299  15.969  0.00  0.00    +0.000 A 
ATOM     14  O   UNL     1      46.659   4.640  15.087  0.00  0.00    +0.000 OA
ATOM     15  C   UNL     1      48.477   5.164  16.486  0.00  0.00    +0.000 A 
ATOM     16  H   UNL     1      46.700   2.418  16.220  0.00  0.00    +0.000 HD
ENDBRANCH   4   6
ENDBRANCH   1   2
BRANCH   1  17
ATOM     17  N   UNL     1      47.781   9.678  13.627  0.00  0.00    +0.000 NA
ATOM     18  H   UNL     1      47.101   9.928  14.340  0.00  0.00    +0.000 HD
ATOM     19  H   UNL     1      47.682  10.362  12.875  0.00  0.00    +0.000 HD
ENDBRANCH   1  17
BRANCH   1  20
ATOM     20  C   UNL     1      46.023   7.912  13.235  0.00  0.00    +0.000 C 
BRANCH  20  21
ATOM     21  C   UNL     1      45.572   6.813  12.313  0.00  0.00    +0.000 A 
ATOM     22  C   UNL     1      44.478   5.997  12.621  0.00  0.00    +0.000 A 
ATOM     23  C   UNL     1      44.045   5.036  11.705  0.00  0.00    +0.000 A 
ATOM     24  C   UNL     1      44.697   4.890  10.480  0.00  0.00    +0.000 A 
ATOM     25  C   UNL     1      45.834   5.650  10.205  0.00  0.00    +0.000 A 
ATOM     26  C   UNL     1      46.256   6.617  11.109  0.00  0.00    +0.000 A 
BRANCH  24  27
ATOM     27  O   UNL     1      44.141   3.994   9.606  0.00  0.00    +0.000 OA
BRANCH  27  28
ATOM     28  C   UNL     1      44.707   2.680   9.679  0.00  0.00    +0.000 C 
BRANCH  28  29
ATOM     29  C   UNL     1      45.543   2.395   8.457  0.00  0.00    +0.000 A 
ATOM     30  C   UNL     1      45.696   3.372   7.475  0.00  0.00    +0.000 A 
ATOM     31  C   UNL     1      46.540   3.115   6.401  0.00  0.00    +0.000 A 
ATOM     32  C   UNL     1      47.206   1.895   6.337  0.00  0.00    +0.000 A 
ATOM     33  C   UNL     1      47.002   0.983   7.355  0.00  0.00    +0.000 A 
ATOM     34  N   UNL     1      46.195   1.205   8.413  0.00  0.00    +0.000 NA
ENDBRANCH  28  29
ENDBRANCH  27  28
ENDBRANCH  24  27
ENDBRANCH  20  21
ENDBRANCH   1  20
TORSDOF 8
ENDMDL
MODEL 2
REMARK VINA RESULT:    -8.080      2.060      3.147
REMARK INTER + INTRA:         -12.765
REMARK INTER:                 -11.965
REMARK INTRA:                  -0.800
REMARK UNBOUND:                -1.143
REMARK  Name = 
REMARK  8 active torsions:
REMARK  status: ('A' for Active; 'I' for Inactive)
REMARK    1  A    between atoms: N_1  and  C_2
REMARK    2  A    between atoms: C_2  and  C_3
REMARK    3  A    between atoms: C_2  and  C_18
REMARK    4  A    between atoms: C_3  and  C_4
REMARK    5  A    between atoms: C_7  and  O_8
REMARK    6  A    between atoms: O_8  and  C_9
REMARK    7  A    between atoms: C_9  and  C_10
REMARK    8  A    between atoms: N_20  and  C_21
REMARK                            x       y       z     vdW  Elec       q    Type
REMARK                         _______ _______ _______ _____ _____    ______ ____
ROOT
ATOM      1  C   UNL     1      46.971   4.147  15.368  0.00  0.00    +0.000 C 
ENDROOT
BRANCH   1   2
ATOM      2  C   UNL     1      47.493   4.659  16.722  0.00  0.00    +0.000 C 
ATOM      3  O   UNL     1      46.907   4.402  17.773  0.00  0.00    +0.000 OA
ATOM      4  N   UNL     1      48.611   5.470  16.620  0.00  0.00    +0.000 N 
ATOM      5  H   UNL     1      48.907   5.792  15.700  0.00  0.00    +0.000 HD
BRANCH   4   6
ATOM      6  C   UNL     1      49.326   5.951  17.715  0.00  0.00    +0.000 A 
ATOM      7  C   UNL     1      49.115   7.161  18.348  0.00  0.00    +0.000 A 
ATOM      8  S   UNL     1      50.145   7.406  19.691  0.00  0.00    +0.000 S 
ATOM      9  C   UNL     1      50.900   5.901  19.451  0.00  0.00    +0.000 A 
ATOM     10  N   UNL     1      51.892   5.470  20.271  0.00  0.00    +0.000 NA
ATOM     11  C   UNL     1      52.378   4.313  19.952  0.00  0.00    +0.000 A 
ATOM     12  N   UNL     1      51.965   3.554  18.883  0.00  0.00    +0.000 N 
ATOM     13  C   UNL     1      50.967   3.955  18.024  0.00  0.00    +0.000 A 
ATOM     14  O   UNL     1      50.610   3.284  17.060  0.00  0.00    +0.000 OA
ATOM     15  C   UNL     1      50.381   5.233  18.360  0.00  0.00    +0.000 A 
ATOM     16  H   UNL     1      52.402   2.667  18.683  0.00  0.00    +0.000 HD
ENDBRANCH   4   6
ENDBRANCH   1   2
BRANCH   1  17
ATOM     17  N   UNL     1      47.744   2.944  14.987  0.00  0.00    +0.000 NA
ATOM     18  H   UNL     1      47.903   2.921  13.983  0.00  0.00    +0.000 HD
ATOM     19  H   UNL     1      47.195   2.115  15.215  0.00  0.00    +0.000 HD
ENDBRANCH   1  17
BRANCH   1  20
ATOM     20  C   UNL     1      47.115   5.304  14.357  0.00  0.00    +0.000 C 
BRANCH  20  21
ATOM     21  C   UNL     1      46.372   5.119  13.062  0.00  0.00    +0.000 A 
ATOM     22  C   UNL     1      46.482   6.037  12.013  0.00  0.00    +0.000 A 
ATOM     23  C   UNL     1      45.835   5.791  10.800  0.00  0.00    +0.000 A 
ATOM     24  C   UNL     1      45.082   4.629  10.630  0.00  0.00    +0.000 A 
ATOM     25  C   UNL     1      44.910   3.752  11.700  0.00  0.00    +0.000 A 
ATOM     26  C   UNL     1      45.566   3.988  12.902  0.00  0.00    +0.000 A 
BRANCH  24  27
ATOM     27  O   UNL     1      44.568   4.424   9.377  0.00  0.00    +0.000 OA
BRANCH  27  28
ATOM     28  C   UNL     1      44.390   3.044   9.039  0.00  0.00    +0.000 C 
BRANCH  28  29
ATOM     29  C   UNL     1      45.523   2.560   8.169  0.00  0.00    +0.000 A 
ATOM     30  C   UNL     1      46.138   3.437   7.277  0.00  0.00    +0.000 A 
ATOM     31  C   UNL     1      47.235   2.992   6.549  0.00  0.00    +0.000 A 
ATOM     32  C   UNL     1      47.686   1.688   6.730  0.00  0.00    +0.000 A 
ATOM     33  C   UNL     1      47.022   0.885   7.638  0.00  0.00    +0.000 A 
ATOM     34  N   UNL     1      45.959   1.290   8.364  0.00  0.00    +0.000 NA
ENDBRANCH  28  29
ENDBRANCH  27  28
ENDBRANCH  24  27
ENDBRANCH  20  21
ENDBRANCH   1  20
TORSDOF 8
ENDMDL
MODEL 3
REMARK VINA RESULT:    -7.761      1.970      2.242
REMARK INTER + INTRA:         -12.307
REMARK INTER:                 -11.463
REMARK INTRA:                  -0.844
REMARK UNBOUND:                -1.143
REMARK  Name = 
REMARK  8 active torsions:
REMARK  status: ('A' for Active; 'I' for Inactive)
REMARK    1  A    between atoms: N_1  and  C_2
REMARK    2  A    between atoms: C_2  and  C_3
REMARK    3  A    between atoms: C_2  and  C_18
REMARK    4  A    between atoms: C_3  and  C_4
REMARK    5  A    between atoms: C_7  and  O_8
REMARK    6  A    between atoms: O_8  and  C_9
REMARK    7  A    between atoms: C_9  and  C_10
REMARK    8  A    between atoms: N_20  and  C_21
REMARK                            x       y       z     vdW  Elec       q    Type
REMARK                         _______ _______ _______ _____ _____    ______ ____
ROOT
ATOM      1  C   UNL     1      48.727   6.264  13.979  0.00  0.00    +0.000 C 
ENDROOT
BRANCH   1   2
ATOM      2  C   UNL     1      49.129   6.661  15.411  0.00  0.00    +0.000 C 
ATOM      3  O   UNL     1      50.243   7.121  15.659  0.00  0.00    +0.000 OA
ATOM      4  N   UNL     1      48.160   6.384  16.361  0.00  0.00    +0.000 N 
ATOM      5  H   UNL     1      47.354   5.820  16.097  0.00  0.00    +0.000 HD
BRANCH   4   6
ATOM      6  C   UNL     1      48.252   6.761  17.699  0.00  0.00    +0.000 A 
ATOM      7  C   UNL     1      48.191   8.057  18.178  0.00  0.00    +0.000 A 
ATOM      8  S   UNL     1      48.286   8.148  19.883  0.00  0.00    +0.000 S 
ATOM      9  C   UNL     1      48.416   6.457  20.017  0.00  0.00    +0.000 A 
ATOM     10  N   UNL     1      48.525   5.852  21.227  0.00  0.00    +0.000 NA
ATOM     11  C   UNL     1      48.629   4.562  21.166  0.00  0.00    +0.000 A 
ATOM     12  N   UNL     1      48.643   3.828  20.005  0.00  0.00    +0.000 N 
ATOM     13  C   UNL     1      48.541   4.402  18.758  0.00  0.00    +0.000 A 
ATOM     14  O   UNL     1      48.569   3.747  17.720  0.00  0.00    +0.000 OA
ATOM     15  C   UNL     1      48.398   5.840  18.782  0.00  0.00    +0.000 A 
ATOM     16  H   UNL     1      48.747   2.825  20.032  0.00  0.00    +0.000 HD
ENDBRANCH   4   6
ENDBRANCH   1   2
BRANCH   1  17
ATOM     17  N   UNL     1      49.648   6.926  13.029  0.00  0.00    +0.000 NA
ATOM     18  H   UNL     1      49.134   7.520  12.383  0.00  0.00    +0.000 HD
ATOM     19  H   UNL     1      50.109   6.210  12.465  0.00  0.00    +0.000 HD
ENDBRANCH   1  17
BRANCH   1  20
ATOM     20  C   UNL     1      47.255   6.683  13.787  0.00  0.00    +0.000 C 
BRANCH  20  21
ATOM     21  C   UNL     1      46.504   5.915  12.733  0.00  0.00    +0.000 A 
ATOM     22  C   UNL     1      45.882   4.695  13.015  0.00  0.00    +0.000 A 
ATOM     23  C   UNL     1      45.132   4.050  12.030  0.00  0.00    +0.000 A 
ATOM     24  C   UNL     1      44.997   4.621  10.764  0.00  0.00    +0.000 A 
ATOM     25  C   UNL     1      45.680   5.798  10.459  0.00  0.00    +0.000 A 
ATOM     26  C   UNL     1      46.414   6.449  11.444  0.00  0.00    +0.000 A 
BRANCH  24  27
ATOM     27  O   UNL     1      44.162   3.969   9.895  0.00  0.00    +0.000 OA
BRANCH  27  28
ATOM     28  C   UNL     1      44.481   2.586   9.709  0.00  0.00    +0.000 C 
BRANCH  28  29
ATOM     29  C   UNL     1      45.417   2.410   8.540  0.00  0.00    +0.000 A 
ATOM     30  C   UNL     1      45.631   3.466   7.656  0.00  0.00    +0.000 A 
ATOM     31  C   UNL     1      46.562   3.308   6.636  0.00  0.00    +0.000 A 
ATOM     32  C   UNL     1      47.252   2.104   6.527  0.00  0.00    +0.000 A 
ATOM     33  C   UNL     1      46.983   1.109   7.448  0.00  0.00    +0.000 A 
ATOM     34  N   UNL     1      46.090   1.235   8.452  0.00  0.00    +0.000 NA
ENDBRANCH  28  29
ENDBRANCH  27  28
ENDBRANCH  24  27
ENDBRANCH  20  21
ENDBRANCH   1  20
TORSDOF 8
ENDMDL
MODEL 4
REMARK VINA RESULT:    -7.695      2.793      4.110
REMARK INTER + INTRA:         -12.212
REMARK INTER:                 -11.168
REMARK INTRA:                  -1.044
REMARK UNBOUND:                -1.143
REMARK  Name = 
REMARK  8 active torsions:
REMARK  status: ('A' for Active; 'I' for Inactive)
REMARK    1  A    between atoms: N_1  and  C_2
REMARK    2  A    between atoms: C_2  and  C_3
REMARK    3  A    between atoms: C_2  and  C_18
REMARK    4  A    between atoms: C_3  and  C_4
REMARK    5  A    between atoms: C_7  and  O_8
REMARK    6  A    between atoms: O_8  and  C_9
REMARK    7  A    between atoms: C_9  and  C_10
REMARK    8  A    between atoms: N_20  and  C_21
REMARK                            x       y       z     vdW  Elec       q    Type
REMARK                         _______ _______ _______ _____ _____    ______ ____
ROOT
ATOM      1  C   UNL     1      47.764   5.158  17.203  0.00  0.00    +0.000 C 
ENDROOT
BRANCH   1   2
ATOM      2  C   UNL     1      49.004   4.815  18.048  0.00  0.00    +0.000 C 
ATOM      3  O   UNL     1      48.948   4.763  19.276  0.00  0.00    +0.000 OA
ATOM      4  N   UNL     1      50.159   4.650  17.303  0.00  0.00    +0.000 N 
ATOM      5  H   UNL     1      50.155   4.909  16.318  0.00  0.00    +0.000 HD
BRANCH   4   6
ATOM      6  C   UNL     1      51.374   4.222  17.835  0.00  0.00    +0.000 A 
ATOM      7  C   UNL     1      52.296   5.020  18.488  0.00  0.00    +0.000 A 
ATOM      8  S   UNL     1      53.654   4.150  19.055  0.00  0.00    +0.000 S 
ATOM      9  C   UNL     1      53.043   2.689  18.435  0.00  0.00    +0.000 A 
ATOM     10  N   UNL     1      53.720   1.523  18.581  0.00  0.00    +0.000 NA
ATOM     11  C   UNL     1      53.135   0.499  18.044  0.00  0.00    +0.000 A 
ATOM     12  N   UNL     1      51.940   0.543  17.368  0.00  0.00    +0.000 N 
ATOM     13  C   UNL     1      51.224   1.705  17.192  0.00  0.00    +0.000 A 
ATOM     14  O   UNL     1      50.164   1.746  16.574  0.00  0.00    +0.000 OA
ATOM     15  C   UNL     1      51.831   2.867  17.799  0.00  0.00    +0.000 A 
ATOM     16  H   UNL     1      51.551  -0.292  16.957  0.00  0.00    +0.000 HD
ENDBRANCH   4   6
ENDBRANCH   1   2
BRANCH   1  17
ATOM     17  N   UNL     1      46.559   5.000  18.048  0.00  0.00    +0.000 NA
ATOM     18  H   UNL     1      46.533   4.075  18.469  0.00  0.00    +0.000 HD
ATOM     19  H   UNL     1      45.731   5.075  17.456  0.00  0.00    +0.000 HD
ENDBRANCH   1  17
BRANCH   1  20
ATOM     20  C   UNL     1      47.772   4.220  15.979  0.00  0.00    +0.000 C 
BRANCH  20  21
ATOM     21  C   UNL     1      47.164   4.794  14.729  0.00  0.00    +0.000 A 
ATOM     22  C   UNL     1      47.798   5.806  14.000  0.00  0.00    +0.000 A 
ATOM     23  C   UNL     1      47.237   6.260  12.804  0.00  0.00    +0.000 A 
ATOM     24  C   UNL     1      46.048   5.705  12.331  0.00  0.00    +0.000 A 
ATOM     25  C   UNL     1      45.377   4.751  13.096  0.00  0.00    +0.000 A 
ATOM     26  C   UNL     1      45.941   4.287  14.278  0.00  0.00    +0.000 A 
BRANCH  24  27
ATOM     27  O   UNL     1      45.627   6.141  11.103  0.00  0.00    +0.000 OA
BRANCH  27  28
ATOM     28  C   UNL     1      44.591   5.340  10.524  0.00  0.00    +0.000 C 
BRANCH  28  29
ATOM     29  C   UNL     1      45.173   4.332   9.566  0.00  0.00    +0.000 A 
ATOM     30  C   UNL     1      44.926   2.973   9.753  0.00  0.00    +0.000 A 
ATOM     31  C   UNL     1      45.402   2.070   8.809  0.00  0.00    +0.000 A 
ATOM     32  C   UNL     1      46.108   2.547   7.709  0.00  0.00    +0.000 A 
ATOM     33  C   UNL     1      46.305   3.910   7.597  0.00  0.00    +0.000 A 
ATOM     34  N   UNL     1      45.850   4.811   8.492  0.00  0.00    +0.000 NA
ENDBRANCH  28  29
ENDBRANCH  27  28
ENDBRANCH  24  27
ENDBRANCH  20  21
ENDBRANCH   1  20
TORSDOF 8
ENDMDL
MODEL 5
REMARK VINA RESULT:    -7.644      2.239      3.596
REMARK INTER + INTRA:         -12.138
REMARK INTER:                 -11.588
REMARK INTRA:                  -0.550
REMARK UNBOUND:                -1.143
REMARK  Name = 
REMARK  8 active torsions:
REMARK  status: ('A' for Active; 'I' for Inactive)
REMARK    1  A    between atoms: N_1  and  C_2
REMARK    2  A    between atoms: C_2  and  C_3
REMARK    3  A    between atoms: C_2  and  C_18
REMARK    4  A    between atoms: C_3  and  C_4
REMARK    5  A    between atoms: C_7  and  O_8
REMARK    6  A    between atoms: O_8  and  C_9
REMARK    7  A    between atoms: C_9  and  C_10
REMARK    8  A    between atoms: N_20  and  C_21
REMARK                            x       y       z     vdW  Elec       q    Type
REMARK                         _______ _______ _______ _____ _____    ______ ____
ROOT
ATOM      1  C   UNL     1      47.264   4.293  15.447  0.00  0.00    +0.000 C 
ENDROOT
BRANCH   1   2
ATOM      2  C   UNL     1      48.095   4.799  16.640  0.00  0.00    +0.000 C 
ATOM      3  O   UNL     1      49.240   4.397  16.840  0.00  0.00    +0.000 OA
ATOM      4  N   UNL     1      47.408   5.669  17.469  0.00  0.00    +0.000 N 
ATOM      5  H   UNL     1      46.405   5.789  17.341  0.00  0.00    +0.000 HD
BRANCH   4   6
ATOM      6  C   UNL     1      47.989   6.345  18.541  0.00  0.00    +0.000 A 
ATOM      7  C   UNL     1      48.000   5.917  19.855  0.00  0.00    +0.000 A 
ATOM      8  S   UNL     1      48.849   6.973  20.899  0.00  0.00    +0.000 S 
ATOM      9  C   UNL     1      49.214   8.029  19.617  0.00  0.00    +0.000 A 
ATOM     10  N   UNL     1      49.940   9.158  19.818  0.00  0.00    +0.000 NA
ATOM     11  C   UNL     1      50.124   9.867  18.750  0.00  0.00    +0.000 A 
ATOM     12  N   UNL     1      49.641   9.550  17.503  0.00  0.00    +0.000 N 
ATOM     13  C   UNL     1      48.897   8.418  17.256  0.00  0.00    +0.000 A 
ATOM     14  O   UNL     1      48.451   8.144  16.145  0.00  0.00    +0.000 OA
ATOM     15  C   UNL     1      48.689   7.586  18.419  0.00  0.00    +0.000 A 
ATOM     16  H   UNL     1      49.807  10.160  16.717  0.00  0.00    +0.000 HD
ENDBRANCH   4   6
ENDBRANCH   1   2
BRANCH   1  17
ATOM     17  N   UNL     1      47.821   2.996  15.001  0.00  0.00    +0.000 NA
ATOM     18  H   UNL     1      48.241   2.497  15.781  0.00  0.00    +0.000 HD
ATOM     19  H   UNL     1      48.570   3.173  14.330  0.00  0.00    +0.000 HD
ENDBRANCH   1  17
BRANCH   1  20
ATOM     20  C   UNL     1      47.320   5.383  14.356  0.00  0.00    +0.000 C 
BRANCH  20  21
ATOM     21  C   UNL     1      46.480   5.112  13.138  0.00  0.00    +0.000 A 
ATOM     22  C   UNL     1      46.415   6.017  12.074  0.00  0.00    +0.000 A 
ATOM     23  C   UNL     1      45.683   5.696  10.929  0.00  0.00    +0.000 A 
ATOM     24  C   UNL     1      45.019   4.471  10.841  0.00  0.00    +0.000 A 
ATOM     25  C   UNL     1      45.022   3.602  11.932  0.00  0.00    +0.000 A 
ATOM     26  C   UNL     1      45.762   3.914  13.065  0.00  0.00    +0.000 A 
BRANCH  24  27
ATOM     27  O   UNL     1      44.413   4.201   9.643  0.00  0.00    +0.000 OA
BRANCH  27  28
ATOM     28  C   UNL     1      44.376   2.809   9.309  0.00  0.00    +0.000 C 
BRANCH  28  29
ATOM     29  C   UNL     1      45.438   2.479   8.291  0.00  0.00    +0.000 A 
ATOM     30  C   UNL     1      45.837   3.443   7.367  0.00  0.00    +0.000 A 
ATOM     31  C   UNL     1      46.877   3.143   6.495  0.00  0.00    +0.000 A 
ATOM     32  C   UNL     1      47.487   1.894   6.568  0.00  0.00    +0.000 A 
ATOM     33  C   UNL     1      47.032   0.998   7.517  0.00  0.00    +0.000 A 
ATOM     34  N   UNL     1      46.031   1.262   8.381  0.00  0.00    +0.000 NA
ENDBRANCH  28  29
ENDBRANCH  27  28
ENDBRANCH  24  27
ENDBRANCH  20  21
ENDBRANCH   1  20
TORSDOF 8
ENDMDL
MODEL 6
REMARK VINA RESULT:    -7.357      2.518      3.309
REMARK INTER + INTRA:         -11.726
REMARK INTER:                 -11.459
REMARK INTRA:                  -0.267
REMARK UNBOUND:                -1.143
REMARK  Name = 
REMARK  8 active torsions:
REMARK  status: ('A' for Active; 'I' for Inactive)
REMARK    1  A    between atoms: N_1  and  C_2
REMARK    2  A    between atoms: C_2  and  C_3
REMARK    3  A    between atoms: C_2  and  C_18
REMARK    4  A    between atoms: C_3  and  C_4
REMARK    5  A    between atoms: C_7  and  O_8
REMARK    6  A    between atoms: O_8  and  C_9
REMARK    7  A    between atoms: C_9  and  C_10
REMARK    8  A    between atoms: N_20  and  C_21
REMARK                            x       y       z     vdW  Elec       q    Type
REMARK                         _______ _______ _______ _____ _____    ______ ____
ROOT
ATOM      1  C   UNL     1      47.321   4.543  15.440  0.00  0.00    +0.000 C 
ENDROOT
BRANCH   1   2
ATOM      2  C   UNL     1      48.326   5.119  16.454  0.00  0.00    +0.000 C 
ATOM      3  O   UNL     1      49.268   4.448  16.874  0.00  0.00    +0.000 OA
ATOM      4  N   UNL     1      48.018   6.400  16.879  0.00  0.00    +0.000 N 
ATOM      5  H   UNL     1      47.115   6.800  16.634  0.00  0.00    +0.000 HD
BRANCH   4   6
ATOM      6  C   UNL     1      48.843   7.167  17.701  0.00  0.00    +0.000 A 
ATOM      7  C   UNL     1      49.913   7.934  17.281  0.00  0.00    +0.000 A 
ATOM      8  S   UNL     1      50.671   8.785  18.556  0.00  0.00    +0.000 S 
ATOM      9  C   UNL     1      49.588   8.141  19.698  0.00  0.00    +0.000 A 
ATOM     10  N   UNL     1      49.670   8.469  21.012  0.00  0.00    +0.000 NA
ATOM     11  C   UNL     1      48.787   7.889  21.760  0.00  0.00    +0.000 A 
ATOM     12  N   UNL     1      47.836   7.004  21.311  0.00  0.00    +0.000 N 
ATOM     13  C   UNL     1      47.720   6.640  19.989  0.00  0.00    +0.000 A 
ATOM     14  O   UNL     1      46.881   5.837  19.591  0.00  0.00    +0.000 OA
ATOM     15  C   UNL     1      48.674   7.285  19.116  0.00  0.00    +0.000 A 
ATOM     16  H   UNL     1      47.189   6.574  21.955  0.00  0.00    +0.000 HD
ENDBRANCH   4   6
ENDBRANCH   1   2
BRANCH   1  17
ATOM     17  N   UNL     1      47.761   3.181  15.061  0.00  0.00    +0.000 NA
ATOM     18  H   UNL     1      48.721   3.193  14.725  0.00  0.00    +0.000 HD
ATOM     19  H   UNL     1      47.184   2.854  14.285  0.00  0.00    +0.000 HD
ENDBRANCH   1  17
BRANCH   1  20
ATOM     20  C   UNL     1      47.271   5.517  14.245  0.00  0.00    +0.000 C 
BRANCH  20  21
ATOM     21  C   UNL     1      46.493   5.028  13.054  0.00  0.00    +0.000 A 
ATOM     22  C   UNL     1      45.895   3.764  13.034  0.00  0.00    +0.000 A 
ATOM     23  C   UNL     1      45.119   3.377  11.940  0.00  0.00    +0.000 A 
ATOM     24  C   UNL     1      44.934   4.249  10.866  0.00  0.00    +0.000 A 
ATOM     25  C   UNL     1      45.592   5.479  10.852  0.00  0.00    +0.000 A 
ATOM     26  C   UNL     1      46.352   5.871  11.947  0.00  0.00    +0.000 A 
BRANCH  24  27
ATOM     27  O   UNL     1      44.077   3.824   9.886  0.00  0.00    +0.000 OA
BRANCH  27  28
ATOM     28  C   UNL     1      44.275   2.462   9.490  0.00  0.00    +0.000 C 
BRANCH  28  29
ATOM     29  C   UNL     1      45.315   2.372   8.402  0.00  0.00    +0.000 A 
ATOM     30  C   UNL     1      45.514   3.450   7.541  0.00  0.00    +0.000 A 
ATOM     31  C   UNL     1      46.536   3.376   6.602  0.00  0.00    +0.000 A 
ATOM     32  C   UNL     1      47.328   2.233   6.548  0.00  0.00    +0.000 A 
ATOM     33  C   UNL     1      47.065   1.211   7.441  0.00  0.00    +0.000 A 
ATOM     34  N   UNL     1      46.086   1.257   8.368  0.00  0.00    +0.000 NA
ENDBRANCH  28  29
ENDBRANCH  27  28
ENDBRANCH  24  27
ENDBRANCH  20  21
ENDBRANCH   1  20
TORSDOF 8
ENDMDL
MODEL 7
REMARK VINA RESULT:    -7.148      1.975      2.786
REMARK INTER + INTRA:         -11.425
REMARK INTER:                 -10.424
REMARK INTRA:                  -1.001
REMARK UNBOUND:                -1.143
REMARK  Name = 
REMARK  8 active torsions:
REMARK  status: ('A' for Active; 'I' for Inactive)
REMARK    1  A    between atoms: N_1  and  C_2
REMARK    2  A    between atoms: C_2  and  C_3
REMARK    3  A    between atoms: C_2  and  C_18
REMARK    4  A    between atoms: C_3  and  C_4
REMARK    5  A    between atoms: C_7  and  O_8
REMARK    6  A    between atoms: O_8  and  C_9
REMARK    7  A    between atoms: C_9  and  C_10
REMARK    8  A    between atoms: N_20  and  C_21
REMARK                            x       y       z     vdW  Elec       q    Type
REMARK                         _______ _______ _______ _____ _____    ______ ____
ROOT
ATOM      1  C   UNL     1      48.374   7.310  12.924  0.00  0.00    +0.000 C 
ENDROOT
BRANCH   1   2
ATOM      2  C   UNL     1      49.149   7.161  14.246  0.00  0.00    +0.000 C 
ATOM      3  O   UNL     1      50.341   7.452  14.327  0.00  0.00    +0.000 OA
ATOM      4  N   UNL     1      48.398   6.614  15.274  0.00  0.00    +0.000 N 
ATOM      5  H   UNL     1      47.484   6.217  15.064  0.00  0.00    +0.000 HD
BRANCH   4   6
ATOM      6  C   UNL     1      48.848   6.493  16.587  0.00  0.00    +0.000 A 
ATOM      7  C   UNL     1      49.390   5.355  17.154  0.00  0.00    +0.000 A 
ATOM      8  S   UNL     1      49.883   5.580  18.775  0.00  0.00    +0.000 S 
ATOM      9  C   UNL     1      49.377   7.204  18.757  0.00  0.00    +0.000 A 
ATOM     10  N   UNL     1      49.518   7.999  19.848  0.00  0.00    +0.000 NA
ATOM     11  C   UNL     1      49.074   9.204  19.686  0.00  0.00    +0.000 A 
ATOM     12  N   UNL     1      48.495   9.681  18.534  0.00  0.00    +0.000 N 
ATOM     13  C   UNL     1      48.328   8.907  17.408  0.00  0.00    +0.000 A 
ATOM     14  O   UNL     1      47.796   9.329  16.384  0.00  0.00    +0.000 OA
ATOM     15  C   UNL     1      48.833   7.560  17.539  0.00  0.00    +0.000 A 
ATOM     16  H   UNL     1      48.153  10.628  18.484  0.00  0.00    +0.000 HD
ENDBRANCH   4   6
ENDBRANCH   1   2
BRANCH   1  17
ATOM     17  N   UNL     1      48.699   8.627  12.333  0.00  0.00    +0.000 NA
ATOM     18  H   UNL     1      48.038   8.865  11.597  0.00  0.00    +0.000 HD
ATOM     19  H   UNL     1      49.619   8.573  11.894  0.00  0.00    +0.000 HD
ENDBRANCH   1  17
BRANCH   1  20
ATOM     20  C   UNL     1      46.876   7.146  13.252  0.00  0.00    +0.000 C 
BRANCH  20  21
ATOM     21  C   UNL     1      46.188   6.007  12.550  0.00  0.00    +0.000 A 
ATOM     22  C   UNL     1      45.676   6.142  11.256  0.00  0.00    +0.000 A 
ATOM     23  C   UNL     1      45.111   5.039  10.611  0.00  0.00    +0.000 A 
ATOM     24  C   UNL     1      45.060   3.801  11.252  0.00  0.00    +0.000 A 
ATOM     25  C   UNL     1      45.502   3.685  12.570  0.00  0.00    +0.000 A 
ATOM     26  C   UNL     1      46.078   4.777  13.207  0.00  0.00    +0.000 A 
BRANCH  24  27
ATOM     27  O   UNL     1      44.582   2.757  10.506  0.00  0.00    +0.000 OA
BRANCH  27  28
ATOM     28  C   UNL     1      44.372   3.075   9.126  0.00  0.00    +0.000 C 
BRANCH  28  29
ATOM     29  C   UNL     1      45.500   2.540   8.280  0.00  0.00    +0.000 A 
ATOM     30  C   UNL     1      46.214   3.401   7.449  0.00  0.00    +0.000 A 
ATOM     31  C   UNL     1      47.303   2.901   6.745  0.00  0.00    +0.000 A 
ATOM     32  C   UNL     1      47.647   1.560   6.888  0.00  0.00    +0.000 A 
ATOM     33  C   UNL     1      46.888   0.776   7.736  0.00  0.00    +0.000 A 
ATOM     34  N   UNL     1      45.831   1.234   8.438  0.00  0.00    +0.000 NA
ENDBRANCH  28  29
ENDBRANCH  27  28
ENDBRANCH  24  27
ENDBRANCH  20  21
ENDBRANCH   1  20
TORSDOF 8
ENDMDL
MODEL 8
REMARK VINA RESULT:    -7.032      2.691      7.620
REMARK INTER + INTRA:         -11.258
REMARK INTER:                 -10.380
REMARK INTRA:                  -0.878
REMARK UNBOUND:                -1.143
REMARK  Name = 
REMARK  8 active torsions:
REMARK  status: ('A' for Active; 'I' for Inactive)
REMARK    1  A    between atoms: N_1  and  C_2
REMARK    2  A    between atoms: C_2  and  C_3
REMARK    3  A    between atoms: C_2  and  C_18
REMARK    4  A    between atoms: C_3  and  C_4
REMARK    5  A    between atoms: C_7  and  O_8
REMARK    6  A    between atoms: O_8  and  C_9
REMARK    7  A    between atoms: C_9  and  C_10
REMARK    8  A    between atoms: N_20  and  C_21
REMARK                            x       y       z     vdW  Elec       q    Type
REMARK                         _______ _______ _______ _____ _____    ______ ____
ROOT
ATOM      1  C   UNL     1      44.812   8.513  12.000  0.00  0.00    +0.000 C 
ENDROOT
BRANCH   1   2
ATOM      2  C   UNL     1      44.745   6.984  12.160  0.00  0.00    +0.000 C 
ATOM      3  O   UNL     1      44.998   6.440  13.234  0.00  0.00    +0.000 OA
ATOM      4  N   UNL     1      44.450   6.312  10.986  0.00  0.00    +0.000 N 
ATOM      5  H   UNL     1      44.454   6.826  10.106  0.00  0.00    +0.000 HD
BRANCH   4   6
ATOM      6  C   UNL     1      44.221   4.939  10.910  0.00  0.00    +0.000 A 
ATOM      7  C   UNL     1      43.425   4.205  11.770  0.00  0.00    +0.000 A 
ATOM      8  S   UNL     1      43.330   2.551  11.349  0.00  0.00    +0.000 S 
ATOM      9  C   UNL     1      44.356   2.779  10.012  0.00  0.00    +0.000 A 
ATOM     10  N   UNL     1      44.691   1.748   9.196  0.00  0.00    +0.000 NA
ATOM     11  C   UNL     1      45.490   2.074   8.231  0.00  0.00    +0.000 A 
ATOM     12  N   UNL     1      45.989   3.337   8.016  0.00  0.00    +0.000 N 
ATOM     13  C   UNL     1      45.680   4.408   8.822  0.00  0.00    +0.000 A 
ATOM     14  O   UNL     1      46.139   5.532   8.639  0.00  0.00    +0.000 OA
ATOM     15  C   UNL     1      44.769   4.091   9.898  0.00  0.00    +0.000 A 
ATOM     16  H   UNL     1      46.624   3.515   7.253  0.00  0.00    +0.000 HD
ENDBRANCH   4   6
ENDBRANCH   1   2
BRANCH   1  17
ATOM     17  N   UNL     1      43.780   8.932  11.027  0.00  0.00    +0.000 NA
ATOM     18  H   UNL     1      42.875   9.033  11.482  0.00  0.00    +0.000 HD
ATOM     19  H   UNL     1      43.672   8.198  10.325  0.00  0.00    +0.000 HD
ENDBRANCH   1  17
BRANCH   1  20
ATOM     20  C   UNL     1      46.246   8.862  11.550  0.00  0.00    +0.000 C 
BRANCH  20  21
ATOM     21  C   UNL     1      47.338   8.390  12.470  0.00  0.00    +0.000 A 
ATOM     22  C   UNL     1      47.467   8.883  13.772  0.00  0.00    +0.000 A 
ATOM     23  C   UNL     1      48.449   8.365  14.620  0.00  0.00    +0.000 A 
ATOM     24  C   UNL     1      49.300   7.353  14.174  0.00  0.00    +0.000 A 
ATOM     25  C   UNL     1      49.221   6.916  12.851  0.00  0.00    +0.000 A 
ATOM     26  C   UNL     1      48.234   7.419  12.012  0.00  0.00    +0.000 A 
BRANCH  24  27
ATOM     27  O   UNL     1      50.162   6.838  15.105  0.00  0.00    +0.000 OA
BRANCH  27  28
ATOM     28  C   UNL     1      49.605   6.733  16.419  0.00  0.00    +0.000 C 
BRANCH  28  29
ATOM     29  C   UNL     1      49.157   5.320  16.694  0.00  0.00    +0.000 A 
ATOM     30  C   UNL     1      47.855   4.931  16.383  0.00  0.00    +0.000 A 
ATOM     31  C   UNL     1      47.491   3.601  16.566  0.00  0.00    +0.000 A 
ATOM     32  C   UNL     1      48.434   2.701  17.052  0.00  0.00    +0.000 A 
ATOM     33  C   UNL     1      49.704   3.168  17.330  0.00  0.00    +0.000 A 
ATOM     34  N   UNL     1      50.089   4.449  17.157  0.00  0.00    +0.000 NA
ENDBRANCH  28  29
ENDBRANCH  27  28
ENDBRANCH  24  27
ENDBRANCH  20  21
ENDBRANCH   1  20
TORSDOF 8
ENDMDL
MODEL 9
REMARK VINA RESULT:    -6.790      3.634      5.424
REMARK INTER + INTRA:         -10.910
REMARK INTER:                  -9.854
REMARK INTRA:                  -1.056
REMARK UNBOUND:                -1.143
REMARK  Name = 
REMARK  8 active torsions:
REMARK  status: ('A' for Active; 'I' for Inactive)
REMARK    1  A    between atoms: N_1  and  C_2
REMARK    2  A    between atoms: C_2  and  C_3
REMARK    3  A    between atoms: C_2  and  C_18
REMARK    4  A    between atoms: C_3  and  C_4
REMARK    5  A    between atoms: C_7  and  O_8
REMARK    6  A    between atoms: O_8  and  C_9
REMARK    7  A    between atoms: C_9  and  C_10
REMARK    8  A    between atoms: N_20  and  C_21
REMARK                            x       y       z     vdW  Elec       q    Type
REMARK                         _______ _______ _______ _____ _____    ______ ____
ROOT
ATOM      1  C   UNL     1      47.663   8.530  13.656  0.00  0.00    +0.000 C 
ENDROOT
BRANCH   1   2
ATOM      2  C   UNL     1      48.907   9.334  13.233  0.00  0.00    +0.000 C 
ATOM      3  O   UNL     1      49.731   9.721  14.060  0.00  0.00    +0.000 OA
ATOM      4  N   UNL     1      48.951   9.622  11.880  0.00  0.00    +0.000 N 
ATOM      5  H   UNL     1      48.130   9.437  11.306  0.00  0.00    +0.000 HD
BRANCH   4   6
ATOM      6  C   UNL     1      50.033  10.233  11.249  0.00  0.00    +0.000 A 
ATOM      7  C   UNL     1      50.165  11.588  11.004  0.00  0.00    +0.000 A 
ATOM      8  S   UNL     1      51.648  11.994  10.256  0.00  0.00    +0.000 S 
ATOM      9  C   UNL     1      52.144  10.367  10.238  0.00  0.00    +0.000 A 
ATOM     10  N   UNL     1      53.348  10.002   9.730  0.00  0.00    +0.000 NA
ATOM     11  C   UNL     1      53.577   8.728   9.773  0.00  0.00    +0.000 A 
ATOM     12  N   UNL     1      52.706   7.789  10.272  0.00  0.00    +0.000 N 
ATOM     13  C   UNL     1      51.474   8.115  10.791  0.00  0.00    +0.000 A 
ATOM     14  O   UNL     1      50.690   7.274  11.222  0.00  0.00    +0.000 OA
ATOM     15  C   UNL     1      51.189   9.532  10.784  0.00  0.00    +0.000 A 
ATOM     16  H   UNL     1      52.943   6.809  10.257  0.00  0.00    +0.000 HD
ENDBRANCH   4   6
ENDBRANCH   1   2
BRANCH   1  17
ATOM     17  N   UNL     1      47.347   8.857  15.065  0.00  0.00    +0.000 NA
ATOM     18  H   UNL     1      48.176   9.188  15.553  0.00  0.00    +0.000 HD
ATOM     19  H   UNL     1      47.050   8.004  15.541  0.00  0.00    +0.000 HD
ENDBRANCH   1  17
BRANCH   1  20
ATOM     20  C   UNL     1      47.989   7.038  13.439  0.00  0.00    +0.000 C 
BRANCH  20  21
ATOM     21  C   UNL     1      46.937   6.254  12.704  0.00  0.00    +0.000 A 
ATOM     22  C   UNL     1      46.440   6.671  11.465  0.00  0.00    +0.000 A 
ATOM     23  C   UNL     1      45.518   5.877  10.780  0.00  0.00    +0.000 A 
ATOM     24  C   UNL     1      45.094   4.664  11.326  0.00  0.00    +0.000 A 
ATOM     25  C   UNL     1      45.532   4.285  12.595  0.00  0.00    +0.000 A 
ATOM     26  C   UNL     1      46.461   5.067  13.270  0.00  0.00    +0.000 A 
BRANCH  24  27
ATOM     27  O   UNL     1      44.269   3.906  10.538  0.00  0.00    +0.000 OA
BRANCH  27  28
ATOM     28  C   UNL     1      44.330   4.234   9.146  0.00  0.00    +0.000 C 
BRANCH  28  29
ATOM     29  C   UNL     1      45.349   3.372   8.443  0.00  0.00    +0.000 A 
ATOM     30  C   UNL     1      45.461   2.022   8.769  0.00  0.00    +0.000 A 
ATOM     31  C   UNL     1      46.347   1.230   8.048  0.00  0.00    +0.000 A 
ATOM     32  C   UNL     1      47.094   1.806   7.026  0.00  0.00    +0.000 A 
ATOM     33  C   UNL     1      46.919   3.152   6.763  0.00  0.00    +0.000 A 
ATOM     34  N   UNL     1      46.063   3.944   7.440  0.00  0.00    +0.000 NA
ENDBRANCH  28  29
ENDBRANCH  27  28
ENDBRANCH  24  27
ENDBRANCH  20  21
ENDBRANCH   1  20
TORSDOF 8
ENDMDL
