MODEL 1
REMARK VINA RESULT:    -7.413      0.000      0.000
REMARK INTER + INTRA:         -10.894
REMARK INTER:                 -10.013
REMARK INTRA:                  -0.881
REMARK UNBOUND:                -0.881
REMARK  Name = 
REMARK  7 active torsions:
REMARK  status: ('A' for Active; 'I' for Inactive)
REMARK    1  A    between atoms: C_1  and  C_2
REMARK    2  A    between atoms: C_2  and  C_3
REMARK    3  A    between atoms: C_6  and  N_7
REMARK    4  A    between atoms: N_7  and  C_8
REMARK    5  A    between atoms: C_8  and  C_9
REMARK    6  A    between atoms: C_13  and  C_14
REMARK    7  A    between atoms: C_18  and  N_19
REMARK                            x       y       z     vdW  Elec       q    Type
REMARK                         _______ _______ _______ _____ _____    ______ ____
ROOT
ATOM      1  C   UNL     1      46.880   5.314  13.813  0.00  0.00    +0.000 A 
ATOM      2  C   UNL     1      45.910   4.339  13.525  0.00  0.00    +0.000 A 
ATOM      3  N   UNL     1      45.144   4.282  12.415  0.00  0.00    +0.000 NA
ATOM      4  C   UNL     1      45.320   5.251  11.515  0.00  0.00    +0.000 A 
ATOM      5  C   UNL     1      46.252   6.263  11.717  0.00  0.00    +0.000 A 
ATOM      6  C   UNL     1      47.071   6.337  12.866  0.00  0.00    +0.000 A 
ENDROOT
BRANCH   6   7
ATOM      7  N   UNL     1      47.964   7.392  12.961  0.00  0.00    +0.000 N 
ATOM      8  C   UNL     1      47.623   8.775  13.306  0.00  0.00    +0.000 C 
ATOM      9  C   UNL     1      47.995   9.700  12.120  0.00  0.00    +0.000 C 
ATOM     10  N   UNL     1      49.434   9.635  11.776  0.00  0.00    +0.000 NA
ATOM     11  C   UNL     1      49.796   8.224  11.504  0.00  0.00    +0.000 C 
ATOM     12  C   UNL     1      49.393   7.228  12.619  0.00  0.00    +0.000 C 
ATOM     13  H   UNL     1      49.964   9.945  12.590  0.00  0.00    +0.000 HD
ENDBRANCH   6   7
BRANCH   1  15
ATOM     14  C   UNL     1      47.332   3.829  15.816  0.00  0.00    +0.000 C 
ATOM     15  C   UNL     1      47.531   5.198  15.171  0.00  0.00    +0.000 C 
ENDBRANCH   1  15
BRANCH   4  16
ATOM     16  N   UNL     1      44.459   5.216  10.435  0.00  0.00    +0.000 N 
ATOM     17  H   UNL     1      43.711   5.881  10.608  0.00  0.00    +0.000 HD
BRANCH  16  18
ATOM     18  C   UNL     1      44.048   3.958   9.847  0.00  0.00    +0.000 C 
BRANCH  18  19
ATOM     19  C   UNL     1      45.088   3.409   8.894  0.00  0.00    +0.000 A 
ATOM     20  C   UNL     1      45.783   4.308   8.064  0.00  0.00    +0.000 A 
ATOM     21  C   UNL     1      46.741   3.860   7.159  0.00  0.00    +0.000 A 
ATOM     22  C   UNL     1      47.034   2.502   7.064  0.00  0.00    +0.000 A 
ATOM     23  C   UNL     1      46.367   1.587   7.881  0.00  0.00    +0.000 A 
ATOM     24  C   UNL     1      45.397   2.040   8.791  0.00  0.00    +0.000 A 
BRANCH  23  25
ATOM     25  C   UNL     1      46.663   0.187   7.787  0.00  0.00    +0.000 C 
ATOM     26  N   UNL     1      46.914  -0.942   7.718  0.00  0.00    +0.000 NA
ENDBRANCH  23  25
ENDBRANCH  18  19
ENDBRANCH  16  18
ENDBRANCH   4  16
TORSDOF 6
ENDMDL
MODEL 2
REMARK VINA RESULT:    -6.830      1.835      3.765
REMARK INTER + INTRA:         -10.106
REMARK INTER:                 -10.046
REMARK INTRA:                  -0.061
REMARK UNBOUND:                -0.881
REMARK  Name = 
REMARK  7 active torsions:
REMARK  status: ('A' for Active; 'I' for Inactive)
REMARK    1  A    between atoms: C_1  and  C_2
REMARK    2  A    between atoms: C_2  and  C_3
REMARK    3  A    between atoms: C_6  and  N_7
REMARK    4  A    between atoms: N_7  and  C_8
REMARK    5  A    between atoms: C_8  and  C_9
REMARK    6  A    between atoms: C_13  and  C_14
REMARK    7  A    between atoms: C_18  and  N_19
REMARK                            x       y       z     vdW  Elec       q    Type
REMARK                         _______ _______ _______ _____ _____    ______ ____
ROOT
ATOM      1  C   UNL     1      47.423   6.185  13.666  0.00  0.00    +0.000 A 
ATOM      2  C   UNL     1      46.725   6.401  12.466  0.00  0.00    +0.000 A 
ATOM      3  N   UNL     1      45.866   5.541  11.879  0.00  0.00    +0.000 NA
ATOM      4  C   UNL     1      45.673   4.373  12.494  0.00  0.00    +0.000 A 
ATOM      5  C   UNL     1      46.327   4.067  13.682  0.00  0.00    +0.000 A 
ATOM      6  C   UNL     1      47.222   4.955  14.320  0.00  0.00    +0.000 A 
ENDROOT
BRANCH   6   7
ATOM      7  N   UNL     1      47.817   4.543  15.500  0.00  0.00    +0.000 N 
ATOM      8  C   UNL     1      47.839   3.171  16.016  0.00  0.00    +0.000 C 
ATOM      9  C   UNL     1      47.109   3.129  17.382  0.00  0.00    +0.000 C 
ATOM     10  N   UNL     1      47.727   4.027  18.385  0.00  0.00    +0.000 NA
ATOM     11  C   UNL     1      47.775   5.400  17.832  0.00  0.00    +0.000 C 
ATOM     12  C   UNL     1      48.432   5.511  16.435  0.00  0.00    +0.000 C 
ATOM     13  H   UNL     1      48.685   3.714  18.537  0.00  0.00    +0.000 HD
ENDBRANCH   6   7
BRANCH   1  15
ATOM     14  C   UNL     1      48.774   8.182  12.888  0.00  0.00    +0.000 C 
ATOM     15  C   UNL     1      48.396   7.273  14.054  0.00  0.00    +0.000 C 
ENDBRANCH   1  15
BRANCH   4  16
ATOM     16  N   UNL     1      44.861   3.480  11.822  0.00  0.00    +0.000 N 
ATOM     17  H   UNL     1      45.298   2.563  11.866  0.00  0.00    +0.000 HD
BRANCH  16  18
ATOM     18  C   UNL     1      44.265   3.823  10.548  0.00  0.00    +0.000 C 
BRANCH  18  19
ATOM     19  C   UNL     1      45.120   3.376   9.382  0.00  0.00    +0.000 A 
ATOM     20  C   UNL     1      45.605   4.349   8.488  0.00  0.00    +0.000 A 
ATOM     21  C   UNL     1      46.385   3.995   7.391  0.00  0.00    +0.000 A 
ATOM     22  C   UNL     1      46.706   2.659   7.161  0.00  0.00    +0.000 A 
ATOM     23  C   UNL     1      46.246   1.672   8.035  0.00  0.00    +0.000 A 
ATOM     24  C   UNL     1      45.456   2.030   9.140  0.00  0.00    +0.000 A 
BRANCH  23  25
ATOM     25  C   UNL     1      46.572   0.296   7.804  0.00  0.00    +0.000 C 
ATOM     26  N   UNL     1      46.824  -0.820   7.613  0.00  0.00    +0.000 NA
ENDBRANCH  23  25
ENDBRANCH  18  19
ENDBRANCH  16  18
ENDBRANCH   4  16
TORSDOF 6
ENDMDL
MODEL 3
REMARK VINA RESULT:    -6.645      2.974      7.752
REMARK INTER + INTRA:          -9.857
REMARK INTER:                  -9.306
REMARK INTRA:                  -0.551
REMARK UNBOUND:                -0.881
REMARK  Name = 
REMARK  7 active torsions:
REMARK  status: ('A' for Active; 'I' for Inactive)
REMARK    1  A    between atoms: C_1  and  C_2
REMARK    2  A    between atoms: C_2  and  C_3
REMARK    3  A    between atoms: C_6  and  N_7
REMARK    4  A    between atoms: N_7  and  C_8
REMARK    5  A    between atoms: C_8  and  C_9
REMARK    6  A    between atoms: C_13  and  C_14
REMARK    7  A    between atoms: C_18  and  N_19
REMARK                            x       y       z     vdW  Elec       q    Type
REMARK                         _______ _______ _______ _____ _____    ______ ____
ROOT
ATOM      1  C   UNL     1      47.282   6.854  12.813  0.00  0.00    +0.000 A 
ATOM      2  C   UNL     1      48.091   6.639  13.942  0.00  0.00    +0.000 A 
ATOM      3  N   UNL     1      48.017   5.588  14.786  0.00  0.00    +0.000 NA
ATOM      4  C   UNL     1      47.079   4.676  14.527  0.00  0.00    +0.000 A 
ATOM      5  C   UNL     1      46.226   4.808  13.436  0.00  0.00    +0.000 A 
ATOM      6  C   UNL     1      46.293   5.893  12.534  0.00  0.00    +0.000 A 
ENDROOT
BRANCH   6   7
ATOM      7  N   UNL     1      45.391   5.922  11.482  0.00  0.00    +0.000 N 
ATOM      8  C   UNL     1      43.946   6.135  11.598  0.00  0.00    +0.000 C 
ATOM      9  C   UNL     1      43.203   4.884  11.064  0.00  0.00    +0.000 C 
ATOM     10  N   UNL     1      43.531   4.588   9.650  0.00  0.00    +0.000 NA
ATOM     11  C   UNL     1      45.000   4.450   9.519  0.00  0.00    +0.000 C 
ATOM     12  C   UNL     1      45.814   5.635  10.094  0.00  0.00    +0.000 C 
ATOM     13  H   UNL     1      43.238   5.386   9.088  0.00  0.00    +0.000 HD
ENDBRANCH   6   7
BRANCH   1  15
ATOM     14  C   UNL     1      48.967   8.370  11.681  0.00  0.00    +0.000 C 
ATOM     15  C   UNL     1      47.512   8.161  12.091  0.00  0.00    +0.000 C 
ENDBRANCH   1  15
BRANCH   4  16
ATOM     16  N   UNL     1      46.968   3.662  15.458  0.00  0.00    +0.000 N 
ATOM     17  H   UNL     1      46.087   3.181  15.296  0.00  0.00    +0.000 HD
BRANCH  16  18
ATOM     18  C   UNL     1      47.308   3.884  16.848  0.00  0.00    +0.000 C 
BRANCH  18  19
ATOM     19  C   UNL     1      48.741   3.502  17.150  0.00  0.00    +0.000 A 
ATOM     20  C   UNL     1      49.197   2.230  16.756  0.00  0.00    +0.000 A 
ATOM     21  C   UNL     1      50.501   1.819  17.018  0.00  0.00    +0.000 A 
ATOM     22  C   UNL     1      51.385   2.670  17.677  0.00  0.00    +0.000 A 
ATOM     23  C   UNL     1      50.963   3.941  18.074  0.00  0.00    +0.000 A 
ATOM     24  C   UNL     1      49.646   4.353  17.811  0.00  0.00    +0.000 A 
BRANCH  23  25
ATOM     25  C   UNL     1      51.868   4.821  18.753  0.00  0.00    +0.000 C 
ATOM     26  N   UNL     1      52.589   5.540  19.307  0.00  0.00    +0.000 NA
ENDBRANCH  23  25
ENDBRANCH  18  19
ENDBRANCH  16  18
ENDBRANCH   4  16
TORSDOF 6
ENDMDL
MODEL 4
REMARK VINA RESULT:    -6.579      3.641      7.798
REMARK INTER + INTRA:          -9.767
REMARK INTER:                  -8.950
REMARK INTRA:                  -0.817
REMARK UNBOUND:                -0.881
REMARK  Name = 
REMARK  7 active torsions:
REMARK  status: ('A' for Active; 'I' for Inactive)
REMARK    1  A    between atoms: C_1  and  C_2
REMARK    2  A    between atoms: C_2  and  C_3
REMARK    3  A    between atoms: C_6  and  N_7
REMARK    4  A    between atoms: N_7  and  C_8
REMARK    5  A    between atoms: C_8  and  C_9
REMARK    6  A    between atoms: C_13  and  C_14
REMARK    7  A    between atoms: C_18  and  N_19
REMARK                            x       y       z     vdW  Elec       q    Type
REMARK                         _______ _______ _______ _____ _____    ______ ____
ROOT
ATOM      1  C   UNL     1      46.976   6.129  13.015  0.00  0.00    +0.000 A 
ATOM      2  C   UNL     1      47.999   6.352  13.952  0.00  0.00    +0.000 A 
ATOM      3  N   UNL     1      48.211   5.645  15.082  0.00  0.00    +0.000 NA
ATOM      4  C   UNL     1      47.360   4.650  15.336  0.00  0.00    +0.000 A 
ATOM      5  C   UNL     1      46.311   4.360  14.470  0.00  0.00    +0.000 A 
ATOM      6  C   UNL     1      46.077   5.079  13.276  0.00  0.00    +0.000 A 
ENDROOT
BRANCH   6   7
ATOM      7  N   UNL     1      45.001   4.701  12.490  0.00  0.00    +0.000 N 
ATOM      8  C   UNL     1      45.059   3.816  11.324  0.00  0.00    +0.000 C 
ATOM      9  C   UNL     1      44.591   4.596  10.070  0.00  0.00    +0.000 C 
ATOM     10  N   UNL     1      43.211   5.117  10.205  0.00  0.00    +0.000 NA
ATOM     11  C   UNL     1      43.133   5.949  11.428  0.00  0.00    +0.000 C 
ATOM     12  C   UNL     1      43.648   5.258  12.714  0.00  0.00    +0.000 C 
ATOM     13  H   UNL     1      42.586   4.321  10.326  0.00  0.00    +0.000 HD
ENDBRANCH   6   7
BRANCH   1  15
ATOM     14  C   UNL     1      45.925   8.264  12.145  0.00  0.00    +0.000 C 
ATOM     15  C   UNL     1      46.907   7.126  11.882  0.00  0.00    +0.000 C 
ENDBRANCH   1  15
BRANCH   4  16
ATOM     16  N   UNL     1      47.548   4.006  16.543  0.00  0.00    +0.000 N 
ATOM     17  H   UNL     1      47.849   4.697  17.225  0.00  0.00    +0.000 HD
BRANCH  16  18
ATOM     18  C   UNL     1      48.228   2.729  16.612  0.00  0.00    +0.000 C 
BRANCH  18  19
ATOM     19  C   UNL     1      49.631   2.862  17.164  0.00  0.00    +0.000 A 
ATOM     20  C   UNL     1      49.999   4.071  17.785  0.00  0.00    +0.000 A 
ATOM     21  C   UNL     1      51.279   4.256  18.300  0.00  0.00    +0.000 A 
ATOM     22  C   UNL     1      52.223   3.235  18.213  0.00  0.00    +0.000 A 
ATOM     23  C   UNL     1      51.884   2.022  17.610  0.00  0.00    +0.000 A 
ATOM     24  C   UNL     1      50.593   1.838  17.088  0.00  0.00    +0.000 A 
BRANCH  23  25
ATOM     25  C   UNL     1      52.851   0.969  17.517  0.00  0.00    +0.000 C 
ATOM     26  N   UNL     1      53.641   0.123  17.433  0.00  0.00    +0.000 NA
ENDBRANCH  23  25
ENDBRANCH  18  19
ENDBRANCH  16  18
ENDBRANCH   4  16
TORSDOF 6
ENDMDL
MODEL 5
REMARK VINA RESULT:    -6.032      2.909      7.719
REMARK INTER + INTRA:          -9.029
REMARK INTER:                  -8.181
REMARK INTRA:                  -0.848
REMARK UNBOUND:                -0.881
REMARK  Name = 
REMARK  7 active torsions:
REMARK  status: ('A' for Active; 'I' for Inactive)
REMARK    1  A    between atoms: C_1  and  C_2
REMARK    2  A    between atoms: C_2  and  C_3
REMARK    3  A    between atoms: C_6  and  N_7
REMARK    4  A    between atoms: N_7  and  C_8
REMARK    5  A    between atoms: C_8  and  C_9
REMARK    6  A    between atoms: C_13  and  C_14
REMARK    7  A    between atoms: C_18  and  N_19
REMARK                            x       y       z     vdW  Elec       q    Type
REMARK                         _______ _______ _______ _____ _____    ______ ____
ROOT
ATOM      1  C   UNL     1      45.921   7.660  11.964  0.00  0.00    +0.000 A 
ATOM      2  C   UNL     1      46.912   8.605  12.276  0.00  0.00    +0.000 A 
ATOM      3  N   UNL     1      48.098   8.350  12.868  0.00  0.00    +0.000 NA
ATOM      4  C   UNL     1      48.342   7.080  13.198  0.00  0.00    +0.000 A 
ATOM      5  C   UNL     1      47.415   6.076  12.937  0.00  0.00    +0.000 A 
ATOM      6  C   UNL     1      46.174   6.319  12.307  0.00  0.00    +0.000 A 
ENDROOT
BRANCH   6   7
ATOM      7  N   UNL     1      45.329   5.242  12.098  0.00  0.00    +0.000 N 
ATOM      8  C   UNL     1      45.107   4.562  10.819  0.00  0.00    +0.000 C 
ATOM      9  C   UNL     1      43.615   4.699  10.423  0.00  0.00    +0.000 C 
ATOM     10  N   UNL     1      42.702   4.122  11.435  0.00  0.00    +0.000 NA
ATOM     11  C   UNL     1      42.980   4.754  12.746  0.00  0.00    +0.000 C 
ATOM     12  C   UNL     1      44.467   4.715  13.178  0.00  0.00    +0.000 C 
ATOM     13  H   UNL     1      42.911   3.127  11.514  0.00  0.00    +0.000 HD
ENDBRANCH   6   7
BRANCH   1  15
ATOM     14  C   UNL     1      44.593   9.751  11.431  0.00  0.00    +0.000 C 
ATOM     15  C   UNL     1      44.645   8.226  11.385  0.00  0.00    +0.000 C 
ENDBRANCH   1  15
BRANCH   4  16
ATOM     16  N   UNL     1      49.521   6.865  13.885  0.00  0.00    +0.000 N 
ATOM     17  H   UNL     1      49.684   5.862  13.923  0.00  0.00    +0.000 HD
BRANCH  16  18
ATOM     18  C   UNL     1      49.819   7.589  15.103  0.00  0.00    +0.000 C 
BRANCH  18  19
ATOM     19  C   UNL     1      49.072   7.028  16.294  0.00  0.00    +0.000 A 
ATOM     20  C   UNL     1      48.930   7.834  17.440  0.00  0.00    +0.000 A 
ATOM     21  C   UNL     1      48.264   7.367  18.571  0.00  0.00    +0.000 A 
ATOM     22  C   UNL     1      47.719   6.085  18.583  0.00  0.00    +0.000 A 
ATOM     23  C   UNL     1      47.838   5.267  17.458  0.00  0.00    +0.000 A 
ATOM     24  C   UNL     1      48.513   5.737  16.320  0.00  0.00    +0.000 A 
BRANCH  23  25
ATOM     25  C   UNL     1      47.279   3.947  17.465  0.00  0.00    +0.000 C 
ATOM     26  N   UNL     1      46.828   2.879  17.459  0.00  0.00    +0.000 NA
ENDBRANCH  23  25
ENDBRANCH  18  19
ENDBRANCH  16  18
ENDBRANCH   4  16
TORSDOF 6
ENDMDL
MODEL 6
REMARK VINA RESULT:    -6.022      2.933      6.781
REMARK INTER + INTRA:          -9.015
REMARK INTER:                  -8.129
REMARK INTRA:                  -0.886
REMARK UNBOUND:                -0.881
REMARK  Name = 
REMARK  7 active torsions:
REMARK  status: ('A' for Active; 'I' for Inactive)
REMARK    1  A    between atoms: C_1  and  C_2
REMARK    2  A    between atoms: C_2  and  C_3
REMARK    3  A    between atoms: C_6  and  N_7
REMARK    4  A    between atoms: N_7  and  C_8
REMARK    5  A    between atoms: C_8  and  C_9
REMARK    6  A    between atoms: C_13  and  C_14
REMARK    7  A    between atoms: C_18  and  N_19
REMARK                            x       y       z     vdW  Elec       q    Type
REMARK                         _______ _______ _______ _____ _____    ______ ____
ROOT
ATOM      1  C   UNL     1      45.963   5.442  11.819  0.00  0.00    +0.000 A 
ATOM      2  C   UNL     1      45.436   4.229  12.293  0.00  0.00    +0.000 A 
ATOM      3  N   UNL     1      45.730   3.638  13.470  0.00  0.00    +0.000 NA
ATOM      4  C   UNL     1      46.616   4.261  14.249  0.00  0.00    +0.000 A 
ATOM      5  C   UNL     1      47.198   5.463  13.860  0.00  0.00    +0.000 A 
ATOM      6  C   UNL     1      46.895   6.105  12.639  0.00  0.00    +0.000 A 
ENDROOT
BRANCH   6   7
ATOM      7  N   UNL     1      47.537   7.300  12.355  0.00  0.00    +0.000 N 
ATOM      8  C   UNL     1      48.850   7.437  11.718  0.00  0.00    +0.000 C 
ATOM      9  C   UNL     1      49.817   8.151  12.696  0.00  0.00    +0.000 C 
ATOM     10  N   UNL     1      49.336   9.494  13.095  0.00  0.00    +0.000 NA
ATOM     11  C   UNL     1      47.976   9.363  13.668  0.00  0.00    +0.000 C 
ATOM     12  C   UNL     1      46.969   8.600  12.773  0.00  0.00    +0.000 C 
ATOM     13  H   UNL     1      49.270  10.065  12.254  0.00  0.00    +0.000 HD
ENDBRANCH   6   7
BRANCH   1  15
ATOM     14  C   UNL     1      45.086   4.645   9.580  0.00  0.00    +0.000 C 
ATOM     15  C   UNL     1      45.536   5.834  10.425  0.00  0.00    +0.000 C 
ENDBRANCH   1  15
BRANCH   4  16
ATOM     16  N   UNL     1      46.965   3.587  15.402  0.00  0.00    +0.000 N 
ATOM     17  H   UNL     1      46.339   2.793  15.504  0.00  0.00    +0.000 HD
BRANCH  16  18
ATOM     18  C   UNL     1      47.264   4.303  16.625  0.00  0.00    +0.000 C 
BRANCH  18  19
ATOM     19  C   UNL     1      48.723   4.185  17.010  0.00  0.00    +0.000 A 
ATOM     20  C   UNL     1      49.435   5.359  17.321  0.00  0.00    +0.000 A 
ATOM     21  C   UNL     1      50.783   5.315  17.668  0.00  0.00    +0.000 A 
ATOM     22  C   UNL     1      51.453   4.094  17.720  0.00  0.00    +0.000 A 
ATOM     23  C   UNL     1      50.770   2.912  17.425  0.00  0.00    +0.000 A 
ATOM     24  C   UNL     1      49.412   2.959  17.070  0.00  0.00    +0.000 A 
BRANCH  23  25
ATOM     25  C   UNL     1      51.454   1.654  17.475  0.00  0.00    +0.000 C 
ATOM     26  N   UNL     1      52.014   0.640  17.526  0.00  0.00    +0.000 NA
ENDBRANCH  23  25
ENDBRANCH  18  19
ENDBRANCH  16  18
ENDBRANCH   4  16
TORSDOF 6
ENDMDL
MODEL 7
REMARK VINA RESULT:    -5.931      2.908      5.570
REMARK INTER + INTRA:          -8.892
REMARK INTER:                  -8.018
REMARK INTRA:                  -0.874
REMARK UNBOUND:                -0.881
REMARK  Name = 
REMARK  7 active torsions:
REMARK  status: ('A' for Active; 'I' for Inactive)
REMARK    1  A    between atoms: C_1  and  C_2
REMARK    2  A    between atoms: C_2  and  C_3
REMARK    3  A    between atoms: C_6  and  N_7
REMARK    4  A    between atoms: N_7  and  C_8
REMARK    5  A    between atoms: C_8  and  C_9
REMARK    6  A    between atoms: C_13  and  C_14
REMARK    7  A    between atoms: C_18  and  N_19
REMARK                            x       y       z     vdW  Elec       q    Type
REMARK                         _______ _______ _______ _____ _____    ______ ____
ROOT
ATOM      1  C   UNL     1      49.744   6.531  16.167  0.00  0.00    +0.000 A 
ATOM      2  C   UNL     1      50.091   7.291  15.038  0.00  0.00    +0.000 A 
ATOM      3  N   UNL     1      49.379   7.392  13.896  0.00  0.00    +0.000 NA
ATOM      4  C   UNL     1      48.245   6.691  13.833  0.00  0.00    +0.000 A 
ATOM      5  C   UNL     1      47.824   5.903  14.898  0.00  0.00    +0.000 A 
ATOM      6  C   UNL     1      48.548   5.792  16.107  0.00  0.00    +0.000 A 
ENDROOT
BRANCH   6   7
ATOM      7  N   UNL     1      48.033   4.976  17.100  0.00  0.00    +0.000 N 
ATOM      8  C   UNL     1      47.561   5.419  18.415  0.00  0.00    +0.000 C 
ATOM      9  C   UNL     1      48.423   4.751  19.516  0.00  0.00    +0.000 C 
ATOM     10  N   UNL     1      48.368   3.272  19.463  0.00  0.00    +0.000 NA
ATOM     11  C   UNL     1      48.770   2.828  18.108  0.00  0.00    +0.000 C 
ATOM     12  C   UNL     1      47.997   3.505  16.950  0.00  0.00    +0.000 C 
ATOM     13  H   UNL     1      47.401   2.989  19.613  0.00  0.00    +0.000 HD
ENDBRANCH   6   7
BRANCH   1  15
ATOM     14  C   UNL     1      51.594   5.237  17.318  0.00  0.00    +0.000 C 
ATOM     15  C   UNL     1      50.766   6.519  17.279  0.00  0.00    +0.000 C 
ENDBRANCH   1  15
BRANCH   4  16
ATOM     16  N   UNL     1      47.587   6.742  12.619  0.00  0.00    +0.000 N 
ATOM     17  H   UNL     1      48.241   7.084  11.921  0.00  0.00    +0.000 HD
BRANCH  16  18
ATOM     18  C   UNL     1      46.241   7.268  12.520  0.00  0.00    +0.000 C 
BRANCH  18  19
ATOM     19  C   UNL     1      45.262   6.230  12.016  0.00  0.00    +0.000 A 
ATOM     20  C   UNL     1      44.188   5.858  12.846  0.00  0.00    +0.000 A 
ATOM     21  C   UNL     1      43.263   4.899  12.442  0.00  0.00    +0.000 A 
ATOM     22  C   UNL     1      43.384   4.291  11.194  0.00  0.00    +0.000 A 
ATOM     23  C   UNL     1      44.435   4.647  10.346  0.00  0.00    +0.000 A 
ATOM     24  C   UNL     1      45.369   5.611  10.757  0.00  0.00    +0.000 A 
BRANCH  23  25
ATOM     25  C   UNL     1      44.565   4.024   9.061  0.00  0.00    +0.000 C 
ATOM     26  N   UNL     1      44.676   3.531   8.018  0.00  0.00    +0.000 NA
ENDBRANCH  23  25
ENDBRANCH  18  19
ENDBRANCH  16  18
ENDBRANCH   4  16
TORSDOF 6
ENDMDL
MODEL 8
REMARK VINA RESULT:    -5.876      1.745      3.059
REMARK INTER + INTRA:          -8.818
REMARK INTER:                  -8.032
REMARK INTRA:                  -0.786
REMARK UNBOUND:                -0.881
REMARK  Name = 
REMARK  7 active torsions:
REMARK  status: ('A' for Active; 'I' for Inactive)
REMARK    1  A    between atoms: C_1  and  C_2
REMARK    2  A    between atoms: C_2  and  C_3
REMARK    3  A    between atoms: C_6  and  N_7
REMARK    4  A    between atoms: N_7  and  C_8
REMARK    5  A    between atoms: C_8  and  C_9
REMARK    6  A    between atoms: C_13  and  C_14
REMARK    7  A    between atoms: C_18  and  N_19
REMARK                            x       y       z     vdW  Elec       q    Type
REMARK                         _______ _______ _______ _____ _____    ______ ____
ROOT
ATOM      1  C   UNL     1      45.962   8.031  12.182  0.00  0.00    +0.000 A 
ATOM      2  C   UNL     1      44.742   7.926  11.491  0.00  0.00    +0.000 A 
ATOM      3  N   UNL     1      44.228   6.802  10.950  0.00  0.00    +0.000 NA
ATOM      4  C   UNL     1      44.954   5.690  11.074  0.00  0.00    +0.000 A 
ATOM      5  C   UNL     1      46.178   5.698  11.734  0.00  0.00    +0.000 A 
ATOM      6  C   UNL     1      46.730   6.860  12.317  0.00  0.00    +0.000 A 
ENDROOT
BRANCH   6   7
ATOM      7  N   UNL     1      47.959   6.750  12.949  0.00  0.00    +0.000 N 
ATOM      8  C   UNL     1      48.171   6.395  14.355  0.00  0.00    +0.000 C 
ATOM      9  C   UNL     1      48.880   7.570  15.074  0.00  0.00    +0.000 C 
ATOM     10  N   UNL     1      50.187   7.906  14.464  0.00  0.00    +0.000 NA
ATOM     11  C   UNL     1      49.983   8.189  13.024  0.00  0.00    +0.000 C 
ATOM     12  C   UNL     1      49.219   7.087  12.251  0.00  0.00    +0.000 C 
ATOM     13  H   UNL     1      50.788   7.088  14.542  0.00  0.00    +0.000 HD
ENDBRANCH   6   7
BRANCH   1  15
ATOM     14  C   UNL     1      45.535  10.513  11.905  0.00  0.00    +0.000 C 
ATOM     15  C   UNL     1      46.348   9.428  12.606  0.00  0.00    +0.000 C 
ENDBRANCH   1  15
BRANCH   4  16
ATOM     16  N   UNL     1      44.446   4.578  10.432  0.00  0.00    +0.000 N 
ATOM     17  H   UNL     1      44.817   3.752  10.892  0.00  0.00    +0.000 HD
BRANCH  16  18
ATOM     18  C   UNL     1      44.390   4.510   8.986  0.00  0.00    +0.000 C 
BRANCH  18  19
ATOM     19  C   UNL     1      45.169   3.332   8.442  0.00  0.00    +0.000 A 
ATOM     20  C   UNL     1      45.018   2.079   9.065  0.00  0.00    +0.000 A 
ATOM     21  C   UNL     1      45.719   0.962   8.617  0.00  0.00    +0.000 A 
ATOM     22  C   UNL     1      46.585   1.068   7.531  0.00  0.00    +0.000 A 
ATOM     23  C   UNL     1      46.750   2.297   6.889  0.00  0.00    +0.000 A 
ATOM     24  C   UNL     1      46.045   3.424   7.344  0.00  0.00    +0.000 A 
BRANCH  23  25
ATOM     25  C   UNL     1      47.640   2.413   5.772  0.00  0.00    +0.000 C 
ATOM     26  N   UNL     1      48.364   2.517   4.872  0.00  0.00    +0.000 NA
ENDBRANCH  23  25
ENDBRANCH  18  19
ENDBRANCH  16  18
ENDBRANCH   4  16
TORSDOF 6
ENDMDL
MODEL 9
REMARK VINA RESULT:    -5.796      3.575      9.224
REMARK INTER + INTRA:          -8.710
REMARK INTER:                  -7.860
REMARK INTRA:                  -0.850
REMARK UNBOUND:                -0.881
REMARK  Name = 
REMARK  7 active torsions:
REMARK  status: ('A' for Active; 'I' for Inactive)
REMARK    1  A    between atoms: C_1  and  C_2
REMARK    2  A    between atoms: C_2  and  C_3
REMARK    3  A    between atoms: C_6  and  N_7
REMARK    4  A    between atoms: N_7  and  C_8
REMARK    5  A    between atoms: C_8  and  C_9
REMARK    6  A    between atoms: C_13  and  C_14
REMARK    7  A    between atoms: C_18  and  N_19
REMARK                            x       y       z     vdW  Elec       q    Type
REMARK                         _______ _______ _______ _____ _____    ______ ____
ROOT
ATOM      1  C   UNL     1      46.726   6.009  12.783  0.00  0.00    +0.000 A 
ATOM      2  C   UNL     1      47.841   6.598  13.404  0.00  0.00    +0.000 A 
ATOM      3  N   UNL     1      48.385   6.227  14.581  0.00  0.00    +0.000 NA
ATOM      4  C   UNL     1      47.799   5.212  15.219  0.00  0.00    +0.000 A 
ATOM      5  C   UNL     1      46.685   4.572  14.686  0.00  0.00    +0.000 A 
ATOM      6  C   UNL     1      46.106   4.937  13.450  0.00  0.00    +0.000 A 
ENDROOT
BRANCH   6   7
ATOM      7  N   UNL     1      44.996   4.230  13.018  0.00  0.00    +0.000 N 
ATOM      8  C   UNL     1      45.019   3.019  12.192  0.00  0.00    +0.000 C 
ATOM      9  C   UNL     1      44.281   3.301  10.858  0.00  0.00    +0.000 C 
ATOM     10  N   UNL     1      42.874   3.714  11.062  0.00  0.00    +0.000 NA
ATOM     11  C   UNL     1      42.846   4.890  11.962  0.00  0.00    +0.000 C 
ATOM     12  C   UNL     1      43.622   4.706  13.289  0.00  0.00    +0.000 C 
ATOM     13  H   UNL     1      42.388   2.949  11.529  0.00  0.00    +0.000 HD
ENDBRANCH   6   7
BRANCH   1  15
ATOM     14  C   UNL     1      45.245   7.788  11.753  0.00  0.00    +0.000 C 
ATOM     15  C   UNL     1      46.264   6.679  11.510  0.00  0.00    +0.000 C 
ENDBRANCH   1  15
BRANCH   4  16
ATOM     16  N   UNL     1      48.321   4.916  16.463  0.00  0.00    +0.000 N 
ATOM     17  H   UNL     1      47.577   4.519  17.030  0.00  0.00    +0.000 HD
BRANCH  16  18
ATOM     18  C   UNL     1      49.195   5.846  17.148  0.00  0.00    +0.000 C 
BRANCH  18  19
ATOM     19  C   UNL     1      48.577   6.370  18.426  0.00  0.00    +0.000 A 
ATOM     20  C   UNL     1      48.411   5.484  19.507  0.00  0.00    +0.000 A 
ATOM     21  C   UNL     1      47.836   5.906  20.703  0.00  0.00    +0.000 A 
ATOM     22  C   UNL     1      47.417   7.226  20.852  0.00  0.00    +0.000 A 
ATOM     23  C   UNL     1      47.576   8.129  19.799  0.00  0.00    +0.000 A 
ATOM     24  C   UNL     1      48.152   7.702  18.592  0.00  0.00    +0.000 A 
BRANCH  23  25
ATOM     25  C   UNL     1      47.145   9.489  19.945  0.00  0.00    +0.000 C 
ATOM     26  N   UNL     1      46.809  10.592  20.066  0.00  0.00    +0.000 NA
ENDBRANCH  23  25
ENDBRANCH  18  19
ENDBRANCH  16  18
ENDBRANCH   4  16
TORSDOF 6
ENDMDL
