MODEL 1
REMARK VINA RESULT:    -7.386      0.000      0.000
REMARK INTER + INTRA:         -11.007
REMARK INTER:                  -9.976
REMARK INTRA:                  -1.031
REMARK UNBOUND:                -1.031
REMARK  Name = 
REMARK  9 active torsions:
REMARK  status: ('A' for Active; 'I' for Inactive)
REMARK    1  A    between atoms: C_1  and  C_2
REMARK    2  A    between atoms: C_2  and  C_3
REMARK    3  A    between atoms: C_2  and  C_4
REMARK    4  A    between atoms: C_2  and  C_5
REMARK    5  A    between atoms: C_7  and  C_8
REMARK    6  A    between atoms: C_12  and  N_13
REMARK    7  A    between atoms: N_13  and  C_14
REMARK    8  A    between atoms: C_14  and  C_15
REMARK    9  A    between atoms: C_19  and  C_20
REMARK                            x       y       z     vdW  Elec       q    Type
REMARK                         _______ _______ _______ _____ _____    ______ ____
ROOT
ATOM      1  N   UNL     1      47.503   6.017  12.907  0.00  0.00    +0.000 N 
ATOM      2  H   UNL     1      48.189   6.524  12.359  0.00  0.00    +0.000 HD
ENDROOT
BRANCH   1   7
ATOM      3  C   UNL     1      49.539   6.601  15.808  0.00  0.00    +0.000 A 
ATOM      4  C   UNL     1      48.996   5.753  16.764  0.00  0.00    +0.000 A 
ATOM      5  C   UNL     1      47.907   4.963  16.415  0.00  0.00    +0.000 A 
ATOM      6  C   UNL     1      47.368   5.049  15.139  0.00  0.00    +0.000 A 
ATOM      7  C   UNL     1      47.930   5.922  14.219  0.00  0.00    +0.000 A 
ATOM      8  N   UNL     1      48.998   6.688  14.558  0.00  0.00    +0.000 NA
BRANCH   5   9
ATOM      9  C   UNL     1      47.319   4.057  17.433  0.00  0.00    +0.000 C 
ATOM     10  N   UNL     1      47.713   4.190  18.738  0.00  0.00    +0.000 N 
ATOM     11  O   UNL     1      46.469   3.226  17.121  0.00  0.00    +0.000 OA
ATOM     12  H   UNL     1      48.266   4.960  19.085  0.00  0.00    +0.000 HD
ATOM     13  H   UNL     1      47.215   3.628  19.413  0.00  0.00    +0.000 HD
ENDBRANCH   5   9
BRANCH   3  15
ATOM     14  C   UNL     1      51.861   6.599  16.839  0.00  0.00    +0.000 C 
ATOM     15  C   UNL     1      50.788   7.448  16.122  0.00  0.00    +0.000 C 
ATOM     16  C   UNL     1      50.410   8.642  17.022  0.00  0.00    +0.000 C 
ATOM     17  C   UNL     1      51.437   8.003  14.835  0.00  0.00    +0.000 C 
ENDBRANCH   3  15
ENDBRANCH   1   7
BRANCH   1  18
ATOM     18  C   UNL     1      46.112   6.322  12.637  0.00  0.00    +0.000 C 
BRANCH  18  19
ATOM     19  C   UNL     1      45.279   5.101  12.315  0.00  0.00    +0.000 A 
ATOM     20  C   UNL     1      44.229   4.718  13.162  0.00  0.00    +0.000 A 
ATOM     21  C   UNL     1      43.353   3.704  12.788  0.00  0.00    +0.000 A 
ATOM     22  C   UNL     1      43.466   3.125  11.520  0.00  0.00    +0.000 A 
ATOM     23  C   UNL     1      44.459   3.558  10.618  0.00  0.00    +0.000 A 
ATOM     24  C   UNL     1      45.428   4.458  11.076  0.00  0.00    +0.000 A 
BRANCH  23  25
ATOM     25  C   UNL     1      44.364   3.180   9.144  0.00  0.00    +0.000 C 
ATOM     26  C   UNL     1      44.750   1.728   8.836  0.00  0.00    +0.000 C 
ATOM     27  C   UNL     1      46.178   1.543   8.330  0.00  0.00    +0.000 C 
ATOM     28  N   UNL     1      46.455   2.420   7.196  0.00  0.00    +0.000 NA
ATOM     29  C   UNL     1      46.411   3.813   7.630  0.00  0.00    +0.000 C 
ATOM     30  C   UNL     1      45.045   4.207   8.197  0.00  0.00    +0.000 C 
ATOM     31  H   UNL     1      45.755   2.267   6.468  0.00  0.00    +0.000 HD
ENDBRANCH  23  25
ENDBRANCH  18  19
ENDBRANCH   1  18
TORSDOF 6
ENDMDL
MODEL 2
REMARK VINA RESULT:    -7.352      3.010      4.146
REMARK INTER + INTRA:         -10.962
REMARK INTER:                  -9.689
REMARK INTRA:                  -1.273
REMARK UNBOUND:                -1.031
REMARK  Name = 
REMARK  9 active torsions:
REMARK  status: ('A' for Active; 'I' for Inactive)
REMARK    1  A    between atoms: C_1  and  C_2
REMARK    2  A    between atoms: C_2  and  C_3
REMARK    3  A    between atoms: C_2  and  C_4
REMARK    4  A    between atoms: C_2  and  C_5
REMARK    5  A    between atoms: C_7  and  C_8
REMARK    6  A    between atoms: C_12  and  N_13
REMARK    7  A    between atoms: N_13  and  C_14
REMARK    8  A    between atoms: C_14  and  C_15
REMARK    9  A    between atoms: C_19  and  C_20
REMARK                            x       y       z     vdW  Elec       q    Type
REMARK                         _______ _______ _______ _____ _____    ______ ____
ROOT
ATOM      1  N   UNL     1      46.886   5.937  13.992  0.00  0.00    +0.000 N 
ATOM      2  H   UNL     1      47.385   5.971  14.874  0.00  0.00    +0.000 HD
ENDROOT
BRANCH   1   7
ATOM      3  C   UNL     1      48.790   8.469  12.298  0.00  0.00    +0.000 A 
ATOM      4  C   UNL     1      47.834   9.410  11.940  0.00  0.00    +0.000 A 
ATOM      5  C   UNL     1      46.507   9.179  12.281  0.00  0.00    +0.000 A 
ATOM      6  C   UNL     1      46.155   8.012  12.944  0.00  0.00    +0.000 A 
ATOM      7  C   UNL     1      47.138   7.088  13.268  0.00  0.00    +0.000 A 
ATOM      8  N   UNL     1      48.436   7.319  12.941  0.00  0.00    +0.000 NA
BRANCH   5   9
ATOM      9  C   UNL     1      45.481  10.180  11.898  0.00  0.00    +0.000 C 
ATOM     10  N   UNL     1      44.260  10.139  12.516  0.00  0.00    +0.000 N 
ATOM     11  O   UNL     1      45.730  11.053  11.069  0.00  0.00    +0.000 OA
ATOM     12  H   UNL     1      44.055   9.569  13.323  0.00  0.00    +0.000 HD
ATOM     13  H   UNL     1      43.628  10.898  12.305  0.00  0.00    +0.000 HD
ENDBRANCH   5   9
BRANCH   3  15
ATOM     14  C   UNL     1      50.834   7.632  11.043  0.00  0.00    +0.000 C 
ATOM     15  C   UNL     1      50.284   8.709  12.004  0.00  0.00    +0.000 C 
ATOM     16  C   UNL     1      51.098   8.674  13.314  0.00  0.00    +0.000 C 
ATOM     17  C   UNL     1      50.518  10.078  11.329  0.00  0.00    +0.000 C 
ENDBRANCH   3  15
ENDBRANCH   1   7
BRANCH   1  18
ATOM     18  C   UNL     1      46.878   4.659  13.307  0.00  0.00    +0.000 C 
BRANCH  18  19
ATOM     19  C   UNL     1      45.522   4.284  12.750  0.00  0.00    +0.000 A 
ATOM     20  C   UNL     1      44.351   4.771  13.352  0.00  0.00    +0.000 A 
ATOM     21  C   UNL     1      43.113   4.574  12.749  0.00  0.00    +0.000 A 
ATOM     22  C   UNL     1      43.044   3.966  11.491  0.00  0.00    +0.000 A 
ATOM     23  C   UNL     1      44.218   3.551  10.829  0.00  0.00    +0.000 A 
ATOM     24  C   UNL     1      45.431   3.608  11.524  0.00  0.00    +0.000 A 
BRANCH  23  25
ATOM     25  C   UNL     1      44.172   3.214   9.342  0.00  0.00    +0.000 C 
ATOM     26  C   UNL     1      44.603   1.781   9.003  0.00  0.00    +0.000 C 
ATOM     27  C   UNL     1      46.047   1.646   8.532  0.00  0.00    +0.000 C 
ATOM     28  N   UNL     1      46.332   2.563   7.432  0.00  0.00    +0.000 NA
ATOM     29  C   UNL     1      46.242   3.941   7.905  0.00  0.00    +0.000 C 
ATOM     30  C   UNL     1      44.852   4.285   8.445  0.00  0.00    +0.000 C 
ATOM     31  H   UNL     1      45.657   2.415   6.680  0.00  0.00    +0.000 HD
ENDBRANCH  23  25
ENDBRANCH  18  19
ENDBRANCH   1  18
TORSDOF 6
ENDMDL
MODEL 3
REMARK VINA RESULT:    -7.193      2.562      3.766
REMARK INTER + INTRA:         -10.747
REMARK INTER:                  -9.804
REMARK INTRA:                  -0.944
REMARK UNBOUND:                -1.031
REMARK  Name = 
REMARK  9 active torsions:
REMARK  status: ('A' for Active; 'I' for Inactive)
REMARK    1  A    between atoms: C_1  and  C_2
REMARK    2  A    between atoms: C_2  and  C_3
REMARK    3  A    between atoms: C_2  and  C_4
REMARK    4  A    between atoms: C_2  and  C_5
REMARK    5  A    between atoms: C_7  and  C_8
REMARK    6  A    between atoms: C_12  and  N_13
REMARK    7  A    between atoms: N_13  and  C_14
REMARK    8  A    between atoms: C_14  and  C_15
REMARK    9  A    between atoms: C_19  and  C_20
REMARK                            x       y       z     vdW  Elec       q    Type
REMARK                         _______ _______ _______ _____ _____    ______ ____
ROOT
ATOM      1  N   UNL     1      46.767   4.329  15.980  0.00  0.00    +0.000 N 
ATOM      2  H   UNL     1      45.873   4.127  16.413  0.00  0.00    +0.000 HD
ENDROOT
BRANCH   1   7
ATOM      3  C   UNL     1      48.766   4.910  18.908  0.00  0.00    +0.000 A 
ATOM      4  C   UNL     1      49.811   4.006  18.775  0.00  0.00    +0.000 A 
ATOM      5  C   UNL     1      49.838   3.175  17.661  0.00  0.00    +0.000 A 
ATOM      6  C   UNL     1      48.818   3.242  16.722  0.00  0.00    +0.000 A 
ATOM      7  C   UNL     1      47.782   4.147  16.902  0.00  0.00    +0.000 A 
ATOM      8  N   UNL     1      47.761   4.963  17.987  0.00  0.00    +0.000 NA
BRANCH   5   9
ATOM      9  C   UNL     1      50.951   2.205  17.514  0.00  0.00    +0.000 C 
ATOM     10  N   UNL     1      52.080   2.379  18.267  0.00  0.00    +0.000 N 
ATOM     11  O   UNL     1      50.850   1.242  16.757  0.00  0.00    +0.000 OA
ATOM     12  H   UNL     1      52.154   3.038  19.029  0.00  0.00    +0.000 HD
ATOM     13  H   UNL     1      52.769   1.643  18.215  0.00  0.00    +0.000 HD
ENDBRANCH   5   9
BRANCH   3  15
ATOM     14  C   UNL     1      49.350   7.255  19.691  0.00  0.00    +0.000 C 
ATOM     15  C   UNL     1      48.724   5.901  20.089  0.00  0.00    +0.000 C 
ATOM     16  C   UNL     1      49.498   5.326  21.294  0.00  0.00    +0.000 C 
ATOM     17  C   UNL     1      47.275   6.187  20.540  0.00  0.00    +0.000 C 
ENDBRANCH   3  15
ENDBRANCH   1   7
BRANCH   1  18
ATOM     18  C   UNL     1      46.949   3.849  14.625  0.00  0.00    +0.000 C 
BRANCH  18  19
ATOM     19  C   UNL     1      46.731   4.915  13.575  0.00  0.00    +0.000 A 
ATOM     20  C   UNL     1      47.711   5.895  13.348  0.00  0.00    +0.000 A 
ATOM     21  C   UNL     1      47.597   6.772  12.274  0.00  0.00    +0.000 A 
ATOM     22  C   UNL     1      46.548   6.618  11.362  0.00  0.00    +0.000 A 
ATOM     23  C   UNL     1      45.604   5.583  11.522  0.00  0.00    +0.000 A 
ATOM     24  C   UNL     1      45.642   4.821  12.695  0.00  0.00    +0.000 A 
BRANCH  23  25
ATOM     25  C   UNL     1      44.684   5.209  10.364  0.00  0.00    +0.000 C 
ATOM     26  C   UNL     1      43.631   4.149  10.709  0.00  0.00    +0.000 C 
ATOM     27  C   UNL     1      43.997   2.728  10.291  0.00  0.00    +0.000 C 
ATOM     28  N   UNL     1      44.368   2.672   8.880  0.00  0.00    +0.000 NA
ATOM     29  C   UNL     1      45.595   3.432   8.663  0.00  0.00    +0.000 C 
ATOM     30  C   UNL     1      45.446   4.907   9.043  0.00  0.00    +0.000 C 
ATOM     31  H   UNL     1      43.616   3.069   8.313  0.00  0.00    +0.000 HD
ENDBRANCH  23  25
ENDBRANCH  18  19
ENDBRANCH   1  18
TORSDOF 6
ENDMDL
MODEL 4
REMARK VINA RESULT:    -7.155      2.651      8.073
REMARK INTER + INTRA:         -10.696
REMARK INTER:                  -9.121
REMARK INTRA:                  -1.574
REMARK UNBOUND:                -1.031
REMARK  Name = 
REMARK  9 active torsions:
REMARK  status: ('A' for Active; 'I' for Inactive)
REMARK    1  A    between atoms: C_1  and  C_2
REMARK    2  A    between atoms: C_2  and  C_3
REMARK    3  A    between atoms: C_2  and  C_4
REMARK    4  A    between atoms: C_2  and  C_5
REMARK    5  A    between atoms: C_7  and  C_8
REMARK    6  A    between atoms: C_12  and  N_13
REMARK    7  A    between atoms: N_13  and  C_14
REMARK    8  A    between atoms: C_14  and  C_15
REMARK    9  A    between atoms: C_19  and  C_20
REMARK                            x       y       z     vdW  Elec       q    Type
REMARK                         _______ _______ _______ _____ _____    ______ ____
ROOT
ATOM      1  N   UNL     1      47.288   3.342  14.922  0.00  0.00    +0.000 N 
ATOM      2  H   UNL     1      47.058   2.432  14.539  0.00  0.00    +0.000 HD
ENDROOT
BRANCH   1   7
ATOM      3  C   UNL     1      45.045   4.856  12.559  0.00  0.00    +0.000 A 
ATOM      4  C   UNL     1      45.521   6.155  12.445  0.00  0.00    +0.000 A 
ATOM      5  C   UNL     1      46.632   6.529  13.190  0.00  0.00    +0.000 A 
ATOM      6  C   UNL     1      47.229   5.617  14.049  0.00  0.00    +0.000 A 
ATOM      7  C   UNL     1      46.712   4.333  14.148  0.00  0.00    +0.000 A 
ATOM      8  N   UNL     1      45.630   3.967  13.413  0.00  0.00    +0.000 NA
BRANCH   5   9
ATOM      9  C   UNL     1      47.143   7.917  13.075  0.00  0.00    +0.000 C 
ATOM     10  N   UNL     1      46.798   8.828  14.037  0.00  0.00    +0.000 N 
ATOM     11  O   UNL     1      47.891   8.238  12.154  0.00  0.00    +0.000 OA
ATOM     12  H   UNL     1      46.340   8.587  14.904  0.00  0.00    +0.000 HD
ATOM     13  H   UNL     1      47.249   9.729  13.980  0.00  0.00    +0.000 HD
ENDBRANCH   5   9
BRANCH   3  15
ATOM     14  C   UNL     1      42.609   5.245  11.952  0.00  0.00    +0.000 C 
ATOM     15  C   UNL     1      43.858   4.371  11.704  0.00  0.00    +0.000 C 
ATOM     16  C   UNL     1      43.519   2.905  12.045  0.00  0.00    +0.000 C 
ATOM     17  C   UNL     1      44.175   4.453  10.194  0.00  0.00    +0.000 C 
ENDBRANCH   3  15
ENDBRANCH   1   7
BRANCH   1  18
ATOM     18  C   UNL     1      47.250   3.461  16.366  0.00  0.00    +0.000 C 
BRANCH  18  19
ATOM     19  C   UNL     1      48.598   3.762  16.981  0.00  0.00    +0.000 A 
ATOM     20  C   UNL     1      49.529   2.732  17.183  0.00  0.00    +0.000 A 
ATOM     21  C   UNL     1      50.829   3.023  17.586  0.00  0.00    +0.000 A 
ATOM     22  C   UNL     1      51.235   4.356  17.703  0.00  0.00    +0.000 A 
ATOM     23  C   UNL     1      50.340   5.407  17.416  0.00  0.00    +0.000 A 
ATOM     24  C   UNL     1      48.998   5.093  17.175  0.00  0.00    +0.000 A 
BRANCH  23  25
ATOM     25  C   UNL     1      50.871   6.822  17.210  0.00  0.00    +0.000 C 
ATOM     26  C   UNL     1      49.977   7.926  17.790  0.00  0.00    +0.000 C 
ATOM     27  C   UNL     1      49.062   8.602  16.774  0.00  0.00    +0.000 C 
ATOM     28  N   UNL     1      49.817   9.079  15.618  0.00  0.00    +0.000 NA
ATOM     29  C   UNL     1      50.374   7.942  14.891  0.00  0.00    +0.000 C 
ATOM     30  C   UNL     1      51.324   7.106  15.751  0.00  0.00    +0.000 C 
ATOM     31  H   UNL     1      50.575   9.687  15.933  0.00  0.00    +0.000 HD
ENDBRANCH  23  25
ENDBRANCH  18  19
ENDBRANCH   1  18
TORSDOF 6
ENDMDL
MODEL 5
REMARK VINA RESULT:    -7.064      1.802      3.005
REMARK INTER + INTRA:         -10.573
REMARK INTER:                  -9.549
REMARK INTRA:                  -1.024
REMARK UNBOUND:                -1.031
REMARK  Name = 
REMARK  9 active torsions:
REMARK  status: ('A' for Active; 'I' for Inactive)
REMARK    1  A    between atoms: C_1  and  C_2
REMARK    2  A    between atoms: C_2  and  C_3
REMARK    3  A    between atoms: C_2  and  C_4
REMARK    4  A    between atoms: C_2  and  C_5
REMARK    5  A    between atoms: C_7  and  C_8
REMARK    6  A    between atoms: C_12  and  N_13
REMARK    7  A    between atoms: N_13  and  C_14
REMARK    8  A    between atoms: C_14  and  C_15
REMARK    9  A    between atoms: C_19  and  C_20
REMARK                            x       y       z     vdW  Elec       q    Type
REMARK                         _______ _______ _______ _____ _____    ______ ____
ROOT
ATOM      1  N   UNL     1      48.452   7.023  14.512  0.00  0.00    +0.000 N 
ATOM      2  H   UNL     1      47.875   7.788  14.844  0.00  0.00    +0.000 HD
ENDROOT
BRANCH   1   7
ATOM      3  C   UNL     1      50.654   5.664  17.004  0.00  0.00    +0.000 A 
ATOM      4  C   UNL     1      49.881   4.693  17.628  0.00  0.00    +0.000 A 
ATOM      5  C   UNL     1      48.577   4.496  17.192  0.00  0.00    +0.000 A 
ATOM      6  C   UNL     1      48.061   5.279  16.169  0.00  0.00    +0.000 A 
ATOM      7  C   UNL     1      48.861   6.250  15.584  0.00  0.00    +0.000 A 
ATOM      8  N   UNL     1      50.138   6.437  16.006  0.00  0.00    +0.000 NA
BRANCH   5   9
ATOM      9  C   UNL     1      47.744   3.462  17.857  0.00  0.00    +0.000 C 
ATOM     10  N   UNL     1      48.201   2.895  19.016  0.00  0.00    +0.000 N 
ATOM     11  O   UNL     1      46.649   3.144  17.398  0.00  0.00    +0.000 OA
ATOM     12  H   UNL     1      48.997   3.235  19.535  0.00  0.00    +0.000 HD
ATOM     13  H   UNL     1      47.561   2.275  19.491  0.00  0.00    +0.000 HD
ENDBRANCH   5   9
BRANCH   3  15
ATOM     14  C   UNL     1      52.233   6.771  18.658  0.00  0.00    +0.000 C 
ATOM     15  C   UNL     1      52.128   5.876  17.403  0.00  0.00    +0.000 C 
ATOM     16  C   UNL     1      52.903   6.542  16.247  0.00  0.00    +0.000 C 
ATOM     17  C   UNL     1      52.823   4.539  17.742  0.00  0.00    +0.000 C 
ENDBRANCH   3  15
ENDBRANCH   1   7
BRANCH   1  18
ATOM     18  C   UNL     1      48.016   6.369  13.295  0.00  0.00    +0.000 C 
BRANCH  18  19
ATOM     19  C   UNL     1      46.683   6.871  12.788  0.00  0.00    +0.000 A 
ATOM     20  C   UNL     1      46.503   8.233  12.498  0.00  0.00    +0.000 A 
ATOM     21  C   UNL     1      45.342   8.675  11.872  0.00  0.00    +0.000 A 
ATOM     22  C   UNL     1      44.388   7.745  11.447  0.00  0.00    +0.000 A 
ATOM     23  C   UNL     1      44.591   6.364  11.648  0.00  0.00    +0.000 A 
ATOM     24  C   UNL     1      45.681   5.957  12.424  0.00  0.00    +0.000 A 
BRANCH  23  25
ATOM     25  C   UNL     1      43.735   5.353  10.891  0.00  0.00    +0.000 C 
ATOM     26  C   UNL     1      42.838   4.488  11.785  0.00  0.00    +0.000 C 
ATOM     27  C   UNL     1      43.399   3.105  12.101  0.00  0.00    +0.000 C 
ATOM     28  N   UNL     1      43.778   2.397  10.882  0.00  0.00    +0.000 NA
ATOM     29  C   UNL     1      44.889   3.090  10.236  0.00  0.00    +0.000 C 
ATOM     30  C   UNL     1      44.535   4.527   9.846  0.00  0.00    +0.000 C 
ATOM     31  H   UNL     1      42.981   2.363  10.245  0.00  0.00    +0.000 HD
ENDBRANCH  23  25
ENDBRANCH  18  19
ENDBRANCH   1  18
TORSDOF 6
ENDMDL
MODEL 6
REMARK VINA RESULT:    -6.920      2.642      7.783
REMARK INTER + INTRA:         -10.378
REMARK INTER:                  -9.090
REMARK INTRA:                  -1.288
REMARK UNBOUND:                -1.031
REMARK  Name = 
REMARK  9 active torsions:
REMARK  status: ('A' for Active; 'I' for Inactive)
REMARK    1  A    between atoms: C_1  and  C_2
REMARK    2  A    between atoms: C_2  and  C_3
REMARK    3  A    between atoms: C_2  and  C_4
REMARK    4  A    between atoms: C_2  and  C_5
REMARK    5  A    between atoms: C_7  and  C_8
REMARK    6  A    between atoms: C_12  and  N_13
REMARK    7  A    between atoms: N_13  and  C_14
REMARK    8  A    between atoms: C_14  and  C_15
REMARK    9  A    between atoms: C_19  and  C_20
REMARK                            x       y       z     vdW  Elec       q    Type
REMARK                         _______ _______ _______ _____ _____    ______ ____
ROOT
ATOM      1  N   UNL     1      47.337   3.149  14.739  0.00  0.00    +0.000 N 
ATOM      2  H   UNL     1      46.978   2.218  14.557  0.00  0.00    +0.000 HD
ENDROOT
BRANCH   1   7
ATOM      3  C   UNL     1      47.016   6.204  12.876  0.00  0.00    +0.000 A 
ATOM      4  C   UNL     1      45.993   5.932  11.977  0.00  0.00    +0.000 A 
ATOM      5  C   UNL     1      45.397   4.678  12.002  0.00  0.00    +0.000 A 
ATOM      6  C   UNL     1      45.844   3.716  12.898  0.00  0.00    +0.000 A 
ATOM      7  C   UNL     1      46.881   4.022  13.767  0.00  0.00    +0.000 A 
ATOM      8  N   UNL     1      47.458   5.251  13.746  0.00  0.00    +0.000 NA
BRANCH   5   9
ATOM      9  C   UNL     1      44.305   4.379  11.042  0.00  0.00    +0.000 C 
ATOM     10  N   UNL     1      44.350   4.948   9.798  0.00  0.00    +0.000 N 
ATOM     11  O   UNL     1      43.396   3.610  11.342  0.00  0.00    +0.000 OA
ATOM     12  H   UNL     1      45.151   5.440   9.431  0.00  0.00    +0.000 HD
ATOM     13  H   UNL     1      43.648   4.640   9.142  0.00  0.00    +0.000 HD
ENDBRANCH   5   9
BRANCH   3  15
ATOM     14  C   UNL     1      48.588   7.727  14.167  0.00  0.00    +0.000 C 
ATOM     15  C   UNL     1      47.665   7.602  12.935  0.00  0.00    +0.000 C 
ATOM     16  C   UNL     1      46.576   8.692  13.012  0.00  0.00    +0.000 C 
ATOM     17  C   UNL     1      48.535   7.877  11.689  0.00  0.00    +0.000 C 
ENDBRANCH   3  15
ENDBRANCH   1   7
BRANCH   1  18
ATOM     18  C   UNL     1      47.345   3.575  16.124  0.00  0.00    +0.000 C 
BRANCH  18  19
ATOM     19  C   UNL     1      48.678   3.367  16.808  0.00  0.00    +0.000 A 
ATOM     20  C   UNL     1      49.344   2.136  16.699  0.00  0.00    +0.000 A 
ATOM     21  C   UNL     1      50.643   1.991  17.178  0.00  0.00    +0.000 A 
ATOM     22  C   UNL     1      51.320   3.103  17.690  0.00  0.00    +0.000 A 
ATOM     23  C   UNL     1      50.700   4.368  17.725  0.00  0.00    +0.000 A 
ATOM     24  C   UNL     1      49.343   4.455  17.394  0.00  0.00    +0.000 A 
BRANCH  23  25
ATOM     25  C   UNL     1      51.541   5.620  17.954  0.00  0.00    +0.000 C 
ATOM     26  C   UNL     1      51.090   6.843  17.146  0.00  0.00    +0.000 C 
ATOM     27  C   UNL     1      51.883   7.088  15.866  0.00  0.00    +0.000 C 
ATOM     28  N   UNL     1      53.318   7.125  16.133  0.00  0.00    +0.000 NA
ATOM     29  C   UNL     1      53.769   5.811  16.583  0.00  0.00    +0.000 C 
ATOM     30  C   UNL     1      53.071   5.361  17.869  0.00  0.00    +0.000 C 
ATOM     31  H   UNL     1      53.513   7.818  16.857  0.00  0.00    +0.000 HD
ENDBRANCH  23  25
ENDBRANCH  18  19
ENDBRANCH   1  18
TORSDOF 6
ENDMDL
MODEL 7
REMARK VINA RESULT:    -6.919      2.803      8.694
REMARK INTER + INTRA:         -10.377
REMARK INTER:                  -9.369
REMARK INTRA:                  -1.008
REMARK UNBOUND:                -1.031
REMARK  Name = 
REMARK  9 active torsions:
REMARK  status: ('A' for Active; 'I' for Inactive)
REMARK    1  A    between atoms: C_1  and  C_2
REMARK    2  A    between atoms: C_2  and  C_3
REMARK    3  A    between atoms: C_2  and  C_4
REMARK    4  A    between atoms: C_2  and  C_5
REMARK    5  A    between atoms: C_7  and  C_8
REMARK    6  A    between atoms: C_12  and  N_13
REMARK    7  A    between atoms: N_13  and  C_14
REMARK    8  A    between atoms: C_14  and  C_15
REMARK    9  A    between atoms: C_19  and  C_20
REMARK                            x       y       z     vdW  Elec       q    Type
REMARK                         _______ _______ _______ _____ _____    ______ ____
ROOT
ATOM      1  N   UNL     1      47.327   3.313  14.857  0.00  0.00    +0.000 N 
ATOM      2  H   UNL     1      47.072   2.389  14.526  0.00  0.00    +0.000 HD
ENDROOT
BRANCH   1   7
ATOM      3  C   UNL     1      45.031   4.722  12.480  0.00  0.00    +0.000 A 
ATOM      4  C   UNL     1      45.471   6.032  12.339  0.00  0.00    +0.000 A 
ATOM      5  C   UNL     1      46.576   6.448  13.071  0.00  0.00    +0.000 A 
ATOM      6  C   UNL     1      47.202   5.568  13.942  0.00  0.00    +0.000 A 
ATOM      7  C   UNL     1      46.720   4.274  14.068  0.00  0.00    +0.000 A 
ATOM      8  N   UNL     1      45.644   3.866  13.347  0.00  0.00    +0.000 NA
BRANCH   5   9
ATOM      9  C   UNL     1      47.050   7.847  12.926  0.00  0.00    +0.000 C 
ATOM     10  N   UNL     1      46.525   8.808  13.749  0.00  0.00    +0.000 N 
ATOM     11  O   UNL     1      47.921   8.136  12.109  0.00  0.00    +0.000 OA
ATOM     12  H   UNL     1      45.946   8.608  14.551  0.00  0.00    +0.000 HD
ATOM     13  H   UNL     1      46.947   9.723  13.691  0.00  0.00    +0.000 HD
ENDBRANCH   5   9
BRANCH   3  15
ATOM     14  C   UNL     1      44.236   4.106  10.148  0.00  0.00    +0.000 C 
ATOM     15  C   UNL     1      43.852   4.190  11.641  0.00  0.00    +0.000 C 
ATOM     16  C   UNL     1      42.629   5.118  11.792  0.00  0.00    +0.000 C 
ATOM     17  C   UNL     1      43.436   2.770  12.082  0.00  0.00    +0.000 C 
ENDBRANCH   3  15
ENDBRANCH   1   7
BRANCH   1  18
ATOM     18  C   UNL     1      47.358   3.495  16.294  0.00  0.00    +0.000 C 
BRANCH  18  19
ATOM     19  C   UNL     1      48.726   3.269  16.899  0.00  0.00    +0.000 A 
ATOM     20  C   UNL     1      49.409   2.064  16.671  0.00  0.00    +0.000 A 
ATOM     21  C   UNL     1      50.731   1.915  17.078  0.00  0.00    +0.000 A 
ATOM     22  C   UNL     1      51.412   3.002  17.635  0.00  0.00    +0.000 A 
ATOM     23  C   UNL     1      50.770   4.248  17.790  0.00  0.00    +0.000 A 
ATOM     24  C   UNL     1      49.398   4.328  17.529  0.00  0.00    +0.000 A 
BRANCH  23  25
ATOM     25  C   UNL     1      51.597   5.499  18.068  0.00  0.00    +0.000 C 
ATOM     26  C   UNL     1      52.175   6.169  16.815  0.00  0.00    +0.000 C 
ATOM     27  C   UNL     1      53.629   5.817  16.519  0.00  0.00    +0.000 C 
ATOM     28  N   UNL     1      54.477   6.047  17.685  0.00  0.00    +0.000 NA
ATOM     29  C   UNL     1      54.101   5.128  18.755  0.00  0.00    +0.000 C 
ATOM     30  C   UNL     1      52.647   5.307  19.198  0.00  0.00    +0.000 C 
ATOM     31  H   UNL     1      54.361   7.010  18.006  0.00  0.00    +0.000 HD
ENDBRANCH  23  25
ENDBRANCH  18  19
ENDBRANCH   1  18
TORSDOF 6
ENDMDL
MODEL 8
REMARK VINA RESULT:    -6.873      1.977      3.280
REMARK INTER + INTRA:         -10.314
REMARK INTER:                  -9.148
REMARK INTRA:                  -1.166
REMARK UNBOUND:                -1.031
REMARK  Name = 
REMARK  9 active torsions:
REMARK  status: ('A' for Active; 'I' for Inactive)
REMARK    1  A    between atoms: C_1  and  C_2
REMARK    2  A    between atoms: C_2  and  C_3
REMARK    3  A    between atoms: C_2  and  C_4
REMARK    4  A    between atoms: C_2  and  C_5
REMARK    5  A    between atoms: C_7  and  C_8
REMARK    6  A    between atoms: C_12  and  N_13
REMARK    7  A    between atoms: N_13  and  C_14
REMARK    8  A    between atoms: C_14  and  C_15
REMARK    9  A    between atoms: C_19  and  C_20
REMARK                            x       y       z     vdW  Elec       q    Type
REMARK                         _______ _______ _______ _____ _____    ______ ____
ROOT
ATOM      1  N   UNL     1      48.828   6.831  14.283  0.00  0.00    +0.000 N 
ATOM      2  H   UNL     1      48.856   7.840  14.184  0.00  0.00    +0.000 HD
ENDROOT
BRANCH   1   7
ATOM      3  C   UNL     1      48.556   7.229  17.843  0.00  0.00    +0.000 A 
ATOM      4  C   UNL     1      48.169   5.970  18.283  0.00  0.00    +0.000 A 
ATOM      5  C   UNL     1      47.995   4.958  17.347  0.00  0.00    +0.000 A 
ATOM      6  C   UNL     1      48.182   5.224  15.997  0.00  0.00    +0.000 A 
ATOM      7  C   UNL     1      48.551   6.500  15.598  0.00  0.00    +0.000 A 
ATOM      8  N   UNL     1      48.728   7.485  16.515  0.00  0.00    +0.000 NA
BRANCH   5   9
ATOM      9  C   UNL     1      47.579   3.611  17.810  0.00  0.00    +0.000 C 
ATOM     10  N   UNL     1      48.269   3.027  18.837  0.00  0.00    +0.000 N 
ATOM     11  O   UNL     1      46.612   3.043  17.307  0.00  0.00    +0.000 OA
ATOM     12  H   UNL     1      48.950   3.509  19.405  0.00  0.00    +0.000 HD
ATOM     13  H   UNL     1      47.892   2.160  19.191  0.00  0.00    +0.000 HD
ENDBRANCH   5   9
BRANCH   3  15
ATOM     14  C   UNL     1      49.724   9.454  18.214  0.00  0.00    +0.000 C 
ATOM     15  C   UNL     1      48.829   8.367  18.847  0.00  0.00    +0.000 C 
ATOM     16  C   UNL     1      49.529   7.812  20.105  0.00  0.00    +0.000 C 
ATOM     17  C   UNL     1      47.521   9.059  19.290  0.00  0.00    +0.000 C 
ENDBRANCH   3  15
ENDBRANCH   1   7
BRANCH   1  18
ATOM     18  C   UNL     1      48.175   6.098  13.217  0.00  0.00    +0.000 C 
BRANCH  18  19
ATOM     19  C   UNL     1      46.861   6.709  12.785  0.00  0.00    +0.000 A 
ATOM     20  C   UNL     1      46.808   8.046  12.361  0.00  0.00    +0.000 A 
ATOM     21  C   UNL     1      45.645   8.565  11.802  0.00  0.00    +0.000 A 
ATOM     22  C   UNL     1      44.550   7.723  11.577  0.00  0.00    +0.000 A 
ATOM     23  C   UNL     1      44.615   6.355  11.912  0.00  0.00    +0.000 A 
ATOM     24  C   UNL     1      45.729   5.896  12.623  0.00  0.00    +0.000 A 
BRANCH  23  25
ATOM     25  C   UNL     1      43.573   5.387  11.360  0.00  0.00    +0.000 C 
ATOM     26  C   UNL     1      42.986   4.427  12.401  0.00  0.00    +0.000 C 
ATOM     27  C   UNL     1      43.617   3.038  12.413  0.00  0.00    +0.000 C 
ATOM     28  N   UNL     1      43.615   2.445  11.079  0.00  0.00    +0.000 NA
ATOM     29  C   UNL     1      44.481   3.219  10.195  0.00  0.00    +0.000 C 
ATOM     30  C   UNL     1      44.025   4.674  10.055  0.00  0.00    +0.000 C 
ATOM     31  H   UNL     1      42.663   2.442  10.708  0.00  0.00    +0.000 HD
ENDBRANCH  23  25
ENDBRANCH  18  19
ENDBRANCH   1  18
TORSDOF 6
ENDMDL
MODEL 9
REMARK VINA RESULT:    -6.726      1.906      3.174
REMARK INTER + INTRA:         -10.116
REMARK INTER:                  -9.186
REMARK INTRA:                  -0.930
REMARK UNBOUND:                -1.031
REMARK  Name = 
REMARK  9 active torsions:
REMARK  status: ('A' for Active; 'I' for Inactive)
REMARK    1  A    between atoms: C_1  and  C_2
REMARK    2  A    between atoms: C_2  and  C_3
REMARK    3  A    between atoms: C_2  and  C_4
REMARK    4  A    between atoms: C_2  and  C_5
REMARK    5  A    between atoms: C_7  and  C_8
REMARK    6  A    between atoms: C_12  and  N_13
REMARK    7  A    between atoms: N_13  and  C_14
REMARK    8  A    between atoms: C_14  and  C_15
REMARK    9  A    between atoms: C_19  and  C_20
REMARK                            x       y       z     vdW  Elec       q    Type
REMARK                         _______ _______ _______ _____ _____    ______ ____
ROOT
ATOM      1  N   UNL     1      47.560   6.010  12.821  0.00  0.00    +0.000 N 
ATOM      2  H   UNL     1      48.167   6.239  12.041  0.00  0.00    +0.000 HD
ENDROOT
BRANCH   1   7
ATOM      3  C   UNL     1      48.534   5.727  16.267  0.00  0.00    +0.000 A 
ATOM      4  C   UNL     1      49.269   6.883  16.494  0.00  0.00    +0.000 A 
ATOM      5  C   UNL     1      49.440   7.783  15.449  0.00  0.00    +0.000 A 
ATOM      6  C   UNL     1      48.902   7.505  14.200  0.00  0.00    +0.000 A 
ATOM      7  C   UNL     1      48.190   6.329  14.010  0.00  0.00    +0.000 A 
ATOM      8  N   UNL     1      48.018   5.455  15.034  0.00  0.00    +0.000 NA
BRANCH   5   9
ATOM      9  C   UNL     1      50.226   9.019  15.685  0.00  0.00    +0.000 C 
ATOM     10  N   UNL     1      49.565  10.215  15.760  0.00  0.00    +0.000 N 
ATOM     11  O   UNL     1      51.444   8.970  15.845  0.00  0.00    +0.000 OA
ATOM     12  H   UNL     1      48.561  10.302  15.816  0.00  0.00    +0.000 HD
ATOM     13  H   UNL     1      50.121  11.015  16.024  0.00  0.00    +0.000 HD
ENDBRANCH   5   9
BRANCH   3  15
ATOM     14  C   UNL     1      47.441   5.399  18.537  0.00  0.00    +0.000 C 
ATOM     15  C   UNL     1      48.257   4.729  17.410  0.00  0.00    +0.000 C 
ATOM     16  C   UNL     1      49.586   4.208  17.995  0.00  0.00    +0.000 C 
ATOM     17  C   UNL     1      47.438   3.516  16.918  0.00  0.00    +0.000 C 
ENDBRANCH   3  15
ENDBRANCH   1   7
BRANCH   1  18
ATOM     18  C   UNL     1      46.156   6.327  12.657  0.00  0.00    +0.000 C 
BRANCH  18  19
ATOM     19  C   UNL     1      45.303   5.124  12.323  0.00  0.00    +0.000 A 
ATOM     20  C   UNL     1      44.234   4.761  13.158  0.00  0.00    +0.000 A 
ATOM     21  C   UNL     1      43.342   3.766  12.771  0.00  0.00    +0.000 A 
ATOM     22  C   UNL     1      43.459   3.185  11.504  0.00  0.00    +0.000 A 
ATOM     23  C   UNL     1      44.472   3.599  10.615  0.00  0.00    +0.000 A 
ATOM     24  C   UNL     1      45.453   4.479  11.086  0.00  0.00    +0.000 A 
BRANCH  23  25
ATOM     25  C   UNL     1      44.388   3.224   9.139  0.00  0.00    +0.000 C 
ATOM     26  C   UNL     1      44.727   1.759   8.837  0.00  0.00    +0.000 C 
ATOM     27  C   UNL     1      46.155   1.523   8.355  0.00  0.00    +0.000 C 
ATOM     28  N   UNL     1      46.481   2.390   7.226  0.00  0.00    +0.000 NA
ATOM     29  C   UNL     1      46.480   3.784   7.659  0.00  0.00    +0.000 C 
ATOM     30  C   UNL     1      45.120   4.226   8.204  0.00  0.00    +0.000 C 
ATOM     31  H   UNL     1      45.789   2.262   6.486  0.00  0.00    +0.000 HD
ENDBRANCH  23  25
ENDBRANCH  18  19
ENDBRANCH   1  18
TORSDOF 6
ENDMDL
