MODEL 1
REMARK VINA RESULT:    -7.836      0.000      0.000
REMARK INTER + INTRA:         -10.215
REMARK INTER:                  -9.668
REMARK INTRA:                  -0.547
REMARK UNBOUND:                -0.547
REMARK  Name = 
REMARK  4 active torsions:
REMARK  status: ('A' for Active; 'I' for Inactive)
REMARK    1  A    between atoms: C_4  and  C_5
REMARK    2  A    between atoms: C_9  and  C_10
REMARK    3  A    between atoms: C_10  and  C_11
REMARK    4  A    between atoms: C_11  and  C_12
REMARK                            x       y       z     vdW  Elec       q    Type
REMARK                         _______ _______ _______ _____ _____    ______ ____
ROOT
ATOM      1  C   UNL     1      47.135   6.210  12.521  0.00  0.00    +0.000 A 
ATOM      2  N   UNL     1      47.723   5.380  13.402  0.00  0.00    +0.000 NA
ATOM      3  C   UNL     1      47.099   4.209  13.609  0.00  0.00    +0.000 A 
ATOM      4  C   UNL     1      45.942   3.834  12.965  0.00  0.00    +0.000 A 
ATOM      5  C   UNL     1      45.395   4.741  12.073  0.00  0.00    +0.000 A 
ATOM      6  N   UNL     1      45.991   5.934  11.866  0.00  0.00    +0.000 NA
ENDROOT
BRANCH   1  10
ATOM      7  C   UNL     1      49.163   9.895  11.592  0.00  0.00    +0.000 A 
ATOM      8  C   UNL     1      47.805   9.907  11.901  0.00  0.00    +0.000 A 
ATOM      9  C   UNL     1      47.139   8.710  12.188  0.00  0.00    +0.000 A 
ATOM     10  C   UNL     1      47.813   7.475  12.175  0.00  0.00    +0.000 A 
ATOM     11  C   UNL     1      49.184   7.496  11.848  0.00  0.00    +0.000 A 
ATOM     12  C   UNL     1      49.854   8.689  11.560  0.00  0.00    +0.000 A 
ENDBRANCH   1  10
BRANCH   5  13
ATOM     13  C   UNL     1      44.169   4.404  11.219  0.00  0.00    +0.000 C 
ATOM     14  C   UNL     1      42.817   4.629  11.895  0.00  0.00    +0.000 C 
ATOM     15  C   UNL     1      43.283   3.232  11.635  0.00  0.00    +0.000 C 
BRANCH  13  16
ATOM     16  C   UNL     1      44.259   4.726   9.736  0.00  0.00    +0.000 C 
BRANCH  16  17
ATOM     17  C   UNL     1      45.210   3.841   8.965  0.00  0.00    +0.000 A 
ATOM     18  C   UNL     1      45.213   2.458   9.133  0.00  0.00    +0.000 A 
ATOM     19  C   UNL     1      46.023   1.676   8.312  0.00  0.00    +0.000 A 
ATOM     20  C   UNL     1      46.805   2.291   7.343  0.00  0.00    +0.000 A 
ATOM     21  C   UNL     1      46.753   3.669   7.245  0.00  0.00    +0.000 A 
ATOM     22  N   UNL     1      45.975   4.453   8.025  0.00  0.00    +0.000 NA
ENDBRANCH  16  17
ENDBRANCH  13  16
ENDBRANCH   5  13
TORSDOF 4
ENDMDL
MODEL 2
REMARK VINA RESULT:    -7.628      1.690      3.489
REMARK INTER + INTRA:          -9.959
REMARK INTER:                  -9.453
REMARK INTRA:                  -0.506
REMARK UNBOUND:                -0.547
REMARK  Name = 
REMARK  4 active torsions:
REMARK  status: ('A' for Active; 'I' for Inactive)
REMARK    1  A    between atoms: C_4  and  C_5
REMARK    2  A    between atoms: C_9  and  C_10
REMARK    3  A    between atoms: C_10  and  C_11
REMARK    4  A    between atoms: C_11  and  C_12
REMARK                            x       y       z     vdW  Elec       q    Type
REMARK                         _______ _______ _______ _____ _____    ______ ____
ROOT
ATOM      1  C   UNL     1      47.012   5.362  13.442  0.00  0.00    +0.000 A 
ATOM      2  N   UNL     1      47.599   6.436  12.882  0.00  0.00    +0.000 NA
ATOM      3  C   UNL     1      47.076   6.847  11.716  0.00  0.00    +0.000 A 
ATOM      4  C   UNL     1      45.995   6.249  11.110  0.00  0.00    +0.000 A 
ATOM      5  C   UNL     1      45.444   5.149  11.744  0.00  0.00    +0.000 A 
ATOM      6  N   UNL     1      45.968   4.702  12.906  0.00  0.00    +0.000 NA
ENDROOT
BRANCH   1  10
ATOM      7  C   UNL     1      48.454   4.053  17.285  0.00  0.00    +0.000 A 
ATOM      8  C   UNL     1      47.802   3.155  16.444  0.00  0.00    +0.000 A 
ATOM      9  C   UNL     1      47.318   3.580  15.201  0.00  0.00    +0.000 A 
ATOM     10  C   UNL     1      47.476   4.910  14.770  0.00  0.00    +0.000 A 
ATOM     11  C   UNL     1      48.131   5.796  15.648  0.00  0.00    +0.000 A 
ATOM     12  C   UNL     1      48.615   5.377  16.891  0.00  0.00    +0.000 A 
ENDBRANCH   1  10
BRANCH   5  13
ATOM     13  C   UNL     1      44.179   4.459  11.227  0.00  0.00    +0.000 C 
ATOM     14  C   UNL     1      42.931   4.643  12.091  0.00  0.00    +0.000 C 
ATOM     15  C   UNL     1      43.591   3.303  12.033  0.00  0.00    +0.000 C 
BRANCH  13  16
ATOM     16  C   UNL     1      43.976   4.441   9.721  0.00  0.00    +0.000 C 
BRANCH  16  17
ATOM     17  C   UNL     1      45.021   3.656   8.962  0.00  0.00    +0.000 A 
ATOM     18  C   UNL     1      45.153   2.278   9.124  0.00  0.00    +0.000 A 
ATOM     19  C   UNL     1      46.049   1.583   8.314  0.00  0.00    +0.000 A 
ATOM     20  C   UNL     1      46.787   2.276   7.364  0.00  0.00    +0.000 A 
ATOM     21  C   UNL     1      46.605   3.644   7.272  0.00  0.00    +0.000 A 
ATOM     22  N   UNL     1      45.742   4.345   8.041  0.00  0.00    +0.000 NA
ENDBRANCH  16  17
ENDBRANCH  13  16
ENDBRANCH   5  13
TORSDOF 4
ENDMDL
MODEL 3
REMARK VINA RESULT:    -7.220      2.218      2.915
REMARK INTER + INTRA:          -9.456
REMARK INTER:                  -8.960
REMARK INTRA:                  -0.496
REMARK UNBOUND:                -0.547
REMARK  Name = 
REMARK  4 active torsions:
REMARK  status: ('A' for Active; 'I' for Inactive)
REMARK    1  A    between atoms: C_4  and  C_5
REMARK    2  A    between atoms: C_9  and  C_10
REMARK    3  A    between atoms: C_10  and  C_11
REMARK    4  A    between atoms: C_11  and  C_12
REMARK                            x       y       z     vdW  Elec       q    Type
REMARK                         _______ _______ _______ _____ _____    ______ ____
ROOT
ATOM      1  C   UNL     1      45.274   7.911  11.775  0.00  0.00    +0.000 A 
ATOM      2  N   UNL     1      46.514   7.914  12.299  0.00  0.00    +0.000 NA
ATOM      3  C   UNL     1      47.048   6.707  12.544  0.00  0.00    +0.000 A 
ATOM      4  C   UNL     1      46.410   5.518  12.271  0.00  0.00    +0.000 A 
ATOM      5  C   UNL     1      45.137   5.595  11.734  0.00  0.00    +0.000 A 
ATOM      6  N   UNL     1      44.569   6.797  11.501  0.00  0.00    +0.000 NA
ENDROOT
BRANCH   1  10
ATOM      7  C   UNL     1      43.469  11.687  10.757  0.00  0.00    +0.000 A 
ATOM      8  C   UNL     1      42.828  10.497  10.420  0.00  0.00    +0.000 A 
ATOM      9  C   UNL     1      43.420   9.268  10.735  0.00  0.00    +0.000 A 
ATOM     10  C   UNL     1      44.660   9.199  11.395  0.00  0.00    +0.000 A 
ATOM     11  C   UNL     1      45.287  10.422  11.712  0.00  0.00    +0.000 A 
ATOM     12  C   UNL     1      44.702  11.652  11.399  0.00  0.00    +0.000 A 
ENDBRANCH   1  10
BRANCH   5  13
ATOM     13  C   UNL     1      44.363   4.349  11.292  0.00  0.00    +0.000 C 
ATOM     14  C   UNL     1      43.316   3.842  12.282  0.00  0.00    +0.000 C 
ATOM     15  C   UNL     1      44.564   3.047  12.064  0.00  0.00    +0.000 C 
BRANCH  13  16
ATOM     16  C   UNL     1      44.021   4.245   9.814  0.00  0.00    +0.000 C 
BRANCH  16  17
ATOM     17  C   UNL     1      45.100   3.607   8.970  0.00  0.00    +0.000 A 
ATOM     18  C   UNL     1      45.308   2.230   8.975  0.00  0.00    +0.000 A 
ATOM     19  C   UNL     1      46.232   1.680   8.091  0.00  0.00    +0.000 A 
ATOM     20  C   UNL     1      46.923   2.514   7.222  0.00  0.00    +0.000 A 
ATOM     21  C   UNL     1      46.666   3.872   7.284  0.00  0.00    +0.000 A 
ATOM     22  N   UNL     1      45.774   4.434   8.129  0.00  0.00    +0.000 NA
ENDBRANCH  16  17
ENDBRANCH  13  16
ENDBRANCH   5  13
TORSDOF 4
ENDMDL
MODEL 4
REMARK VINA RESULT:    -6.802      1.698      6.162
REMARK INTER + INTRA:          -8.939
REMARK INTER:                  -8.410
REMARK INTRA:                  -0.529
REMARK UNBOUND:                -0.547
REMARK  Name = 
REMARK  4 active torsions:
REMARK  status: ('A' for Active; 'I' for Inactive)
REMARK    1  A    between atoms: C_4  and  C_5
REMARK    2  A    between atoms: C_9  and  C_10
REMARK    3  A    between atoms: C_10  and  C_11
REMARK    4  A    between atoms: C_11  and  C_12
REMARK                            x       y       z     vdW  Elec       q    Type
REMARK                         _______ _______ _______ _____ _____    ______ ____
ROOT
ATOM      1  C   UNL     1      44.872   3.163   9.803  0.00  0.00    +0.000 A 
ATOM      2  N   UNL     1      44.024   2.251  10.313  0.00  0.00    +0.000 NA
ATOM      3  C   UNL     1      43.285   2.658  11.358  0.00  0.00    +0.000 A 
ATOM      4  C   UNL     1      43.346   3.926  11.890  0.00  0.00    +0.000 A 
ATOM      5  C   UNL     1      44.242   4.809  11.314  0.00  0.00    +0.000 A 
ATOM      6  N   UNL     1      45.013   4.416  10.277  0.00  0.00    +0.000 NA
ENDROOT
BRANCH   1  10
ATOM      7  C   UNL     1      47.058   2.160   6.230  0.00  0.00    +0.000 A 
ATOM      8  C   UNL     1      46.823   1.187   7.199  0.00  0.00    +0.000 A 
ATOM      9  C   UNL     1      46.127   1.513   8.368  0.00  0.00    +0.000 A 
ATOM     10  C   UNL     1      45.648   2.816   8.596  0.00  0.00    +0.000 A 
ATOM     11  C   UNL     1      45.911   3.779   7.602  0.00  0.00    +0.000 A 
ATOM     12  C   UNL     1      46.607   3.460   6.433  0.00  0.00    +0.000 A 
ENDBRANCH   1  10
BRANCH   5  13
ATOM     13  C   UNL     1      44.333   6.276  11.746  0.00  0.00    +0.000 C 
ATOM     14  C   UNL     1      43.064   7.102  11.533  0.00  0.00    +0.000 C 
ATOM     15  C   UNL     1      44.262   7.363  10.675  0.00  0.00    +0.000 C 
BRANCH  13  16
ATOM     16  C   UNL     1      45.145   6.572  12.996  0.00  0.00    +0.000 C 
BRANCH  16  17
ATOM     17  C   UNL     1      46.411   7.357  12.743  0.00  0.00    +0.000 A 
ATOM     18  C   UNL     1      47.458   6.827  11.992  0.00  0.00    +0.000 A 
ATOM     19  C   UNL     1      48.551   7.634  11.687  0.00  0.00    +0.000 A 
ATOM     20  C   UNL     1      48.573   8.948  12.134  0.00  0.00    +0.000 A 
ATOM     21  C   UNL     1      47.499   9.398  12.881  0.00  0.00    +0.000 A 
ATOM     22  N   UNL     1      46.424   8.639  13.191  0.00  0.00    +0.000 NA
ENDBRANCH  16  17
ENDBRANCH  13  16
ENDBRANCH   5  13
TORSDOF 4
ENDMDL
MODEL 5
REMARK VINA RESULT:    -6.216      2.323      6.709
REMARK INTER + INTRA:          -8.217
REMARK INTER:                  -7.924
REMARK INTRA:                  -0.292
REMARK UNBOUND:                -0.547
REMARK  Name = 
REMARK  4 active torsions:
REMARK  status: ('A' for Active; 'I' for Inactive)
REMARK    1  A    between atoms: C_4  and  C_5
REMARK    2  A    between atoms: C_9  and  C_10
REMARK    3  A    between atoms: C_10  and  C_11
REMARK    4  A    between atoms: C_11  and  C_12
REMARK                            x       y       z     vdW  Elec       q    Type
REMARK                         _______ _______ _______ _____ _____    ______ ____
ROOT
ATOM      1  C   UNL     1      44.948   3.296  10.429  0.00  0.00    +0.000 A 
ATOM      2  N   UNL     1      43.627   3.106  10.598  0.00  0.00    +0.000 NA
ATOM      3  C   UNL     1      43.133   3.457  11.796  0.00  0.00    +0.000 A 
ATOM      4  C   UNL     1      43.892   4.000  12.807  0.00  0.00    +0.000 A 
ATOM      5  C   UNL     1      45.245   4.165  12.561  0.00  0.00    +0.000 A 
ATOM      6  N   UNL     1      45.769   3.797  11.372  0.00  0.00    +0.000 NA
ENDROOT
BRANCH   1  10
ATOM      7  C   UNL     1      46.766   2.464   6.613  0.00  0.00    +0.000 A 
ATOM      8  C   UNL     1      46.431   3.772   6.954  0.00  0.00    +0.000 A 
ATOM      9  C   UNL     1      45.826   4.044   8.187  0.00  0.00    +0.000 A 
ATOM     10  C   UNL     1      45.543   3.018   9.106  0.00  0.00    +0.000 A 
ATOM     11  C   UNL     1      45.885   1.704   8.727  0.00  0.00    +0.000 A 
ATOM     12  C   UNL     1      46.488   1.427   7.497  0.00  0.00    +0.000 A 
ENDBRANCH   1  10
BRANCH   5  13
ATOM     13  C   UNL     1      46.177   4.851  13.563  0.00  0.00    +0.000 C 
ATOM     14  C   UNL     1      46.474   6.324  13.282  0.00  0.00    +0.000 C 
ATOM     15  C   UNL     1      47.555   5.309  13.090  0.00  0.00    +0.000 C 
BRANCH  13  16
ATOM     16  C   UNL     1      46.033   4.444  15.021  0.00  0.00    +0.000 C 
BRANCH  16  17
ATOM     17  C   UNL     1      47.339   4.112  15.705  0.00  0.00    +0.000 A 
ATOM     18  C   UNL     1      48.005   5.048  16.493  0.00  0.00    +0.000 A 
ATOM     19  C   UNL     1      49.140   4.655  17.199  0.00  0.00    +0.000 A 
ATOM     20  C   UNL     1      49.581   3.342  17.104  0.00  0.00    +0.000 A 
ATOM     21  C   UNL     1      48.869   2.475  16.294  0.00  0.00    +0.000 A 
ATOM     22  N   UNL     1      47.764   2.826  15.600  0.00  0.00    +0.000 NA
ENDBRANCH  16  17
ENDBRANCH  13  16
ENDBRANCH   5  13
TORSDOF 4
ENDMDL
MODEL 6
REMARK VINA RESULT:    -6.075      4.222      8.377
REMARK INTER + INTRA:          -8.042
REMARK INTER:                  -7.558
REMARK INTRA:                  -0.484
REMARK UNBOUND:                -0.547
REMARK  Name = 
REMARK  4 active torsions:
REMARK  status: ('A' for Active; 'I' for Inactive)
REMARK    1  A    between atoms: C_4  and  C_5
REMARK    2  A    between atoms: C_9  and  C_10
REMARK    3  A    between atoms: C_10  and  C_11
REMARK    4  A    between atoms: C_11  and  C_12
REMARK                            x       y       z     vdW  Elec       q    Type
REMARK                         _______ _______ _______ _____ _____    ______ ____
ROOT
ATOM      1  C   UNL     1      46.374   5.252  13.887  0.00  0.00    +0.000 A 
ATOM      2  N   UNL     1      47.025   6.341  13.437  0.00  0.00    +0.000 NA
ATOM      3  C   UNL     1      48.089   6.726  14.159  0.00  0.00    +0.000 A 
ATOM      4  C   UNL     1      48.532   6.065  15.282  0.00  0.00    +0.000 A 
ATOM      5  C   UNL     1      47.811   4.954  15.685  0.00  0.00    +0.000 A 
ATOM      6  N   UNL     1      46.723   4.561  14.989  0.00  0.00    +0.000 NA
ENDROOT
BRANCH   1  10
ATOM      7  C   UNL     1      43.145   3.709  11.489  0.00  0.00    +0.000 A 
ATOM      8  C   UNL     1      42.976   4.892  12.205  0.00  0.00    +0.000 A 
ATOM      9  C   UNL     1      44.018   5.388  12.999  0.00  0.00    +0.000 A 
ATOM     10  C   UNL     1      45.250   4.717  13.092  0.00  0.00    +0.000 A 
ATOM     11  C   UNL     1      45.386   3.518  12.363  0.00  0.00    +0.000 A 
ATOM     12  C   UNL     1      44.349   3.018  11.571  0.00  0.00    +0.000 A 
ENDBRANCH   1  10
BRANCH   5  13
ATOM     13  C   UNL     1      48.258   4.074  16.856  0.00  0.00    +0.000 C 
ATOM     14  C   UNL     1      48.352   2.579  16.553  0.00  0.00    +0.000 C 
ATOM     15  C   UNL     1      47.263   3.078  17.448  0.00  0.00    +0.000 C 
BRANCH  13  16
ATOM     16  C   UNL     1      49.310   4.655  17.786  0.00  0.00    +0.000 C 
BRANCH  16  17
ATOM     17  C   UNL     1      48.762   5.180  19.093  0.00  0.00    +0.000 A 
ATOM     18  C   UNL     1      47.917   6.287  19.134  0.00  0.00    +0.000 A 
ATOM     19  C   UNL     1      47.343   6.658  20.348  0.00  0.00    +0.000 A 
ATOM     20  C   UNL     1      47.622   5.916  21.488  0.00  0.00    +0.000 A 
ATOM     21  C   UNL     1      48.478   4.836  21.366  0.00  0.00    +0.000 A 
ATOM     22  N   UNL     1      49.047   4.451  20.202  0.00  0.00    +0.000 NA
ENDBRANCH  16  17
ENDBRANCH  13  16
ENDBRANCH   5  13
TORSDOF 4
ENDMDL
MODEL 7
REMARK VINA RESULT:    -5.937      2.296      6.954
REMARK INTER + INTRA:          -7.873
REMARK INTER:                  -7.292
REMARK INTRA:                  -0.580
REMARK UNBOUND:                -0.547
REMARK  Name = 
REMARK  4 active torsions:
REMARK  status: ('A' for Active; 'I' for Inactive)
REMARK    1  A    between atoms: C_4  and  C_5
REMARK    2  A    between atoms: C_9  and  C_10
REMARK    3  A    between atoms: C_10  and  C_11
REMARK    4  A    between atoms: C_11  and  C_12
REMARK                            x       y       z     vdW  Elec       q    Type
REMARK                         _______ _______ _______ _____ _____    ______ ____
ROOT
ATOM      1  C   UNL     1      45.469   6.239  11.234  0.00  0.00    +0.000 A 
ATOM      2  N   UNL     1      44.471   7.122  11.418  0.00  0.00    +0.000 NA
ATOM      3  C   UNL     1      44.771   8.197  12.165  0.00  0.00    +0.000 A 
ATOM      4  C   UNL     1      46.014   8.429  12.707  0.00  0.00    +0.000 A 
ATOM      5  C   UNL     1      46.991   7.475  12.476  0.00  0.00    +0.000 A 
ATOM      6  N   UNL     1      46.706   6.374  11.748  0.00  0.00    +0.000 NA
ENDROOT
BRANCH   1  10
ATOM      7  C   UNL     1      44.852   2.807   8.705  0.00  0.00    +0.000 A 
ATOM      8  C   UNL     1      45.561   3.906   8.226  0.00  0.00    +0.000 A 
ATOM      9  C   UNL     1      45.750   5.029   9.039  0.00  0.00    +0.000 A 
ATOM     10  C   UNL     1      45.238   5.080  10.348  0.00  0.00    +0.000 A 
ATOM     11  C   UNL     1      44.517   3.956  10.799  0.00  0.00    +0.000 A 
ATOM     12  C   UNL     1      44.325   2.832   9.991  0.00  0.00    +0.000 A 
ENDBRANCH   1  10
BRANCH   5  13
ATOM     13  C   UNL     1      48.439   7.664  12.937  0.00  0.00    +0.000 C 
ATOM     14  C   UNL     1      49.371   8.322  11.919  0.00  0.00    +0.000 C 
ATOM     15  C   UNL     1      49.542   6.871  12.238  0.00  0.00    +0.000 C 
BRANCH  13  16
ATOM     16  C   UNL     1      48.651   8.025  14.398  0.00  0.00    +0.000 C 
BRANCH  16  17
ATOM     17  C   UNL     1      49.003   6.852  15.283  0.00  0.00    +0.000 A 
ATOM     18  C   UNL     1      50.155   6.855  16.068  0.00  0.00    +0.000 A 
ATOM     19  C   UNL     1      50.373   5.804  16.956  0.00  0.00    +0.000 A 
ATOM     20  C   UNL     1      49.439   4.780  17.042  0.00  0.00    +0.000 A 
ATOM     21  C   UNL     1      48.326   4.846  16.223  0.00  0.00    +0.000 A 
ATOM     22  N   UNL     1      48.087   5.853  15.354  0.00  0.00    +0.000 NA
ENDBRANCH  16  17
ENDBRANCH  13  16
ENDBRANCH   5  13
TORSDOF 4
ENDMDL
MODEL 8
REMARK VINA RESULT:    -5.743      1.863      6.848
REMARK INTER + INTRA:          -7.632
REMARK INTER:                  -6.969
REMARK INTRA:                  -0.663
REMARK UNBOUND:                -0.547
REMARK  Name = 
REMARK  4 active torsions:
REMARK  status: ('A' for Active; 'I' for Inactive)
REMARK    1  A    between atoms: C_4  and  C_5
REMARK    2  A    between atoms: C_9  and  C_10
REMARK    3  A    between atoms: C_10  and  C_11
REMARK    4  A    between atoms: C_11  and  C_12
REMARK                            x       y       z     vdW  Elec       q    Type
REMARK                         _______ _______ _______ _____ _____    ______ ____
ROOT
ATOM      1  C   UNL     1      45.456   6.114  11.141  0.00  0.00    +0.000 A 
ATOM      2  N   UNL     1      44.492   7.049  11.235  0.00  0.00    +0.000 NA
ATOM      3  C   UNL     1      44.763   8.091  12.037  0.00  0.00    +0.000 A 
ATOM      4  C   UNL     1      45.948   8.242  12.721  0.00  0.00    +0.000 A 
ATOM      5  C   UNL     1      46.892   7.240  12.576  0.00  0.00    +0.000 A 
ATOM      6  N   UNL     1      46.633   6.171  11.794  0.00  0.00    +0.000 NA
ENDROOT
BRANCH   1  10
ATOM      7  C   UNL     1      44.954   2.773   8.469  0.00  0.00    +0.000 A 
ATOM      8  C   UNL     1      45.684   3.887   8.061  0.00  0.00    +0.000 A 
ATOM      9  C   UNL     1      45.835   4.981   8.920  0.00  0.00    +0.000 A 
ATOM     10  C   UNL     1      45.265   4.987  10.206  0.00  0.00    +0.000 A 
ATOM     11  C   UNL     1      44.525   3.849  10.585  0.00  0.00    +0.000 A 
ATOM     12  C   UNL     1      44.369   2.754   9.731  0.00  0.00    +0.000 A 
ENDBRANCH   1  10
BRANCH   5  13
ATOM     13  C   UNL     1      48.286   7.339  13.201  0.00  0.00    +0.000 C 
ATOM     14  C   UNL     1      48.461   6.612  14.534  0.00  0.00    +0.000 C 
ATOM     15  C   UNL     1      48.452   8.107  14.510  0.00  0.00    +0.000 C 
BRANCH  13  16
ATOM     16  C   UNL     1      49.468   7.315  12.245  0.00  0.00    +0.000 C 
BRANCH  16  17
ATOM     17  C   UNL     1      49.999   8.681  11.879  0.00  0.00    +0.000 A 
ATOM     18  C   UNL     1      49.170   9.664  11.343  0.00  0.00    +0.000 A 
ATOM     19  C   UNL     1      49.680  10.944  11.136  0.00  0.00    +0.000 A 
ATOM     20  C   UNL     1      51.001  11.212  11.470  0.00  0.00    +0.000 A 
ATOM     21  C   UNL     1      51.762  10.181  11.989  0.00  0.00    +0.000 A 
ATOM     22  N   UNL     1      51.294   8.931  12.203  0.00  0.00    +0.000 NA
ENDBRANCH  16  17
ENDBRANCH  13  16
ENDBRANCH   5  13
TORSDOF 4
ENDMDL
MODEL 9
REMARK VINA RESULT:    -5.726      3.744      7.362
REMARK INTER + INTRA:          -7.612
REMARK INTER:                  -6.930
REMARK INTRA:                  -0.682
REMARK UNBOUND:                -0.547
REMARK  Name = 
REMARK  4 active torsions:
REMARK  status: ('A' for Active; 'I' for Inactive)
REMARK    1  A    between atoms: C_4  and  C_5
REMARK    2  A    between atoms: C_9  and  C_10
REMARK    3  A    between atoms: C_10  and  C_11
REMARK    4  A    between atoms: C_11  and  C_12
REMARK                            x       y       z     vdW  Elec       q    Type
REMARK                         _______ _______ _______ _____ _____    ______ ____
ROOT
ATOM      1  C   UNL     1      47.989   6.295  13.584  0.00  0.00    +0.000 A 
ATOM      2  N   UNL     1      49.012   6.817  12.883  0.00  0.00    +0.000 NA
ATOM      3  C   UNL     1      49.994   7.376  13.609  0.00  0.00    +0.000 A 
ATOM      4  C   UNL     1      50.001   7.414  14.985  0.00  0.00    +0.000 A 
ATOM      5  C   UNL     1      48.914   6.858  15.637  0.00  0.00    +0.000 A 
ATOM      6  N   UNL     1      47.903   6.311  14.928  0.00  0.00    +0.000 NA
ENDROOT
BRANCH   1  10
ATOM      7  C   UNL     1      44.931   4.150  11.438  0.00  0.00    +0.000 A 
ATOM      8  C   UNL     1      45.386   5.376  10.960  0.00  0.00    +0.000 A 
ATOM      9  C   UNL     1      46.368   6.084  11.664  0.00  0.00    +0.000 A 
ATOM     10  C   UNL     1      46.919   5.582  12.856  0.00  0.00    +0.000 A 
ATOM     11  C   UNL     1      46.431   4.343  13.318  0.00  0.00    +0.000 A 
ATOM     12  C   UNL     1      45.449   3.633  12.620  0.00  0.00    +0.000 A 
ENDBRANCH   1  10
BRANCH   5  13
ATOM     13  C   UNL     1      48.849   6.746  17.163  0.00  0.00    +0.000 C 
ATOM     14  C   UNL     1      48.420   8.016  17.896  0.00  0.00    +0.000 C 
ATOM     15  C   UNL     1      49.838   7.553  18.001  0.00  0.00    +0.000 C 
BRANCH  13  16
ATOM     16  C   UNL     1      48.360   5.424  17.731  0.00  0.00    +0.000 C 
BRANCH  16  17
ATOM     17  C   UNL     1      49.265   4.250  17.442  0.00  0.00    +0.000 A 
ATOM     18  C   UNL     1      50.578   4.213  17.905  0.00  0.00    +0.000 A 
ATOM     19  C   UNL     1      51.333   3.058  17.716  0.00  0.00    +0.000 A 
ATOM     20  C   UNL     1      50.760   1.968  17.073  0.00  0.00    +0.000 A 
ATOM     21  C   UNL     1      49.453   2.086  16.635  0.00  0.00    +0.000 A 
ATOM     22  N   UNL     1      48.696   3.193  16.807  0.00  0.00    +0.000 NA
ENDBRANCH  16  17
ENDBRANCH  13  16
ENDBRANCH   5  13
TORSDOF 4
ENDMDL
