MODEL 1
REMARK VINA RESULT:    -8.615      0.000      0.000
REMARK INTER + INTRA:         -12.445
REMARK INTER:                 -11.637
REMARK INTRA:                  -0.808
REMARK UNBOUND:                -0.808
REMARK  Name = 
REMARK  6 active torsions:
REMARK  status: ('A' for Active; 'I' for Inactive)
REMARK    1  A    between atoms: C_2  and  C_4
REMARK    2  A    between atoms: C_7  and  C_8
REMARK    3  A    between atoms: C_8  and  C_9
REMARK    4  A    between atoms: C_9  and  N_10
REMARK    5  A    between atoms: N_10  and  C_11
REMARK    6  A    between atoms: C_15  and  C_16
REMARK                            x       y       z     vdW  Elec       q    Type
REMARK                         _______ _______ _______ _____ _____    ______ ____
ROOT
ATOM      1  N   UNL     1      43.938   3.783  13.067  0.00  0.00    +0.000 N 
ATOM      2  H   UNL     1      43.135   4.166  13.563  0.00  0.00    +0.000 HD
ENDROOT
BRANCH   1   3
ATOM      3  C   UNL     1      45.018   4.673  13.024  0.00  0.00    +0.000 A 
ATOM      4  C   UNL     1      46.301   4.374  13.489  0.00  0.00    +0.000 A 
ATOM      5  C   UNL     1      47.311   5.336  13.511  0.00  0.00    +0.000 A 
ATOM      6  C   UNL     1      47.047   6.629  13.075  0.00  0.00    +0.000 A 
ATOM      7  C   UNL     1      45.778   6.978  12.593  0.00  0.00    +0.000 A 
ATOM      8  C   UNL     1      44.774   5.988  12.604  0.00  0.00    +0.000 A 
BRANCH   7   9
ATOM      9  C   UNL     1      45.499   8.332  12.088  0.00  0.00    +0.000 A 
ATOM     10  C   UNL     1      46.341   9.414  12.368  0.00  0.00    +0.000 A 
ATOM     11  N   UNL     1      46.134  10.687  11.954  0.00  0.00    +0.000 NA
ATOM     12  C   UNL     1      45.026  10.902  11.207  0.00  0.00    +0.000 A 
ATOM     13  C   UNL     1      44.136   9.904  10.850  0.00  0.00    +0.000 A 
ATOM     14 CL   UNL     1      42.750  10.247   9.899  0.00  0.00    +0.000 Cl
ATOM     15  C   UNL     1      44.379   8.608  11.292  0.00  0.00    +0.000 A 
ENDBRANCH   7   9
ENDBRANCH   1   3
BRANCH   1  16
ATOM     16  C   UNL     1      43.632   2.984  11.884  0.00  0.00    +0.000 C 
BRANCH  16  17
ATOM     17  C   UNL     1      43.561   3.851  10.627  0.00  0.00    +0.000 C 
BRANCH  17  21
ATOM     18  C   UNL     1      46.422   2.674   7.608  0.00  0.00    +0.000 A 
ATOM     19  C   UNL     1      45.826   1.709   8.423  0.00  0.00    +0.000 A 
ATOM     20  C   UNL     1      44.916   2.088   9.412  0.00  0.00    +0.000 A 
ATOM     21  C   UNL     1      44.588   3.439   9.596  0.00  0.00    +0.000 A 
ATOM     22  C   UNL     1      45.237   4.407   8.810  0.00  0.00    +0.000 A 
ATOM     23  C   UNL     1      46.150   4.031   7.824  0.00  0.00    +0.000 A 
BRANCH  18  25
ATOM     24  N   UNL     1      47.353   3.086   5.402  0.00  0.00    +0.000 N 
ATOM     25  C   UNL     1      47.349   2.285   6.514  0.00  0.00    +0.000 C 
ATOM     26  O   UNL     1      48.102   1.325   6.611  0.00  0.00    +0.000 OA
ATOM     27  H   UNL     1      48.043   2.875   4.693  0.00  0.00    +0.000 HD
ATOM     28  H   UNL     1      46.944   4.004   5.400  0.00  0.00    +0.000 HD
ENDBRANCH  18  25
ENDBRANCH  17  21
ENDBRANCH  16  17
ENDBRANCH   1  16
TORSDOF 6
ENDMDL
MODEL 2
REMARK VINA RESULT:    -8.192      1.955      2.574
REMARK INTER + INTRA:         -11.874
REMARK INTER:                 -10.859
REMARK INTRA:                  -1.015
REMARK UNBOUND:                -0.808
REMARK  Name = 
REMARK  6 active torsions:
REMARK  status: ('A' for Active; 'I' for Inactive)
REMARK    1  A    between atoms: C_2  and  C_4
REMARK    2  A    between atoms: C_7  and  C_8
REMARK    3  A    between atoms: C_8  and  C_9
REMARK    4  A    between atoms: C_9  and  N_10
REMARK    5  A    between atoms: N_10  and  C_11
REMARK    6  A    between atoms: C_15  and  C_16
REMARK                            x       y       z     vdW  Elec       q    Type
REMARK                         _______ _______ _______ _____ _____    ______ ____
ROOT
ATOM      1  N   UNL     1      43.704   5.636  12.275  0.00  0.00    +0.000 N 
ATOM      2  H   UNL     1      43.209   6.469  12.589  0.00  0.00    +0.000 HD
ENDROOT
BRANCH   1   3
ATOM      3  C   UNL     1      45.043   5.622  12.682  0.00  0.00    +0.000 A 
ATOM      4  C   UNL     1      45.585   4.685  13.566  0.00  0.00    +0.000 A 
ATOM      5  C   UNL     1      46.904   4.782  14.013  0.00  0.00    +0.000 A 
ATOM      6  C   UNL     1      47.705   5.835  13.587  0.00  0.00    +0.000 A 
ATOM      7  C   UNL     1      47.210   6.798  12.696  0.00  0.00    +0.000 A 
ATOM      8  C   UNL     1      45.868   6.682  12.280  0.00  0.00    +0.000 A 
BRANCH   7   9
ATOM      9  C   UNL     1      48.063   7.892  12.204  0.00  0.00    +0.000 A 
ATOM     10  C   UNL     1      49.405   7.688  11.863  0.00  0.00    +0.000 A 
ATOM     11  N   UNL     1      50.250   8.653  11.426  0.00  0.00    +0.000 NA
ATOM     12  C   UNL     1      49.731   9.897  11.310  0.00  0.00    +0.000 A 
ATOM     13  C   UNL     1      48.414  10.209  11.598  0.00  0.00    +0.000 A 
ATOM     14 CL   UNL     1      47.822  11.810  11.428  0.00  0.00    +0.000 Cl
ATOM     15  C   UNL     1      47.574   9.196  12.044  0.00  0.00    +0.000 A 
ENDBRANCH   7   9
ENDBRANCH   1   3
BRANCH   1  16
ATOM     16  C   UNL     1      43.367   5.164  10.936  0.00  0.00    +0.000 C 
BRANCH  16  17
ATOM     17  C   UNL     1      43.593   3.658  10.801  0.00  0.00    +0.000 C 
BRANCH  17  21
ATOM     18  C   UNL     1      46.398   2.707   7.652  0.00  0.00    +0.000 A 
ATOM     19  C   UNL     1      46.061   4.037   7.913  0.00  0.00    +0.000 A 
ATOM     20  C   UNL     1      45.141   4.346   8.917  0.00  0.00    +0.000 A 
ATOM     21  C   UNL     1      44.548   3.327   9.676  0.00  0.00    +0.000 A 
ATOM     22  C   UNL     1      44.850   1.990   9.367  0.00  0.00    +0.000 A 
ATOM     23  C   UNL     1      45.766   1.678   8.361  0.00  0.00    +0.000 A 
BRANCH  18  25
ATOM     24  N   UNL     1      47.319   3.013   5.424  0.00  0.00    +0.000 N 
ATOM     25  C   UNL     1      47.417   2.363   6.628  0.00  0.00    +0.000 C 
ATOM     26  O   UNL     1      48.323   1.572   6.853  0.00  0.00    +0.000 OA
ATOM     27  H   UNL     1      48.060   2.845   4.756  0.00  0.00    +0.000 HD
ATOM     28  H   UNL     1      46.755   3.836   5.303  0.00  0.00    +0.000 HD
ENDBRANCH  18  25
ENDBRANCH  17  21
ENDBRANCH  16  17
ENDBRANCH   1  16
TORSDOF 6
ENDMDL
MODEL 3
REMARK VINA RESULT:    -8.114      3.260      4.592
REMARK INTER + INTRA:         -11.769
REMARK INTER:                 -10.946
REMARK INTRA:                  -0.822
REMARK UNBOUND:                -0.808
REMARK  Name = 
REMARK  6 active torsions:
REMARK  status: ('A' for Active; 'I' for Inactive)
REMARK    1  A    between atoms: C_2  and  C_4
REMARK    2  A    between atoms: C_7  and  C_8
REMARK    3  A    between atoms: C_8  and  C_9
REMARK    4  A    between atoms: C_9  and  N_10
REMARK    5  A    between atoms: N_10  and  C_11
REMARK    6  A    between atoms: C_15  and  C_16
REMARK                            x       y       z     vdW  Elec       q    Type
REMARK                         _______ _______ _______ _____ _____    ______ ____
ROOT
ATOM      1  N   UNL     1      44.476   5.303  11.695  0.00  0.00    +0.000 N 
ATOM      2  H   UNL     1      44.065   5.846  10.938  0.00  0.00    +0.000 HD
ENDROOT
BRANCH   1   3
ATOM      3  C   UNL     1      45.688   5.839  12.146  0.00  0.00    +0.000 A 
ATOM      4  C   UNL     1      46.514   6.665  11.380  0.00  0.00    +0.000 A 
ATOM      5  C   UNL     1      47.759   7.088  11.848  0.00  0.00    +0.000 A 
ATOM      6  C   UNL     1      48.205   6.676  13.098  0.00  0.00    +0.000 A 
ATOM      7  C   UNL     1      47.412   5.851  13.908  0.00  0.00    +0.000 A 
ATOM      8  C   UNL     1      46.169   5.426  13.396  0.00  0.00    +0.000 A 
BRANCH   7   9
ATOM      9  C   UNL     1      47.856   5.445  15.251  0.00  0.00    +0.000 A 
ATOM     10  C   UNL     1      48.780   6.198  15.984  0.00  0.00    +0.000 A 
ATOM     11  N   UNL     1      49.247   5.872  17.213  0.00  0.00    +0.000 NA
ATOM     12  C   UNL     1      48.762   4.731  17.755  0.00  0.00    +0.000 A 
ATOM     13  C   UNL     1      47.830   3.920  17.131  0.00  0.00    +0.000 A 
ATOM     14 CL   UNL     1      47.257   2.486  17.878  0.00  0.00    +0.000 Cl
ATOM     15  C   UNL     1      47.371   4.285  15.870  0.00  0.00    +0.000 A 
ENDBRANCH   7   9
ENDBRANCH   1   3
BRANCH   1  16
ATOM     16  C   UNL     1      44.343   3.854  11.581  0.00  0.00    +0.000 C 
BRANCH  16  17
ATOM     17  C   UNL     1      43.738   3.452  10.236  0.00  0.00    +0.000 C 
BRANCH  17  21
ATOM     18  C   UNL     1      46.706   2.592   7.212  0.00  0.00    +0.000 A 
ATOM     19  C   UNL     1      46.211   1.567   8.021  0.00  0.00    +0.000 A 
ATOM     20  C   UNL     1      45.267   1.845   9.011  0.00  0.00    +0.000 A 
ATOM     21  C   UNL     1      44.802   3.154   9.203  0.00  0.00    +0.000 A 
ATOM     22  C   UNL     1      45.348   4.187   8.423  0.00  0.00    +0.000 A 
ATOM     23  C   UNL     1      46.296   3.913   7.436  0.00  0.00    +0.000 A 
BRANCH  18  25
ATOM     24  N   UNL     1      47.670   3.181   5.061  0.00  0.00    +0.000 N 
ATOM     25  C   UNL     1      47.668   2.307   6.117  0.00  0.00    +0.000 C 
ATOM     26  O   UNL     1      48.449   1.367   6.167  0.00  0.00    +0.000 OA
ATOM     27  H   UNL     1      48.381   3.040   4.356  0.00  0.00    +0.000 HD
ATOM     28  H   UNL     1      47.231   4.084   5.111  0.00  0.00    +0.000 HD
ENDBRANCH  18  25
ENDBRANCH  17  21
ENDBRANCH  16  17
ENDBRANCH   1  16
TORSDOF 6
ENDMDL
MODEL 4
REMARK VINA RESULT:    -7.654      3.065      3.948
REMARK INTER + INTRA:         -11.147
REMARK INTER:                 -10.511
REMARK INTRA:                  -0.636
REMARK UNBOUND:                -0.808
REMARK  Name = 
REMARK  6 active torsions:
REMARK  status: ('A' for Active; 'I' for Inactive)
REMARK    1  A    between atoms: C_2  and  C_4
REMARK    2  A    between atoms: C_7  and  C_8
REMARK    3  A    between atoms: C_8  and  C_9
REMARK    4  A    between atoms: C_9  and  N_10
REMARK    5  A    between atoms: N_10  and  C_11
REMARK    6  A    between atoms: C_15  and  C_16
REMARK                            x       y       z     vdW  Elec       q    Type
REMARK                         _______ _______ _______ _____ _____    ______ ____
ROOT
ATOM      1  N   UNL     1      45.323   5.470  11.725  0.00  0.00    +0.000 N 
ATOM      2  H   UNL     1      45.449   4.807  12.488  0.00  0.00    +0.000 HD
ENDROOT
BRANCH   1   3
ATOM      3  C   UNL     1      45.791   6.750  12.044  0.00  0.00    +0.000 A 
ATOM      4  C   UNL     1      44.968   7.818  12.409  0.00  0.00    +0.000 A 
ATOM      5  C   UNL     1      45.484   9.098  12.618  0.00  0.00    +0.000 A 
ATOM      6  C   UNL     1      46.844   9.333  12.451  0.00  0.00    +0.000 A 
ATOM      7  C   UNL     1      47.713   8.294  12.090  0.00  0.00    +0.000 A 
ATOM      8  C   UNL     1      47.156   7.018  11.867  0.00  0.00    +0.000 A 
BRANCH   7   9
ATOM      9  C   UNL     1      49.160   8.523  11.953  0.00  0.00    +0.000 A 
ATOM     10  C   UNL     1      49.804   9.591  12.586  0.00  0.00    +0.000 A 
ATOM     11  N   UNL     1      51.126   9.872  12.486  0.00  0.00    +0.000 NA
ATOM     12  C   UNL     1      51.859   9.035  11.715  0.00  0.00    +0.000 A 
ATOM     13  C   UNL     1      51.333   7.935  11.061  0.00  0.00    +0.000 A 
ATOM     14 CL   UNL     1      52.322   6.915  10.100  0.00  0.00    +0.000 Cl
ATOM     15  C   UNL     1      49.973   7.676  11.186  0.00  0.00    +0.000 A 
ENDBRANCH   7   9
ENDBRANCH   1   3
BRANCH   1  16
ATOM     16  C   UNL     1      44.083   5.339  10.968  0.00  0.00    +0.000 C 
BRANCH  16  17
ATOM     17  C   UNL     1      43.848   3.895  10.524  0.00  0.00    +0.000 C 
BRANCH  17  21
ATOM     18  C   UNL     1      46.637   2.708   7.442  0.00  0.00    +0.000 A 
ATOM     19  C   UNL     1      46.273   4.049   7.579  0.00  0.00    +0.000 A 
ATOM     20  C   UNL     1      45.357   4.433   8.562  0.00  0.00    +0.000 A 
ATOM     21  C   UNL     1      44.797   3.478   9.423  0.00  0.00    +0.000 A 
ATOM     22  C   UNL     1      45.127   2.124   9.239  0.00  0.00    +0.000 A 
ATOM     23  C   UNL     1      46.037   1.738   8.255  0.00  0.00    +0.000 A 
BRANCH  18  25
ATOM     24  N   UNL     1      47.780   3.083   5.331  0.00  0.00    +0.000 N 
ATOM     25  C   UNL     1      47.652   2.289   6.441  0.00  0.00    +0.000 C 
ATOM     26  O   UNL     1      48.367   1.311   6.611  0.00  0.00    +0.000 OA
ATOM     27  H   UNL     1      48.527   2.851   4.690  0.00  0.00    +0.000 HD
ATOM     28  H   UNL     1      47.397   4.012   5.288  0.00  0.00    +0.000 HD
ENDBRANCH  18  25
ENDBRANCH  17  21
ENDBRANCH  16  17
ENDBRANCH   1  16
TORSDOF 6
ENDMDL
MODEL 5
REMARK VINA RESULT:    -7.605      3.725      6.852
REMARK INTER + INTRA:         -11.081
REMARK INTER:                  -9.956
REMARK INTRA:                  -1.125
REMARK UNBOUND:                -0.808
REMARK  Name = 
REMARK  6 active torsions:
REMARK  status: ('A' for Active; 'I' for Inactive)
REMARK    1  A    between atoms: C_2  and  C_4
REMARK    2  A    between atoms: C_7  and  C_8
REMARK    3  A    between atoms: C_8  and  C_9
REMARK    4  A    between atoms: C_9  and  N_10
REMARK    5  A    between atoms: N_10  and  C_11
REMARK    6  A    between atoms: C_15  and  C_16
REMARK                            x       y       z     vdW  Elec       q    Type
REMARK                         _______ _______ _______ _____ _____    ______ ____
ROOT
ATOM      1  N   UNL     1      43.212   7.227  11.380  0.00  0.00    +0.000 N 
ATOM      2  H   UNL     1      42.482   7.487  12.042  0.00  0.00    +0.000 HD
ENDROOT
BRANCH   1   3
ATOM      3  C   UNL     1      43.454   5.849  11.360  0.00  0.00    +0.000 A 
ATOM      4  C   UNL     1      43.075   4.970  12.379  0.00  0.00    +0.000 A 
ATOM      5  C   UNL     1      43.433   3.622  12.349  0.00  0.00    +0.000 A 
ATOM      6  C   UNL     1      44.192   3.129  11.295  0.00  0.00    +0.000 A 
ATOM      7  C   UNL     1      44.593   3.968  10.245  0.00  0.00    +0.000 A 
ATOM      8  C   UNL     1      44.232   5.329  10.317  0.00  0.00    +0.000 A 
BRANCH   7   9
ATOM      9  C   UNL     1      45.360   3.447   9.103  0.00  0.00    +0.000 A 
ATOM     10  C   UNL     1      45.843   4.285   8.092  0.00  0.00    +0.000 A 
ATOM     11  N   UNL     1      46.536   3.871   7.004  0.00  0.00    +0.000 NA
ATOM     12  C   UNL     1      46.774   2.541   6.915  0.00  0.00    +0.000 A 
ATOM     13  C   UNL     1      46.363   1.623   7.866  0.00  0.00    +0.000 A 
ATOM     14 CL   UNL     1      46.700  -0.049   7.690  0.00  0.00    +0.000 Cl
ATOM     15  C   UNL     1      45.655   2.083   8.970  0.00  0.00    +0.000 A 
ENDBRANCH   7   9
ENDBRANCH   1   3
BRANCH   1  16
ATOM     16  C   UNL     1      44.343   8.145  11.290  0.00  0.00    +0.000 C 
BRANCH  16  17
ATOM     17  C   UNL     1      45.188   8.119  12.563  0.00  0.00    +0.000 C 
BRANCH  17  21
ATOM     18  C   UNL     1      49.442   8.141  11.799  0.00  0.00    +0.000 A 
ATOM     19  C   UNL     1      48.732   9.342  11.843  0.00  0.00    +0.000 A 
ATOM     20  C   UNL     1      47.354   9.337  12.071  0.00  0.00    +0.000 A 
ATOM     21  C   UNL     1      46.669   8.128  12.261  0.00  0.00    +0.000 A 
ATOM     22  C   UNL     1      47.384   6.922  12.157  0.00  0.00    +0.000 A 
ATOM     23  C   UNL     1      48.760   6.924  11.925  0.00  0.00    +0.000 A 
BRANCH  18  25
ATOM     24  N   UNL     1      51.417   7.195  10.745  0.00  0.00    +0.000 N 
ATOM     25  C   UNL     1      50.916   8.130  11.614  0.00  0.00    +0.000 C 
ATOM     26  O   UNL     1      51.647   8.936  12.173  0.00  0.00    +0.000 OA
ATOM     27  H   UNL     1      52.409   7.240  10.551  0.00  0.00    +0.000 HD
ATOM     28  H   UNL     1      50.833   6.702  10.092  0.00  0.00    +0.000 HD
ENDBRANCH  18  25
ENDBRANCH  17  21
ENDBRANCH  16  17
ENDBRANCH   1  16
TORSDOF 6
ENDMDL
MODEL 6
REMARK VINA RESULT:    -7.459      3.265      4.452
REMARK INTER + INTRA:         -10.884
REMARK INTER:                 -10.404
REMARK INTRA:                  -0.480
REMARK UNBOUND:                -0.808
REMARK  Name = 
REMARK  6 active torsions:
REMARK  status: ('A' for Active; 'I' for Inactive)
REMARK    1  A    between atoms: C_2  and  C_4
REMARK    2  A    between atoms: C_7  and  C_8
REMARK    3  A    between atoms: C_8  and  C_9
REMARK    4  A    between atoms: C_9  and  N_10
REMARK    5  A    between atoms: N_10  and  C_11
REMARK    6  A    between atoms: C_15  and  C_16
REMARK                            x       y       z     vdW  Elec       q    Type
REMARK                         _______ _______ _______ _____ _____    ______ ____
ROOT
ATOM      1  N   UNL     1      45.397   4.809  11.930  0.00  0.00    +0.000 N 
ATOM      2  H   UNL     1      45.651   3.992  12.483  0.00  0.00    +0.000 HD
ENDROOT
BRANCH   1   3
ATOM      3  C   UNL     1      45.820   6.008  12.515  0.00  0.00    +0.000 A 
ATOM      4  C   UNL     1      45.177   7.236  12.342  0.00  0.00    +0.000 A 
ATOM      5  C   UNL     1      45.704   8.416  12.869  0.00  0.00    +0.000 A 
ATOM      6  C   UNL     1      46.901   8.386  13.574  0.00  0.00    +0.000 A 
ATOM      7  C   UNL     1      47.583   7.179  13.780  0.00  0.00    +0.000 A 
ATOM      8  C   UNL     1      47.034   6.009  13.216  0.00  0.00    +0.000 A 
BRANCH   7   9
ATOM      9  C   UNL     1      48.828   7.130  14.562  0.00  0.00    +0.000 A 
ATOM     10  C   UNL     1      50.013   7.719  14.105  0.00  0.00    +0.000 A 
ATOM     11  N   UNL     1      51.197   7.693  14.762  0.00  0.00    +0.000 NA
ATOM     12  C   UNL     1      51.208   7.050  15.953  0.00  0.00    +0.000 A 
ATOM     13  C   UNL     1      50.092   6.451  16.512  0.00  0.00    +0.000 A 
ATOM     14 CL   UNL     1      50.177   5.653  18.028  0.00  0.00    +0.000 Cl
ATOM     15  C   UNL     1      48.893   6.497  15.811  0.00  0.00    +0.000 A 
ENDBRANCH   7   9
ENDBRANCH   1   3
BRANCH   1  16
ATOM     16  C   UNL     1      44.086   4.758  11.290  0.00  0.00    +0.000 C 
BRANCH  16  17
ATOM     17  C   UNL     1      43.833   3.398  10.640  0.00  0.00    +0.000 C 
BRANCH  17  21
ATOM     18  C   UNL     1      46.574   2.670   7.378  0.00  0.00    +0.000 A 
ATOM     19  C   UNL     1      46.150   3.970   7.660  0.00  0.00    +0.000 A 
ATOM     20  C   UNL     1      45.249   4.206   8.701  0.00  0.00    +0.000 A 
ATOM     21  C   UNL     1      44.764   3.143   9.476  0.00  0.00    +0.000 A 
ATOM     22  C   UNL     1      45.153   1.833   9.148  0.00  0.00    +0.000 A 
ATOM     23  C   UNL     1      46.049   1.594   8.105  0.00  0.00    +0.000 A 
BRANCH  18  25
ATOM     24  N   UNL     1      47.446   3.135   5.158  0.00  0.00    +0.000 N 
ATOM     25  C   UNL     1      47.575   2.406   6.312  0.00  0.00    +0.000 C 
ATOM     26  O   UNL     1      48.492   1.610   6.465  0.00  0.00    +0.000 OA
ATOM     27  H   UNL     1      48.174   3.020   4.465  0.00  0.00    +0.000 HD
ATOM     28  H   UNL     1      46.873   3.958   5.105  0.00  0.00    +0.000 HD
ENDBRANCH  18  25
ENDBRANCH  17  21
ENDBRANCH  16  17
ENDBRANCH   1  16
TORSDOF 6
ENDMDL
MODEL 7
REMARK VINA RESULT:    -7.259      3.644      7.411
REMARK INTER + INTRA:         -10.614
REMARK INTER:                  -9.496
REMARK INTRA:                  -1.119
REMARK UNBOUND:                -0.808
REMARK  Name = 
REMARK  6 active torsions:
REMARK  status: ('A' for Active; 'I' for Inactive)
REMARK    1  A    between atoms: C_2  and  C_4
REMARK    2  A    between atoms: C_7  and  C_8
REMARK    3  A    between atoms: C_8  and  C_9
REMARK    4  A    between atoms: C_9  and  N_10
REMARK    5  A    between atoms: N_10  and  C_11
REMARK    6  A    between atoms: C_15  and  C_16
REMARK                            x       y       z     vdW  Elec       q    Type
REMARK                         _______ _______ _______ _____ _____    ______ ____
ROOT
ATOM      1  N   UNL     1      45.661   7.981  11.571  0.00  0.00    +0.000 N 
ATOM      2  H   UNL     1      45.107   8.825  11.440  0.00  0.00    +0.000 HD
ENDROOT
BRANCH   1   3
ATOM      3  C   UNL     1      44.904   6.812  11.422  0.00  0.00    +0.000 A 
ATOM      4  C   UNL     1      43.786   6.497  12.199  0.00  0.00    +0.000 A 
ATOM      5  C   UNL     1      43.132   5.271  12.071  0.00  0.00    +0.000 A 
ATOM      6  C   UNL     1      43.598   4.327  11.164  0.00  0.00    +0.000 A 
ATOM      7  C   UNL     1      44.713   4.597  10.357  0.00  0.00    +0.000 A 
ATOM      8  C   UNL     1      45.363   5.837  10.526  0.00  0.00    +0.000 A 
BRANCH   7   9
ATOM      9  C   UNL     1      45.189   3.622   9.363  0.00  0.00    +0.000 A 
ATOM     10  C   UNL     1      45.090   2.243   9.573  0.00  0.00    +0.000 A 
ATOM     11  N   UNL     1      45.526   1.293   8.711  0.00  0.00    +0.000 NA
ATOM     12  C   UNL     1      46.089   1.737   7.563  0.00  0.00    +0.000 A 
ATOM     13  C   UNL     1      46.218   3.077   7.241  0.00  0.00    +0.000 A 
ATOM     14 CL   UNL     1      46.941   3.570   5.766  0.00  0.00    +0.000 Cl
ATOM     15  C   UNL     1      45.759   4.025   8.148  0.00  0.00    +0.000 A 
ENDBRANCH   7   9
ENDBRANCH   1   3
BRANCH   1  16
ATOM     16  C   UNL     1      46.669   8.040  12.624  0.00  0.00    +0.000 C 
BRANCH  16  17
ATOM     17  C   UNL     1      47.644   6.866  12.532  0.00  0.00    +0.000 C 
BRANCH  17  21
ATOM     18  C   UNL     1      47.502   4.474  16.129  0.00  0.00    +0.000 A 
ATOM     19  C   UNL     1      48.230   5.665  16.109  0.00  0.00    +0.000 A 
ATOM     20  C   UNL     1      48.293   6.431  14.942  0.00  0.00    +0.000 A 
ATOM     21  C   UNL     1      47.625   6.014  13.782  0.00  0.00    +0.000 A 
ATOM     22  C   UNL     1      46.944   4.785  13.796  0.00  0.00    +0.000 A 
ATOM     23  C   UNL     1      46.883   4.016  14.959  0.00  0.00    +0.000 A 
BRANCH  18  25
ATOM     24  N   UNL     1      48.157   4.065  18.434  0.00  0.00    +0.000 N 
ATOM     25  C   UNL     1      47.376   3.676  17.376  0.00  0.00    +0.000 C 
ATOM     26  O   UNL     1      46.589   2.744  17.474  0.00  0.00    +0.000 OA
ATOM     27  H   UNL     1      48.011   3.579  19.309  0.00  0.00    +0.000 HD
ATOM     28  H   UNL     1      48.611   4.961  18.464  0.00  0.00    +0.000 HD
ENDBRANCH  18  25
ENDBRANCH  17  21
ENDBRANCH  16  17
ENDBRANCH   1  16
TORSDOF 6
ENDMDL
MODEL 8
REMARK VINA RESULT:    -7.074      3.531      7.205
REMARK INTER + INTRA:         -10.363
REMARK INTER:                  -9.799
REMARK INTRA:                  -0.564
REMARK UNBOUND:                -0.808
REMARK  Name = 
REMARK  6 active torsions:
REMARK  status: ('A' for Active; 'I' for Inactive)
REMARK    1  A    between atoms: C_2  and  C_4
REMARK    2  A    between atoms: C_7  and  C_8
REMARK    3  A    between atoms: C_8  and  C_9
REMARK    4  A    between atoms: C_9  and  N_10
REMARK    5  A    between atoms: N_10  and  C_11
REMARK    6  A    between atoms: C_15  and  C_16
REMARK                            x       y       z     vdW  Elec       q    Type
REMARK                         _______ _______ _______ _____ _____    ______ ____
ROOT
ATOM      1  N   UNL     1      45.631   4.308  14.063  0.00  0.00    +0.000 N 
ATOM      2  H   UNL     1      45.856   3.343  14.297  0.00  0.00    +0.000 HD
ENDROOT
BRANCH   1   3
ATOM      3  C   UNL     1      44.878   4.414  12.887  0.00  0.00    +0.000 A 
ATOM      4  C   UNL     1      43.560   4.874  12.838  0.00  0.00    +0.000 A 
ATOM      5  C   UNL     1      42.828   4.863  11.649  0.00  0.00    +0.000 A 
ATOM      6  C   UNL     1      43.406   4.375  10.483  0.00  0.00    +0.000 A 
ATOM      7  C   UNL     1      44.728   3.907  10.479  0.00  0.00    +0.000 A 
ATOM      8  C   UNL     1      45.432   3.913  11.701  0.00  0.00    +0.000 A 
BRANCH   7   9
ATOM      9  C   UNL     1      45.364   3.430   9.241  0.00  0.00    +0.000 A 
ATOM     10  C   UNL     1      45.658   4.293   8.180  0.00  0.00    +0.000 A 
ATOM     11  N   UNL     1      46.222   3.916   7.007  0.00  0.00    +0.000 NA
ATOM     12  C   UNL     1      46.522   2.603   6.880  0.00  0.00    +0.000 A 
ATOM     13  C   UNL     1      46.296   1.664   7.871  0.00  0.00    +0.000 A 
ATOM     14 CL   UNL     1      46.702   0.014   7.642  0.00  0.00    +0.000 Cl
ATOM     15  C   UNL     1      45.716   2.085   9.063  0.00  0.00    +0.000 A 
ENDBRANCH   7   9
ENDBRANCH   1   3
BRANCH   1  16
ATOM     16  C   UNL     1      46.683   5.286  14.320  0.00  0.00    +0.000 C 
BRANCH  16  17
ATOM     17  C   UNL     1      47.340   5.754  13.022  0.00  0.00    +0.000 C 
BRANCH  17  21
ATOM     18  C   UNL     1      46.513   9.900  12.121  0.00  0.00    +0.000 A 
ATOM     19  C   UNL     1      47.810   9.400  11.991  0.00  0.00    +0.000 A 
ATOM     20  C   UNL     1      48.084   8.066  12.300  0.00  0.00    +0.000 A 
ATOM     21  C   UNL     1      47.061   7.213  12.739  0.00  0.00    +0.000 A 
ATOM     22  C   UNL     1      45.772   7.741  12.921  0.00  0.00    +0.000 A 
ATOM     23  C   UNL     1      45.496   9.075  12.618  0.00  0.00    +0.000 A 
BRANCH  18  25
ATOM     24  N   UNL     1      47.171  11.997  11.083  0.00  0.00    +0.000 N 
ATOM     25  C   UNL     1      46.191  11.300  11.743  0.00  0.00    +0.000 C 
ATOM     26  O   UNL     1      45.097  11.799  11.970  0.00  0.00    +0.000 OA
ATOM     27  H   UNL     1      46.925  12.919  10.749  0.00  0.00    +0.000 HD
ATOM     28  H   UNL     1      47.964  11.542  10.666  0.00  0.00    +0.000 HD
ENDBRANCH  18  25
ENDBRANCH  17  21
ENDBRANCH  16  17
ENDBRANCH   1  16
TORSDOF 6
ENDMDL
MODEL 9
REMARK VINA RESULT:    -6.870      3.863      7.589
REMARK INTER + INTRA:         -10.088
REMARK INTER:                  -8.838
REMARK INTRA:                  -1.250
REMARK UNBOUND:                -0.808
REMARK  Name = 
REMARK  6 active torsions:
REMARK  status: ('A' for Active; 'I' for Inactive)
REMARK    1  A    between atoms: C_2  and  C_4
REMARK    2  A    between atoms: C_7  and  C_8
REMARK    3  A    between atoms: C_8  and  C_9
REMARK    4  A    between atoms: C_9  and  N_10
REMARK    5  A    between atoms: N_10  and  C_11
REMARK    6  A    between atoms: C_15  and  C_16
REMARK                            x       y       z     vdW  Elec       q    Type
REMARK                         _______ _______ _______ _____ _____    ______ ____
ROOT
ATOM      1  N   UNL     1      49.210   8.386  12.319  0.00  0.00    +0.000 N 
ATOM      2  H   UNL     1      49.489   9.365  12.331  0.00  0.00    +0.000 HD
ENDROOT
BRANCH   1   3
ATOM      3  C   UNL     1      47.822   8.224  12.221  0.00  0.00    +0.000 A 
ATOM      4  C   UNL     1      46.889   9.169  12.655  0.00  0.00    +0.000 A 
ATOM      5  C   UNL     1      45.519   8.908  12.624  0.00  0.00    +0.000 A 
ATOM      6  C   UNL     1      45.057   7.681  12.162  0.00  0.00    +0.000 A 
ATOM      7  C   UNL     1      45.952   6.702  11.710  0.00  0.00    +0.000 A 
ATOM      8  C   UNL     1      47.331   6.989  11.775  0.00  0.00    +0.000 A 
BRANCH   7   9
ATOM      9  C   UNL     1      45.471   5.416  11.180  0.00  0.00    +0.000 A 
ATOM     10  C   UNL     1      45.002   4.399  12.018  0.00  0.00    +0.000 A 
ATOM     11  N   UNL     1      44.566   3.186  11.598  0.00  0.00    +0.000 NA
ATOM     12  C   UNL     1      44.588   2.970  10.263  0.00  0.00    +0.000 A 
ATOM     13  C   UNL     1      45.011   3.911   9.340  0.00  0.00    +0.000 A 
ATOM     14 CL   UNL     1      45.012   3.569   7.659  0.00  0.00    +0.000 Cl
ATOM     15  C   UNL     1      45.451   5.145   9.804  0.00  0.00    +0.000 A 
ENDBRANCH   7   9
ENDBRANCH   1   3
BRANCH   1  16
ATOM     16  C   UNL     1      49.964   7.499  13.198  0.00  0.00    +0.000 C 
BRANCH  16  17
ATOM     17  C   UNL     1      49.798   7.892  14.666  0.00  0.00    +0.000 C 
BRANCH  17  21
ATOM     18  C   UNL     1      48.201   4.609  16.981  0.00  0.00    +0.000 A 
ATOM     19  C   UNL     1      47.562   5.015  15.807  0.00  0.00    +0.000 A 
ATOM     20  C   UNL     1      48.065   6.088  15.067  0.00  0.00    +0.000 A 
ATOM     21  C   UNL     1      49.217   6.766  15.491  0.00  0.00    +0.000 A 
ATOM     22  C   UNL     1      49.818   6.386  16.704  0.00  0.00    +0.000 A 
ATOM     23  C   UNL     1      49.315   5.318  17.447  0.00  0.00    +0.000 A 
BRANCH  18  25
ATOM     24  N   UNL     1      48.392   3.136  18.904  0.00  0.00    +0.000 N 
ATOM     25  C   UNL     1      47.714   3.435  17.750  0.00  0.00    +0.000 C 
ATOM     26  O   UNL     1      46.736   2.789  17.400  0.00  0.00    +0.000 OA
ATOM     27  H   UNL     1      48.011   2.392  19.474  0.00  0.00    +0.000 HD
ATOM     28  H   UNL     1      49.022   3.786  19.340  0.00  0.00    +0.000 HD
ENDBRANCH  18  25
ENDBRANCH  17  21
ENDBRANCH  16  17
ENDBRANCH   1  16
TORSDOF 6
ENDMDL
