MODEL 1
REMARK VINA RESULT:    -8.255      0.000      0.000
REMARK INTER + INTRA:         -12.767
REMARK INTER:                 -11.633
REMARK INTRA:                  -1.135
REMARK UNBOUND:                -1.135
REMARK  Name = 
REMARK  8 active torsions:
REMARK  status: ('A' for Active; 'I' for Inactive)
REMARK    1  A    between atoms: C_1  and  N_2
REMARK    2  A    between atoms: C_4  and  C_5
REMARK    3  A    between atoms: N_7  and  C_8
REMARK    4  A    between atoms: C_8  and  C_9
REMARK    5  A    between atoms: C_12  and  N_13
REMARK    6  A    between atoms: N_13  and  C_14
REMARK    7  A    between atoms: C_14  and  C_15
REMARK    8  A    between atoms: C_15  and  C_16
REMARK                            x       y       z     vdW  Elec       q    Type
REMARK                         _______ _______ _______ _____ _____    ______ ____
ROOT
ATOM      1  C   UNL     1      47.006   8.137  13.051  0.00  0.00    +0.000 C 
ENDROOT
BRANCH   1   2
ATOM      2  C   UNL     1      46.176   7.111  12.335  0.00  0.00    +0.000 A 
ATOM      3  C   UNL     1      45.031   6.587  12.927  0.00  0.00    +0.000 A 
ATOM      4  C   UNL     1      44.246   5.646  12.248  0.00  0.00    +0.000 A 
ATOM      5  C   UNL     1      44.615   5.176  10.983  0.00  0.00    +0.000 A 
ATOM      6  C   UNL     1      45.759   5.715  10.392  0.00  0.00    +0.000 A 
ATOM      7  C   UNL     1      46.537   6.670  11.059  0.00  0.00    +0.000 A 
BRANCH   5   8
ATOM      8  N   UNL     1      43.854   4.263  10.273  0.00  0.00    +0.000 N 
ATOM      9  H   UNL     1      43.066   3.828  10.740  0.00  0.00    +0.000 HD
BRANCH   8  10
ATOM     10  C   UNL     1      44.255   3.807   8.953  0.00  0.00    +0.000 C 
BRANCH  10  11
ATOM     11  C   UNL     1      45.079   2.522   9.041  0.00  0.00    +0.000 C 
BRANCH  11  12
ATOM     12  C   UNL     1      46.052   2.428   7.898  0.00  0.00    +0.000 A 
ATOM     13  C   UNL     1      46.159   3.431   6.932  0.00  0.00    +0.000 A 
ATOM     14  C   UNL     1      47.057   3.279   5.879  0.00  0.00    +0.000 A 
ATOM     15  C   UNL     1      47.811   2.119   5.821  0.00  0.00    +0.000 A 
ATOM     16  N   UNL     1      47.724   1.122   6.727  0.00  0.00    +0.000 NA
ATOM     17  C   UNL     1      46.850   1.298   7.740  0.00  0.00    +0.000 A 
ENDBRANCH  11  12
ENDBRANCH  10  11
ENDBRANCH   8  10
ENDBRANCH   5   8
ENDBRANCH   1   2
BRANCH   1  20
ATOM     18  C   UNL     1      48.508   6.914  14.537  0.00  0.00    +0.000 C 
ATOM     19  O   UNL     1      49.154   6.521  13.573  0.00  0.00    +0.000 OA
ATOM     20  N   UNL     1      47.389   7.708  14.377  0.00  0.00    +0.000 N 
ATOM     21  H   UNL     1      46.896   8.068  15.180  0.00  0.00    +0.000 HD
BRANCH  18  25
ATOM     22  C   UNL     1      50.303   7.296  19.182  0.00  0.00    +0.000 C 
ATOM     23  N   UNL     1      49.653   6.765  18.004  0.00  0.00    +0.000 N 
ATOM     24  C   UNL     1      49.561   7.397  16.794  0.00  0.00    +0.000 A 
ATOM     25  C   UNL     1      48.857   6.580  15.914  0.00  0.00    +0.000 A 
ATOM     26  C   UNL     1      48.515   5.389  16.650  0.00  0.00    +0.000 A 
ATOM     27  C   UNL     1      47.860   4.172  16.450  0.00  0.00    +0.000 A 
ATOM     28 CL   UNL     1      47.212   3.741  14.947  0.00  0.00    +0.000 Cl
ATOM     29  N   UNL     1      47.758   3.246  17.418  0.00  0.00    +0.000 NA
ATOM     30  C   UNL     1      48.299   3.543  18.604  0.00  0.00    +0.000 A 
ATOM     31  N   UNL     1      48.952   4.663  18.950  0.00  0.00    +0.000 NA
ATOM     32  C   UNL     1      49.032   5.547  17.935  0.00  0.00    +0.000 A 
ENDBRANCH  18  25
ENDBRANCH   1  20
TORSDOF 7
ENDMDL
MODEL 2
REMARK VINA RESULT:    -8.045      2.083      2.755
REMARK INTER + INTRA:         -12.471
REMARK INTER:                 -11.523
REMARK INTRA:                  -0.948
REMARK UNBOUND:                -1.135
REMARK  Name = 
REMARK  8 active torsions:
REMARK  status: ('A' for Active; 'I' for Inactive)
REMARK    1  A    between atoms: C_1  and  N_2
REMARK    2  A    between atoms: C_4  and  C_5
REMARK    3  A    between atoms: N_7  and  C_8
REMARK    4  A    between atoms: C_8  and  C_9
REMARK    5  A    between atoms: C_12  and  N_13
REMARK    6  A    between atoms: N_13  and  C_14
REMARK    7  A    between atoms: C_14  and  C_15
REMARK    8  A    between atoms: C_15  and  C_16
REMARK                            x       y       z     vdW  Elec       q    Type
REMARK                         _______ _______ _______ _____ _____    ______ ____
ROOT
ATOM      1  C   UNL     1      48.303   6.507  13.977  0.00  0.00    +0.000 C 
ENDROOT
BRANCH   1   2
ATOM      2  C   UNL     1      47.198   5.908  13.156  0.00  0.00    +0.000 A 
ATOM      3  C   UNL     1      46.555   4.746  13.572  0.00  0.00    +0.000 A 
ATOM      4  C   UNL     1      45.510   4.202  12.814  0.00  0.00    +0.000 A 
ATOM      5  C   UNL     1      45.118   4.781  11.603  0.00  0.00    +0.000 A 
ATOM      6  C   UNL     1      45.761   5.953  11.199  0.00  0.00    +0.000 A 
ATOM      7  C   UNL     1      46.794   6.512  11.962  0.00  0.00    +0.000 A 
BRANCH   5   8
ATOM      8  N   UNL     1      44.076   4.285  10.838  0.00  0.00    +0.000 N 
ATOM      9  H   UNL     1      43.199   4.072  11.301  0.00  0.00    +0.000 HD
BRANCH   8  10
ATOM     10  C   UNL     1      44.267   3.917   9.446  0.00  0.00    +0.000 C 
BRANCH  10  11
ATOM     11  C   UNL     1      44.811   2.493   9.321  0.00  0.00    +0.000 C 
BRANCH  11  12
ATOM     12  C   UNL     1      45.783   2.387   8.179  0.00  0.00    +0.000 A 
ATOM     13  C   UNL     1      45.961   3.423   7.260  0.00  0.00    +0.000 A 
ATOM     14  C   UNL     1      46.853   3.259   6.203  0.00  0.00    +0.000 A 
ATOM     15  C   UNL     1      47.531   2.057   6.097  0.00  0.00    +0.000 A 
ATOM     16  N   UNL     1      47.373   1.028   6.956  0.00  0.00    +0.000 NA
ATOM     17  C   UNL     1      46.507   1.215   7.973  0.00  0.00    +0.000 A 
ENDBRANCH  11  12
ENDBRANCH  10  11
ENDBRANCH   8  10
ENDBRANCH   5   8
ENDBRANCH   1   2
BRANCH   1  20
ATOM     18  C   UNL     1      49.144   6.364  16.264  0.00  0.00    +0.000 C 
ATOM     19  O   UNL     1      50.296   6.423  15.852  0.00  0.00    +0.000 OA
ATOM     20  N   UNL     1      48.069   6.368  15.397  0.00  0.00    +0.000 N 
ATOM     21  H   UNL     1      47.124   6.373  15.751  0.00  0.00    +0.000 HD
BRANCH  18  25
ATOM     22  C   UNL     1      48.648   4.589  20.907  0.00  0.00    +0.000 C 
ATOM     23  N   UNL     1      48.609   5.483  19.771  0.00  0.00    +0.000 N 
ATOM     24  C   UNL     1      48.982   5.164  18.494  0.00  0.00    +0.000 A 
ATOM     25  C   UNL     1      48.814   6.283  17.684  0.00  0.00    +0.000 A 
ATOM     26  C   UNL     1      48.307   7.329  18.536  0.00  0.00    +0.000 A 
ATOM     27  C   UNL     1      47.900   8.662  18.449  0.00  0.00    +0.000 A 
ATOM     28 CL   UNL     1      47.893   9.501  16.979  0.00  0.00    +0.000 Cl
ATOM     29  N   UNL     1      47.431   9.339  19.511  0.00  0.00    +0.000 NA
ATOM     30  C   UNL     1      47.386   8.686  20.676  0.00  0.00    +0.000 A 
ATOM     31  N   UNL     1      47.743   7.416  20.919  0.00  0.00    +0.000 NA
ATOM     32  C   UNL     1      48.191   6.787  19.815  0.00  0.00    +0.000 A 
ENDBRANCH  18  25
ENDBRANCH   1  20
TORSDOF 7
ENDMDL
MODEL 3
REMARK VINA RESULT:    -7.989      1.796      2.087
REMARK INTER + INTRA:         -12.393
REMARK INTER:                 -11.563
REMARK INTRA:                  -0.830
REMARK UNBOUND:                -1.135
REMARK  Name = 
REMARK  8 active torsions:
REMARK  status: ('A' for Active; 'I' for Inactive)
REMARK    1  A    between atoms: C_1  and  N_2
REMARK    2  A    between atoms: C_4  and  C_5
REMARK    3  A    between atoms: N_7  and  C_8
REMARK    4  A    between atoms: C_8  and  C_9
REMARK    5  A    between atoms: C_12  and  N_13
REMARK    6  A    between atoms: N_13  and  C_14
REMARK    7  A    between atoms: C_14  and  C_15
REMARK    8  A    between atoms: C_15  and  C_16
REMARK                            x       y       z     vdW  Elec       q    Type
REMARK                         _______ _______ _______ _____ _____    ______ ____
ROOT
ATOM      1  C   UNL     1      48.455   6.829  13.873  0.00  0.00    +0.000 C 
ENDROOT
BRANCH   1   2
ATOM      2  C   UNL     1      47.295   6.283  13.092  0.00  0.00    +0.000 A 
ATOM      3  C   UNL     1      46.525   5.240  13.601  0.00  0.00    +0.000 A 
ATOM      4  C   UNL     1      45.430   4.748  12.879  0.00  0.00    +0.000 A 
ATOM      5  C   UNL     1      45.110   5.255  11.616  0.00  0.00    +0.000 A 
ATOM      6  C   UNL     1      45.880   6.308  11.118  0.00  0.00    +0.000 A 
ATOM      7  C   UNL     1      46.965   6.817  11.844  0.00  0.00    +0.000 A 
BRANCH   5   8
ATOM      8  N   UNL     1      44.023   4.809  10.884  0.00  0.00    +0.000 N 
ATOM      9  H   UNL     1      43.120   5.237  11.055  0.00  0.00    +0.000 HD
BRANCH   8  10
ATOM     10  C   UNL     1      44.121   3.650  10.014  0.00  0.00    +0.000 C 
BRANCH  10  11
ATOM     11  C   UNL     1      44.570   4.051   8.609  0.00  0.00    +0.000 C 
BRANCH  11  12
ATOM     12  C   UNL     1      45.607   3.098   8.082  0.00  0.00    +0.000 A 
ATOM     13  C   UNL     1      46.533   3.478   7.108  0.00  0.00    +0.000 A 
ATOM     14  C   UNL     1      47.453   2.545   6.634  0.00  0.00    +0.000 A 
ATOM     15  C   UNL     1      47.407   1.259   7.144  0.00  0.00    +0.000 A 
ATOM     16  N   UNL     1      46.517   0.852   8.073  0.00  0.00    +0.000 NA
ATOM     17  C   UNL     1      45.641   1.776   8.519  0.00  0.00    +0.000 A 
ENDBRANCH  11  12
ENDBRANCH  10  11
ENDBRANCH   8  10
ENDBRANCH   5   8
ENDBRANCH   1   2
BRANCH   1  20
ATOM     18  C   UNL     1      49.056   6.698  16.235  0.00  0.00    +0.000 C 
ATOM     19  O   UNL     1      50.125   6.177  15.942  0.00  0.00    +0.000 OA
ATOM     20  N   UNL     1      48.132   7.036  15.266  0.00  0.00    +0.000 N 
ATOM     21  H   UNL     1      47.278   7.513  15.515  0.00  0.00    +0.000 HD
BRANCH  18  25
ATOM     22  C   UNL     1      47.430   9.184  20.251  0.00  0.00    +0.000 C 
ATOM     23  N   UNL     1      47.927   8.119  19.407  0.00  0.00    +0.000 N 
ATOM     24  C   UNL     1      48.241   8.236  18.081  0.00  0.00    +0.000 A 
ATOM     25  C   UNL     1      48.672   6.999  17.611  0.00  0.00    +0.000 A 
ATOM     26  C   UNL     1      48.612   6.095  18.731  0.00  0.00    +0.000 A 
ATOM     27  C   UNL     1      48.888   4.759  19.030  0.00  0.00    +0.000 A 
ATOM     28 CL   UNL     1      49.521   3.696  17.875  0.00  0.00    +0.000 Cl
ATOM     29  N   UNL     1      48.727   4.253  20.264  0.00  0.00    +0.000 NA
ATOM     30  C   UNL     1      48.270   5.083  21.207  0.00  0.00    +0.000 A 
ATOM     31  N   UNL     1      47.957   6.381  21.075  0.00  0.00    +0.000 NA
ATOM     32  C   UNL     1      48.151   6.833  19.821  0.00  0.00    +0.000 A 
ENDBRANCH  18  25
ENDBRANCH   1  20
TORSDOF 7
ENDMDL
MODEL 4
REMARK VINA RESULT:    -7.612      2.081      3.258
REMARK INTER + INTRA:         -11.861
REMARK INTER:                 -10.743
REMARK INTRA:                  -1.118
REMARK UNBOUND:                -1.135
REMARK  Name = 
REMARK  8 active torsions:
REMARK  status: ('A' for Active; 'I' for Inactive)
REMARK    1  A    between atoms: C_1  and  N_2
REMARK    2  A    between atoms: C_4  and  C_5
REMARK    3  A    between atoms: N_7  and  C_8
REMARK    4  A    between atoms: C_8  and  C_9
REMARK    5  A    between atoms: C_12  and  N_13
REMARK    6  A    between atoms: N_13  and  C_14
REMARK    7  A    between atoms: C_14  and  C_15
REMARK    8  A    between atoms: C_15  and  C_16
REMARK                            x       y       z     vdW  Elec       q    Type
REMARK                         _______ _______ _______ _____ _____    ______ ____
ROOT
ATOM      1  C   UNL     1      47.257   4.178  14.851  0.00  0.00    +0.000 C 
ENDROOT
BRANCH   1   2
ATOM      2  C   UNL     1      46.387   4.416  13.651  0.00  0.00    +0.000 A 
ATOM      3  C   UNL     1      46.133   5.709  13.204  0.00  0.00    +0.000 A 
ATOM      4  C   UNL     1      45.339   5.927  12.071  0.00  0.00    +0.000 A 
ATOM      5  C   UNL     1      44.746   4.860  11.389  0.00  0.00    +0.000 A 
ATOM      6  C   UNL     1      45.015   3.565  11.836  0.00  0.00    +0.000 A 
ATOM      7  C   UNL     1      45.824   3.341  12.958  0.00  0.00    +0.000 A 
BRANCH   5   8
ATOM      8  N   UNL     1      43.973   5.034  10.253  0.00  0.00    +0.000 N 
ATOM      9  H   UNL     1      43.199   5.687  10.294  0.00  0.00    +0.000 HD
BRANCH   8  10
ATOM     10  C   UNL     1      44.150   4.194   9.081  0.00  0.00    +0.000 C 
BRANCH  10  11
ATOM     11  C   UNL     1      45.501   4.453   8.415  0.00  0.00    +0.000 C 
BRANCH  11  12
ATOM     12  C   UNL     1      46.139   3.164   7.972  0.00  0.00    +0.000 A 
ATOM     13  C   UNL     1      47.097   3.125   6.957  0.00  0.00    +0.000 A 
ATOM     14  C   UNL     1      47.634   1.900   6.567  0.00  0.00    +0.000 A 
ATOM     15  C   UNL     1      47.185   0.754   7.200  0.00  0.00    +0.000 A 
ATOM     16  N   UNL     1      46.249   0.752   8.173  0.00  0.00    +0.000 NA
ATOM     17  C   UNL     1      45.750   1.952   8.536  0.00  0.00    +0.000 A 
ENDBRANCH  11  12
ENDBRANCH  10  11
ENDBRANCH   8  10
ENDBRANCH   5   8
ENDBRANCH   1   2
BRANCH   1  20
ATOM     18  C   UNL     1      48.561   5.415  16.503  0.00  0.00    +0.000 C 
ATOM     19  O   UNL     1      49.209   4.407  16.757  0.00  0.00    +0.000 OA
ATOM     20  N   UNL     1      47.534   5.395  15.580  0.00  0.00    +0.000 N 
ATOM     21  H   UNL     1      47.042   6.244  15.341  0.00  0.00    +0.000 HD
BRANCH  18  25
ATOM     22  C   UNL     1      49.003   8.930  20.024  0.00  0.00    +0.000 C 
ATOM     23  N   UNL     1      49.022   8.270  18.737  0.00  0.00    +0.000 N 
ATOM     24  C   UNL     1      48.643   6.977  18.500  0.00  0.00    +0.000 A 
ATOM     25  C   UNL     1      48.812   6.701  17.147  0.00  0.00    +0.000 A 
ATOM     26  C   UNL     1      49.321   7.907  16.546  0.00  0.00    +0.000 A 
ATOM     27  C   UNL     1      49.702   8.386  15.290  0.00  0.00    +0.000 A 
ATOM     28 CL   UNL     1      49.588   7.431  13.896  0.00  0.00    +0.000 Cl
ATOM     29  N   UNL     1      50.121   9.648  15.102  0.00  0.00    +0.000 NA
ATOM     30  C   UNL     1      50.179  10.437  16.179  0.00  0.00    +0.000 A 
ATOM     31  N   UNL     1      49.854  10.124  17.443  0.00  0.00    +0.000 NA
ATOM     32  C   UNL     1      49.430   8.851  17.565  0.00  0.00    +0.000 A 
ENDBRANCH  18  25
ENDBRANCH   1  20
TORSDOF 7
ENDMDL
MODEL 5
REMARK VINA RESULT:    -7.575      1.878      2.508
REMARK INTER + INTRA:         -11.810
REMARK INTER:                 -10.885
REMARK INTRA:                  -0.925
REMARK UNBOUND:                -1.135
REMARK  Name = 
REMARK  8 active torsions:
REMARK  status: ('A' for Active; 'I' for Inactive)
REMARK    1  A    between atoms: C_1  and  N_2
REMARK    2  A    between atoms: C_4  and  C_5
REMARK    3  A    between atoms: N_7  and  C_8
REMARK    4  A    between atoms: C_8  and  C_9
REMARK    5  A    between atoms: C_12  and  N_13
REMARK    6  A    between atoms: N_13  and  C_14
REMARK    7  A    between atoms: C_14  and  C_15
REMARK    8  A    between atoms: C_15  and  C_16
REMARK                            x       y       z     vdW  Elec       q    Type
REMARK                         _______ _______ _______ _____ _____    ______ ____
ROOT
ATOM      1  C   UNL     1      47.550   7.127  13.629  0.00  0.00    +0.000 C 
ENDROOT
BRANCH   1   2
ATOM      2  C   UNL     1      46.647   6.222  12.842  0.00  0.00    +0.000 A 
ATOM      3  C   UNL     1      46.361   6.492  11.507  0.00  0.00    +0.000 A 
ATOM      4  C   UNL     1      45.535   5.634  10.769  0.00  0.00    +0.000 A 
ATOM      5  C   UNL     1      44.942   4.515  11.363  0.00  0.00    +0.000 A 
ATOM      6  C   UNL     1      45.244   4.245  12.699  0.00  0.00    +0.000 A 
ATOM      7  C   UNL     1      46.084   5.090  13.436  0.00  0.00    +0.000 A 
BRANCH   5   8
ATOM      8  N   UNL     1      44.139   3.633  10.660  0.00  0.00    +0.000 N 
ATOM      9  H   UNL     1      43.454   3.092  11.175  0.00  0.00    +0.000 HD
BRANCH   8  10
ATOM     10  C   UNL     1      44.371   3.355   9.253  0.00  0.00    +0.000 C 
BRANCH  10  11
ATOM     11  C   UNL     1      45.175   2.069   9.069  0.00  0.00    +0.000 C 
BRANCH  11  12
ATOM     12  C   UNL     1      46.118   2.184   7.903  0.00  0.00    +0.000 A 
ATOM     13  C   UNL     1      46.134   3.309   7.075  0.00  0.00    +0.000 A 
ATOM     14  C   UNL     1      47.008   3.351   5.991  0.00  0.00    +0.000 A 
ATOM     15  C   UNL     1      47.829   2.259   5.766  0.00  0.00    +0.000 A 
ATOM     16  N   UNL     1      47.829   1.149   6.535  0.00  0.00    +0.000 NA
ATOM     17  C   UNL     1      46.977   1.137   7.581  0.00  0.00    +0.000 A 
ENDBRANCH  11  12
ENDBRANCH  10  11
ENDBRANCH   8  10
ENDBRANCH   5   8
ENDBRANCH   1   2
BRANCH   1  20
ATOM     18  C   UNL     1      48.632   7.222  15.815  0.00  0.00    +0.000 C 
ATOM     19  O   UNL     1      48.645   8.446  15.763  0.00  0.00    +0.000 OA
ATOM     20  N   UNL     1      48.130   6.464  14.776  0.00  0.00    +0.000 N 
ATOM     21  H   UNL     1      48.076   5.459  14.852  0.00  0.00    +0.000 HD
BRANCH  18  25
ATOM     22  C   UNL     1      48.762   4.491  19.995  0.00  0.00    +0.000 C 
ATOM     23  N   UNL     1      49.190   5.232  18.829  0.00  0.00    +0.000 N 
ATOM     24  C   UNL     1      48.366   5.888  17.956  0.00  0.00    +0.000 A 
ATOM     25  C   UNL     1      49.141   6.472  16.959  0.00  0.00    +0.000 A 
ATOM     26  C   UNL     1      50.511   6.144  17.264  0.00  0.00    +0.000 A 
ATOM     27  C   UNL     1      51.792   6.374  16.760  0.00  0.00    +0.000 A 
ATOM     28 CL   UNL     1      52.056   7.331  15.389  0.00  0.00    +0.000 Cl
ATOM     29  N   UNL     1      52.896   5.904  17.367  0.00  0.00    +0.000 NA
ATOM     30  C   UNL     1      52.718   5.182  18.477  0.00  0.00    +0.000 A 
ATOM     31  N   UNL     1      51.559   4.872  19.078  0.00  0.00    +0.000 NA
ATOM     32  C   UNL     1      50.492   5.381  18.431  0.00  0.00    +0.000 A 
ENDBRANCH  18  25
ENDBRANCH   1  20
TORSDOF 7
ENDMDL
MODEL 6
REMARK VINA RESULT:    -7.446      2.064      3.022
REMARK INTER + INTRA:         -11.628
REMARK INTER:                 -10.617
REMARK INTRA:                  -1.011
REMARK UNBOUND:                -1.135
REMARK  Name = 
REMARK  8 active torsions:
REMARK  status: ('A' for Active; 'I' for Inactive)
REMARK    1  A    between atoms: C_1  and  N_2
REMARK    2  A    between atoms: C_4  and  C_5
REMARK    3  A    between atoms: N_7  and  C_8
REMARK    4  A    between atoms: C_8  and  C_9
REMARK    5  A    between atoms: C_12  and  N_13
REMARK    6  A    between atoms: N_13  and  C_14
REMARK    7  A    between atoms: C_14  and  C_15
REMARK    8  A    between atoms: C_15  and  C_16
REMARK                            x       y       z     vdW  Elec       q    Type
REMARK                         _______ _______ _______ _____ _____    ______ ____
ROOT
ATOM      1  C   UNL     1      46.945   4.272  14.734  0.00  0.00    +0.000 C 
ENDROOT
BRANCH   1   2
ATOM      2  C   UNL     1      46.106   4.481  13.507  0.00  0.00    +0.000 A 
ATOM      3  C   UNL     1      45.942   5.753  12.968  0.00  0.00    +0.000 A 
ATOM      4  C   UNL     1      45.177   5.942  11.810  0.00  0.00    +0.000 A 
ATOM      5  C   UNL     1      44.522   4.870  11.194  0.00  0.00    +0.000 A 
ATOM      6  C   UNL     1      44.701   3.595  11.735  0.00  0.00    +0.000 A 
ATOM      7  C   UNL     1      45.481   3.399  12.882  0.00  0.00    +0.000 A 
BRANCH   5   8
ATOM      8  N   UNL     1      43.775   5.014  10.037  0.00  0.00    +0.000 N 
ATOM      9  H   UNL     1      42.926   5.566  10.079  0.00  0.00    +0.000 HD
BRANCH   8  10
ATOM     10  C   UNL     1      44.094   4.268   8.832  0.00  0.00    +0.000 C 
BRANCH  10  11
ATOM     11  C   UNL     1      45.563   4.442   8.448  0.00  0.00    +0.000 C 
BRANCH  11  12
ATOM     12  C   UNL     1      46.160   3.139   7.992  0.00  0.00    +0.000 A 
ATOM     13  C   UNL     1      47.056   3.070   6.923  0.00  0.00    +0.000 A 
ATOM     14  C   UNL     1      47.555   1.832   6.524  0.00  0.00    +0.000 A 
ATOM     15  C   UNL     1      47.131   0.703   7.204  0.00  0.00    +0.000 A 
ATOM     16  N   UNL     1      46.255   0.730   8.231  0.00  0.00    +0.000 NA
ATOM     17  C   UNL     1      45.792   1.942   8.600  0.00  0.00    +0.000 A 
ENDBRANCH  11  12
ENDBRANCH  10  11
ENDBRANCH   8  10
ENDBRANCH   5   8
ENDBRANCH   1   2
BRANCH   1  20
ATOM     18  C   UNL     1      48.554   5.435  16.155  0.00  0.00    +0.000 C 
ATOM     19  O   UNL     1      48.875   4.372  16.673  0.00  0.00    +0.000 OA
ATOM     20  N   UNL     1      47.569   5.494  15.189  0.00  0.00    +0.000 N 
ATOM     21  H   UNL     1      47.350   6.367  14.732  0.00  0.00    +0.000 HD
BRANCH  18  25
ATOM     22  C   UNL     1      51.205   9.655  15.823  0.00  0.00    +0.000 C 
ATOM     23  N   UNL     1      50.354   8.610  16.347  0.00  0.00    +0.000 N 
ATOM     24  C   UNL     1      50.012   7.459  15.691  0.00  0.00    +0.000 A 
ATOM     25  C   UNL     1      49.173   6.708  16.510  0.00  0.00    +0.000 A 
ATOM     26  C   UNL     1      49.012   7.462  17.727  0.00  0.00    +0.000 A 
ATOM     27  C   UNL     1      48.364   7.357  18.960  0.00  0.00    +0.000 A 
ATOM     28 CL   UNL     1      47.449   5.995  19.377  0.00  0.00    +0.000 Cl
ATOM     29  N   UNL     1      48.477   8.299  19.911  0.00  0.00    +0.000 NA
ATOM     30  C   UNL     1      49.229   9.365  19.624  0.00  0.00    +0.000 A 
ATOM     31  N   UNL     1      49.906   9.611  18.492  0.00  0.00    +0.000 NA
ATOM     32  C   UNL     1      49.764   8.626  17.583  0.00  0.00    +0.000 A 
ENDBRANCH  18  25
ENDBRANCH   1  20
TORSDOF 7
ENDMDL
MODEL 7
REMARK VINA RESULT:    -6.983      3.747      5.534
REMARK INTER + INTRA:         -10.975
REMARK INTER:                  -9.896
REMARK INTRA:                  -1.079
REMARK UNBOUND:                -1.135
REMARK  Name = 
REMARK  8 active torsions:
REMARK  status: ('A' for Active; 'I' for Inactive)
REMARK    1  A    between atoms: C_1  and  N_2
REMARK    2  A    between atoms: C_4  and  C_5
REMARK    3  A    between atoms: N_7  and  C_8
REMARK    4  A    between atoms: C_8  and  C_9
REMARK    5  A    between atoms: C_12  and  N_13
REMARK    6  A    between atoms: N_13  and  C_14
REMARK    7  A    between atoms: C_14  and  C_15
REMARK    8  A    between atoms: C_15  and  C_16
REMARK                            x       y       z     vdW  Elec       q    Type
REMARK                         _______ _______ _______ _____ _____    ______ ____
ROOT
ATOM      1  C   UNL     1      47.112   7.950  13.522  0.00  0.00    +0.000 C 
ENDROOT
BRANCH   1   2
ATOM      2  C   UNL     1      46.155   6.998  12.866  0.00  0.00    +0.000 A 
ATOM      3  C   UNL     1      45.141   7.470  12.037  0.00  0.00    +0.000 A 
ATOM      4  C   UNL     1      44.263   6.578  11.409  0.00  0.00    +0.000 A 
ATOM      5  C   UNL     1      44.351   5.200  11.632  0.00  0.00    +0.000 A 
ATOM      6  C   UNL     1      45.377   4.734  12.456  0.00  0.00    +0.000 A 
ATOM      7  C   UNL     1      46.270   5.621  13.072  0.00  0.00    +0.000 A 
BRANCH   5   8
ATOM      8  N   UNL     1      43.515   4.287  11.012  0.00  0.00    +0.000 N 
ATOM      9  H   UNL     1      42.543   4.253  11.299  0.00  0.00    +0.000 HD
BRANCH   8  10
ATOM     10  C   UNL     1      44.034   3.286  10.097  0.00  0.00    +0.000 C 
BRANCH  10  11
ATOM     11  C   UNL     1      44.568   3.932   8.818  0.00  0.00    +0.000 C 
BRANCH  11  12
ATOM     12  C   UNL     1      45.588   3.048   8.153  0.00  0.00    +0.000 A 
ATOM     13  C   UNL     1      46.382   3.501   7.098  0.00  0.00    +0.000 A 
ATOM     14  C   UNL     1      47.291   2.631   6.499  0.00  0.00    +0.000 A 
ATOM     15  C   UNL     1      47.365   1.332   6.971  0.00  0.00    +0.000 A 
ATOM     16  N   UNL     1      46.602   0.855   7.977  0.00  0.00    +0.000 NA
ATOM     17  C   UNL     1      45.734   1.720   8.543  0.00  0.00    +0.000 A 
ENDBRANCH  11  12
ENDBRANCH  10  11
ENDBRANCH   8  10
ENDBRANCH   5   8
ENDBRANCH   1   2
BRANCH   1  20
ATOM     18  C   UNL     1      49.441   7.746  12.821  0.00  0.00    +0.000 C 
ATOM     19  O   UNL     1      49.655   6.958  13.734  0.00  0.00    +0.000 OA
ATOM     20  N   UNL     1      48.200   8.326  12.648  0.00  0.00    +0.000 N 
ATOM     21  H   UNL     1      48.022   8.933  11.861  0.00  0.00    +0.000 HD
BRANCH  18  25
ATOM     22  C   UNL     1      52.708   7.526   9.048  0.00  0.00    +0.000 C 
ATOM     23  N   UNL     1      51.919   8.034  10.150  0.00  0.00    +0.000 N 
ATOM     24  C   UNL     1      51.039   7.303  10.901  0.00  0.00    +0.000 A 
ATOM     25  C   UNL     1      50.465   8.137  11.856  0.00  0.00    +0.000 A 
ATOM     26  C   UNL     1      51.044   9.441  11.658  0.00  0.00    +0.000 A 
ATOM     27  C   UNL     1      50.981  10.722  12.211  0.00  0.00    +0.000 A 
ATOM     28 CL   UNL     1      50.008  11.072  13.551  0.00  0.00    +0.000 Cl
ATOM     29  N   UNL     1      51.734  11.737  11.754  0.00  0.00    +0.000 NA
ATOM     30  C   UNL     1      52.544  11.477  10.723  0.00  0.00    +0.000 A 
ATOM     31  N   UNL     1      52.711  10.308  10.086  0.00  0.00    +0.000 NA
ATOM     32  C   UNL     1      51.941   9.328  10.597  0.00  0.00    +0.000 A 
ENDBRANCH  18  25
ENDBRANCH   1  20
TORSDOF 7
ENDMDL
MODEL 8
REMARK VINA RESULT:    -6.665      2.107      8.368
REMARK INTER + INTRA:         -10.527
REMARK INTER:                  -9.011
REMARK INTRA:                  -1.516
REMARK UNBOUND:                -1.135
REMARK  Name = 
REMARK  8 active torsions:
REMARK  status: ('A' for Active; 'I' for Inactive)
REMARK    1  A    between atoms: C_1  and  N_2
REMARK    2  A    between atoms: C_4  and  C_5
REMARK    3  A    between atoms: N_7  and  C_8
REMARK    4  A    between atoms: C_8  and  C_9
REMARK    5  A    between atoms: C_12  and  N_13
REMARK    6  A    between atoms: N_13  and  C_14
REMARK    7  A    between atoms: C_14  and  C_15
REMARK    8  A    between atoms: C_15  and  C_16
REMARK                            x       y       z     vdW  Elec       q    Type
REMARK                         _______ _______ _______ _____ _____    ______ ____
ROOT
ATOM      1  C   UNL     1      47.956   8.216  12.034  0.00  0.00    +0.000 C 
ENDROOT
BRANCH   1   2
ATOM      2  C   UNL     1      48.217   8.035  13.501  0.00  0.00    +0.000 A 
ATOM      3  C   UNL     1      48.628   6.803  14.002  0.00  0.00    +0.000 A 
ATOM      4  C   UNL     1      48.893   6.643  15.368  0.00  0.00    +0.000 A 
ATOM      5  C   UNL     1      48.708   7.698  16.268  0.00  0.00    +0.000 A 
ATOM      6  C   UNL     1      48.307   8.933  15.756  0.00  0.00    +0.000 A 
ATOM      7  C   UNL     1      48.059   9.103  14.388  0.00  0.00    +0.000 A 
BRANCH   5   8
ATOM      8  N   UNL     1      48.980   7.583  17.620  0.00  0.00    +0.000 N 
ATOM      9  H   UNL     1      49.949   7.562  17.916  0.00  0.00    +0.000 HD
BRANCH   8  10
ATOM     10  C   UNL     1      47.924   7.333  18.586  0.00  0.00    +0.000 C 
BRANCH  10  11
ATOM     11  C   UNL     1      48.202   6.064  19.392  0.00  0.00    +0.000 C 
BRANCH  11  12
ATOM     12  C   UNL     1      48.191   4.849  18.505  0.00  0.00    +0.000 A 
ATOM     13  C   UNL     1      49.336   4.077  18.294  0.00  0.00    +0.000 A 
ATOM     14  C   UNL     1      49.276   2.980  17.439  0.00  0.00    +0.000 A 
ATOM     15  C   UNL     1      48.073   2.698  16.814  0.00  0.00    +0.000 A 
ATOM     16  N   UNL     1      46.952   3.431  16.981  0.00  0.00    +0.000 NA
ATOM     17  C   UNL     1      47.036   4.485  17.819  0.00  0.00    +0.000 A 
ENDBRANCH  11  12
ENDBRANCH  10  11
ENDBRANCH   8  10
ENDBRANCH   5   8
ENDBRANCH   1   2
BRANCH   1  20
ATOM     18  C   UNL     1      46.060   6.927  11.196  0.00  0.00    +0.000 C 
ATOM     19  O   UNL     1      45.291   7.810  11.556  0.00  0.00    +0.000 OA
ATOM     20  N   UNL     1      47.419   7.023  11.419  0.00  0.00    +0.000 N 
ATOM     21  H   UNL     1      48.048   6.314  11.071  0.00  0.00    +0.000 HD
BRANCH  18  25
ATOM     22  C   UNL     1      45.461   3.432   7.678  0.00  0.00    +0.000 C 
ATOM     23  N   UNL     1      45.360   4.143   8.934  0.00  0.00    +0.000 N 
ATOM     24  C   UNL     1      45.915   5.365   9.202  0.00  0.00    +0.000 A 
ATOM     25  C   UNL     1      45.612   5.717  10.514  0.00  0.00    +0.000 A 
ATOM     26  C   UNL     1      44.827   4.635  11.054  0.00  0.00    +0.000 A 
ATOM     27  C   UNL     1      44.177   4.288  12.240  0.00  0.00    +0.000 A 
ATOM     28 CL   UNL     1      44.153   5.320  13.582  0.00  0.00    +0.000 Cl
ATOM     29  N   UNL     1      43.482   3.146  12.368  0.00  0.00    +0.000 NA
ATOM     30  C   UNL     1      43.449   2.332  11.308  0.00  0.00    +0.000 A 
ATOM     31  N   UNL     1      44.022   2.522  10.110  0.00  0.00    +0.000 NA
ATOM     32  C   UNL     1      44.693   3.689  10.040  0.00  0.00    +0.000 A 
ENDBRANCH  18  25
ENDBRANCH   1  20
TORSDOF 7
ENDMDL
MODEL 9
REMARK VINA RESULT:    -6.542      3.713      9.950
REMARK INTER + INTRA:         -10.354
REMARK INTER:                  -8.792
REMARK INTRA:                  -1.562
REMARK UNBOUND:                -1.135
REMARK  Name = 
REMARK  8 active torsions:
REMARK  status: ('A' for Active; 'I' for Inactive)
REMARK    1  A    between atoms: C_1  and  N_2
REMARK    2  A    between atoms: C_4  and  C_5
REMARK    3  A    between atoms: N_7  and  C_8
REMARK    4  A    between atoms: C_8  and  C_9
REMARK    5  A    between atoms: C_12  and  N_13
REMARK    6  A    between atoms: N_13  and  C_14
REMARK    7  A    between atoms: C_14  and  C_15
REMARK    8  A    between atoms: C_15  and  C_16
REMARK                            x       y       z     vdW  Elec       q    Type
REMARK                         _______ _______ _______ _____ _____    ______ ____
ROOT
ATOM      1  C   UNL     1      47.390   3.540  16.644  0.00  0.00    +0.000 C 
ENDROOT
BRANCH   1   2
ATOM      2  C   UNL     1      48.571   4.291  17.186  0.00  0.00    +0.000 A 
ATOM      3  C   UNL     1      48.521   5.673  17.344  0.00  0.00    +0.000 A 
ATOM      4  C   UNL     1      49.617   6.368  17.871  0.00  0.00    +0.000 A 
ATOM      5  C   UNL     1      50.800   5.703  18.208  0.00  0.00    +0.000 A 
ATOM      6  C   UNL     1      50.837   4.316  18.058  0.00  0.00    +0.000 A 
ATOM      7  C   UNL     1      49.738   3.613  17.549  0.00  0.00    +0.000 A 
BRANCH   5   8
ATOM      8  N   UNL     1      51.895   6.354  18.751  0.00  0.00    +0.000 N 
ATOM      9  H   UNL     1      52.816   6.127  18.393  0.00  0.00    +0.000 HD
BRANCH   8  10
ATOM     10  C   UNL     1      51.764   7.215  19.914  0.00  0.00    +0.000 C 
BRANCH  10  11
ATOM     11  C   UNL     1      51.486   6.398  21.177  0.00  0.00    +0.000 C 
BRANCH  11  12
ATOM     12  C   UNL     1      50.007   6.229  21.394  0.00  0.00    +0.000 A 
ATOM     13  C   UNL     1      49.141   7.322  21.469  0.00  0.00    +0.000 A 
ATOM     14  C   UNL     1      47.784   7.109  21.701  0.00  0.00    +0.000 A 
ATOM     15  C   UNL     1      47.342   5.807  21.862  0.00  0.00    +0.000 A 
ATOM     16  N   UNL     1      48.152   4.728  21.812  0.00  0.00    +0.000 NA
ATOM     17  C   UNL     1      49.460   4.963  21.580  0.00  0.00    +0.000 A 
ENDBRANCH  11  12
ENDBRANCH  10  11
ENDBRANCH   8  10
ENDBRANCH   5   8
ENDBRANCH   1   2
BRANCH   1  20
ATOM     18  C   UNL     1      46.765   4.135  14.361  0.00  0.00    +0.000 C 
ATOM     19  O   UNL     1      47.586   3.340  13.921  0.00  0.00    +0.000 OA
ATOM     20  N   UNL     1      46.611   4.332  15.719  0.00  0.00    +0.000 N 
ATOM     21  H   UNL     1      45.895   4.950  16.070  0.00  0.00    +0.000 HD
BRANCH  18  25
ATOM     22  C   UNL     1      42.878   5.501  11.536  0.00  0.00    +0.000 C 
ATOM     23  N   UNL     1      44.138   5.544  12.246  0.00  0.00    +0.000 N 
ATOM     24  C   UNL     1      44.689   4.509  12.951  0.00  0.00    +0.000 A 
ATOM     25  C   UNL     1      45.895   4.932  13.501  0.00  0.00    +0.000 A 
ATOM     26  C   UNL     1      46.070   6.303  13.092  0.00  0.00    +0.000 A 
ATOM     27  C   UNL     1      46.996   7.339  13.229  0.00  0.00    +0.000 A 
ATOM     28 CL   UNL     1      48.447   7.136  14.077  0.00  0.00    +0.000 Cl
ATOM     29  N   UNL     1      46.821   8.537  12.647  0.00  0.00    +0.000 NA
ATOM     30  C   UNL     1      45.704   8.710  11.935  0.00  0.00    +0.000 A 
ATOM     31  N   UNL     1      44.724   7.819  11.715  0.00  0.00    +0.000 NA
ATOM     32  C   UNL     1      44.962   6.635  12.314  0.00  0.00    +0.000 A 
ENDBRANCH  18  25
ENDBRANCH   1  20
TORSDOF 7
ENDMDL
