MODEL 1
REMARK VINA RESULT:    -7.860      0.000      0.000
REMARK INTER + INTRA:         -10.417
REMARK INTER:                  -9.698
REMARK INTRA:                  -0.718
REMARK UNBOUND:                -0.718
REMARK  Name = 
REMARK  4 active torsions:
REMARK  status: ('A' for Active; 'I' for Inactive)
REMARK    1  A    between atoms: C_5  and  C_6
REMARK    2  A    between atoms: C_10  and  C_11
REMARK    3  A    between atoms: C_11  and  N_12
REMARK    4  A    between atoms: N_12  and  C_13
REMARK                            x       y       z     vdW  Elec       q    Type
REMARK                         _______ _______ _______ _____ _____    ______ ____
ROOT
ATOM      1  C   UNL     1      44.926   3.084   9.315  0.00  0.00    +0.000 A 
ATOM      2  C   UNL     1      44.189   2.140  10.036  0.00  0.00    +0.000 A 
ATOM      3  N   UNL     1      43.359   2.420  11.072  0.00  0.00    +0.000 NA
ATOM      4  C   UNL     1      43.231   3.717  11.413  0.00  0.00    +0.000 A 
ATOM      5  C   UNL     1      43.886   4.757  10.766  0.00  0.00    +0.000 A 
ATOM      6  C   UNL     1      44.761   4.419   9.723  0.00  0.00    +0.000 A 
ENDROOT
BRANCH   1  11
ATOM      7  C   UNL     1      46.919   3.221   6.084  0.00  0.00    +0.000 A 
ATOM      8  C   UNL     1      47.423   1.935   6.076  0.00  0.00    +0.000 A 
ATOM      9  N   UNL     1      47.168   1.032   7.042  0.00  0.00    +0.000 NA
ATOM     10  C   UNL     1      46.372   1.439   8.065  0.00  0.00    +0.000 A 
ATOM     11  C   UNL     1      45.798   2.709   8.184  0.00  0.00    +0.000 A 
ATOM     12  C   UNL     1      46.097   3.604   7.144  0.00  0.00    +0.000 A 
ENDBRANCH   1  11
BRANCH   5  13
ATOM     13  C   UNL     1      43.640   6.184  11.165  0.00  0.00    +0.000 C 
BRANCH  13  14
ATOM     14  N   UNL     1      44.061   6.409  12.540  0.00  0.00    +0.000 N 
ATOM     15  H   UNL     1      43.439   5.966  13.212  0.00  0.00    +0.000 HD
BRANCH  14  16
ATOM     16  C   UNL     1      45.412   6.205  12.864  0.00  0.00    +0.000 A 
ATOM     17  C   UNL     1      45.858   5.153  13.665  0.00  0.00    +0.000 A 
ATOM     18  C   UNL     1      47.221   4.985  13.874  0.00  0.00    +0.000 A 
ATOM     19  N   UNL     1      48.167   5.775  13.331  0.00  0.00    +0.000 NA
ATOM     20  C   UNL     1      47.728   6.756  12.520  0.00  0.00    +0.000 A 
ATOM     21  C   UNL     1      46.386   6.995  12.249  0.00  0.00    +0.000 A 
ENDBRANCH  14  16
ENDBRANCH  13  14
ENDBRANCH   5  13
TORSDOF 4
ENDMDL
MODEL 2
REMARK VINA RESULT:    -7.612      1.828      6.374
REMARK INTER + INTRA:         -10.111
REMARK INTER:                  -9.486
REMARK INTRA:                  -0.625
REMARK UNBOUND:                -0.718
REMARK  Name = 
REMARK  4 active torsions:
REMARK  status: ('A' for Active; 'I' for Inactive)
REMARK    1  A    between atoms: C_5  and  C_6
REMARK    2  A    between atoms: C_10  and  C_11
REMARK    3  A    between atoms: C_11  and  N_12
REMARK    4  A    between atoms: N_12  and  C_13
REMARK                            x       y       z     vdW  Elec       q    Type
REMARK                         _______ _______ _______ _____ _____    ______ ____
ROOT
ATOM      1  C   UNL     1      46.061   5.869  12.062  0.00  0.00    +0.000 A 
ATOM      2  C   UNL     1      46.021   5.071  13.209  0.00  0.00    +0.000 A 
ATOM      3  N   UNL     1      45.457   3.840  13.287  0.00  0.00    +0.000 NA
ATOM      4  C   UNL     1      44.907   3.352  12.157  0.00  0.00    +0.000 A 
ATOM      5  C   UNL     1      44.900   4.029  10.944  0.00  0.00    +0.000 A 
ATOM      6  C   UNL     1      45.464   5.313  10.918  0.00  0.00    +0.000 A 
ENDROOT
BRANCH   1  11
ATOM      7  C   UNL     1      48.669   8.616  11.778  0.00  0.00    +0.000 A 
ATOM      8  C   UNL     1      47.872   9.712  12.052  0.00  0.00    +0.000 A 
ATOM      9  N   UNL     1      46.555   9.623  12.316  0.00  0.00    +0.000 NA
ATOM     10  C   UNL     1      46.011   8.379  12.303  0.00  0.00    +0.000 A 
ATOM     11  C   UNL     1      46.710   7.195  12.045  0.00  0.00    +0.000 A 
ATOM     12  C   UNL     1      48.080   7.352  11.781  0.00  0.00    +0.000 A 
ENDBRANCH   1  11
BRANCH   5  13
ATOM     13  C   UNL     1      44.325   3.388   9.713  0.00  0.00    +0.000 C 
BRANCH  13  14
ATOM     14  N   UNL     1      44.997   3.881   8.520  0.00  0.00    +0.000 N 
ATOM     15  H   UNL     1      45.396   4.808   8.657  0.00  0.00    +0.000 HD
BRANCH  14  16
ATOM     16  C   UNL     1      45.887   3.023   7.853  0.00  0.00    +0.000 A 
ATOM     17  C   UNL     1      46.780   3.454   6.873  0.00  0.00    +0.000 A 
ATOM     18  C   UNL     1      47.674   2.547   6.317  0.00  0.00    +0.000 A 
ATOM     19  N   UNL     1      47.752   1.253   6.679  0.00  0.00    +0.000 NA
ATOM     20  C   UNL     1      46.919   0.859   7.661  0.00  0.00    +0.000 A 
ATOM     21  C   UNL     1      45.997   1.697   8.278  0.00  0.00    +0.000 A 
ENDBRANCH  14  16
ENDBRANCH  13  14
ENDBRANCH   5  13
TORSDOF 4
ENDMDL
MODEL 3
REMARK VINA RESULT:    -7.550      1.344      6.155
REMARK INTER + INTRA:         -10.034
REMARK INTER:                  -9.384
REMARK INTRA:                  -0.649
REMARK UNBOUND:                -0.718
REMARK  Name = 
REMARK  4 active torsions:
REMARK  status: ('A' for Active; 'I' for Inactive)
REMARK    1  A    between atoms: C_5  and  C_6
REMARK    2  A    between atoms: C_10  and  C_11
REMARK    3  A    between atoms: C_11  and  N_12
REMARK    4  A    between atoms: N_12  and  C_13
REMARK                            x       y       z     vdW  Elec       q    Type
REMARK                         _______ _______ _______ _____ _____    ______ ____
ROOT
ATOM      1  C   UNL     1      45.712   5.326  12.272  0.00  0.00    +0.000 A 
ATOM      2  C   UNL     1      44.704   5.080  13.209  0.00  0.00    +0.000 A 
ATOM      3  N   UNL     1      43.566   4.384  12.968  0.00  0.00    +0.000 NA
ATOM      4  C   UNL     1      43.413   3.879  11.727  0.00  0.00    +0.000 A 
ATOM      5  C   UNL     1      44.347   4.029  10.711  0.00  0.00    +0.000 A 
ATOM      6  C   UNL     1      45.494   4.785  10.993  0.00  0.00    +0.000 A 
ENDROOT
BRANCH   1  11
ATOM      7  C   UNL     1      48.663   7.710  12.072  0.00  0.00    +0.000 A 
ATOM      8  C   UNL     1      49.253   7.441  13.292  0.00  0.00    +0.000 A 
ATOM      9  N   UNL     1      48.760   6.549  14.174  0.00  0.00    +0.000 NA
ATOM     10  C   UNL     1      47.623   5.899  13.815  0.00  0.00    +0.000 A 
ATOM     11  C   UNL     1      46.937   6.079  12.610  0.00  0.00    +0.000 A 
ATOM     12  C   UNL     1      47.501   7.017  11.731  0.00  0.00    +0.000 A 
ENDBRANCH   1  11
BRANCH   5  13
ATOM     13  C   UNL     1      44.133   3.380   9.372  0.00  0.00    +0.000 C 
BRANCH  13  14
ATOM     14  N   UNL     1      45.060   3.922   8.389  0.00  0.00    +0.000 N 
ATOM     15  H   UNL     1      45.562   4.735   8.738  0.00  0.00    +0.000 HD
BRANCH  14  16
ATOM     16  C   UNL     1      45.911   3.031   7.716  0.00  0.00    +0.000 A 
ATOM     17  C   UNL     1      46.700   3.399   6.626  0.00  0.00    +0.000 A 
ATOM     18  C   UNL     1      47.568   2.470   6.066  0.00  0.00    +0.000 A 
ATOM     19  N   UNL     1      47.717   1.212   6.523  0.00  0.00    +0.000 NA
ATOM     20  C   UNL     1      46.987   0.883   7.605  0.00  0.00    +0.000 A 
ATOM     21  C   UNL     1      46.099   1.748   8.234  0.00  0.00    +0.000 A 
ENDBRANCH  14  16
ENDBRANCH  13  14
ENDBRANCH   5  13
TORSDOF 4
ENDMDL
MODEL 4
REMARK VINA RESULT:    -7.413      1.888      6.347
REMARK INTER + INTRA:          -9.864
REMARK INTER:                  -9.239
REMARK INTRA:                  -0.626
REMARK UNBOUND:                -0.718
REMARK  Name = 
REMARK  4 active torsions:
REMARK  status: ('A' for Active; 'I' for Inactive)
REMARK    1  A    between atoms: C_5  and  C_6
REMARK    2  A    between atoms: C_10  and  C_11
REMARK    3  A    between atoms: C_11  and  N_12
REMARK    4  A    between atoms: N_12  and  C_13
REMARK                            x       y       z     vdW  Elec       q    Type
REMARK                         _______ _______ _______ _____ _____    ______ ____
ROOT
ATOM      1  C   UNL     1      45.672   6.032  12.075  0.00  0.00    +0.000 A 
ATOM      2  C   UNL     1      45.950   5.213  13.172  0.00  0.00    +0.000 A 
ATOM      3  N   UNL     1      45.685   3.885  13.244  0.00  0.00    +0.000 NA
ATOM      4  C   UNL     1      45.124   3.318  12.157  0.00  0.00    +0.000 A 
ATOM      5  C   UNL     1      44.818   4.011  10.993  0.00  0.00    +0.000 A 
ATOM      6  C   UNL     1      45.077   5.389  10.975  0.00  0.00    +0.000 A 
ENDROOT
BRANCH   1  11
ATOM      7  C   UNL     1      45.381   9.809  11.787  0.00  0.00    +0.000 A 
ATOM      8  C   UNL     1      46.699  10.154  12.018  0.00  0.00    +0.000 A 
ATOM      9  N   UNL     1      47.669   9.253  12.265  0.00  0.00    +0.000 NA
ATOM     10  C   UNL     1      47.301   7.947  12.282  0.00  0.00    +0.000 A 
ATOM     11  C   UNL     1      46.004   7.471  12.059  0.00  0.00    +0.000 A 
ATOM     12  C   UNL     1      45.038   8.457  11.803  0.00  0.00    +0.000 A 
ENDBRANCH   1  11
BRANCH   5  13
ATOM     13  C   UNL     1      44.254   3.293   9.800  0.00  0.00    +0.000 C 
BRANCH  13  14
ATOM     14  N   UNL     1      44.920   3.726   8.581  0.00  0.00    +0.000 N 
ATOM     15  H   UNL     1      45.221   4.698   8.630  0.00  0.00    +0.000 HD
BRANCH  14  16
ATOM     16  C   UNL     1      45.915   2.898   8.036  0.00  0.00    +0.000 A 
ATOM     17  C   UNL     1      45.982   1.524   8.270  0.00  0.00    +0.000 A 
ATOM     18  C   UNL     1      46.958   0.770   7.632  0.00  0.00    +0.000 A 
ATOM     19  N   UNL     1      47.856   1.281   6.768  0.00  0.00    +0.000 NA
ATOM     20  C   UNL     1      47.750   2.598   6.512  0.00  0.00    +0.000 A 
ATOM     21  C   UNL     1      46.803   3.429   7.099  0.00  0.00    +0.000 A 
ENDBRANCH  14  16
ENDBRANCH  13  14
ENDBRANCH   5  13
TORSDOF 4
ENDMDL
MODEL 5
REMARK VINA RESULT:    -7.119      1.830      6.189
REMARK INTER + INTRA:          -9.501
REMARK INTER:                  -8.819
REMARK INTRA:                  -0.682
REMARK UNBOUND:                -0.718
REMARK  Name = 
REMARK  4 active torsions:
REMARK  status: ('A' for Active; 'I' for Inactive)
REMARK    1  A    between atoms: C_5  and  C_6
REMARK    2  A    between atoms: C_10  and  C_11
REMARK    3  A    between atoms: C_11  and  N_12
REMARK    4  A    between atoms: N_12  and  C_13
REMARK                            x       y       z     vdW  Elec       q    Type
REMARK                         _______ _______ _______ _____ _____    ______ ____
ROOT
ATOM      1  C   UNL     1      46.626   6.153  12.270  0.00  0.00    +0.000 A 
ATOM      2  C   UNL     1      46.879   5.217  13.276  0.00  0.00    +0.000 A 
ATOM      3  N   UNL     1      46.236   4.032  13.422  0.00  0.00    +0.000 NA
ATOM      4  C   UNL     1      45.290   3.738  12.508  0.00  0.00    +0.000 A 
ATOM      5  C   UNL     1      44.956   4.567  11.445  0.00  0.00    +0.000 A 
ATOM      6  C   UNL     1      45.622   5.798  11.352  0.00  0.00    +0.000 A 
ENDROOT
BRANCH   1  11
ATOM      7  C   UNL     1      47.482   9.851  12.117  0.00  0.00    +0.000 A 
ATOM      8  C   UNL     1      48.847   9.758  11.922  0.00  0.00    +0.000 A 
ATOM      9  N   UNL     1      49.507   8.586  11.843  0.00  0.00    +0.000 NA
ATOM     10  C   UNL     1      48.764   7.456  11.966  0.00  0.00    +0.000 A 
ATOM     11  C   UNL     1      47.379   7.419  12.160  0.00  0.00    +0.000 A 
ATOM     12  C   UNL     1      46.748   8.671  12.230  0.00  0.00    +0.000 A 
ENDBRANCH   1  11
BRANCH   5  13
ATOM     13  C   UNL     1      43.935   4.137  10.430  0.00  0.00    +0.000 C 
BRANCH  13  14
ATOM     14  N   UNL     1      44.383   4.465   9.085  0.00  0.00    +0.000 N 
ATOM     15  H   UNL     1      44.690   5.432   9.005  0.00  0.00    +0.000 HD
BRANCH  14  16
ATOM     16  C   UNL     1      45.266   3.581   8.444  0.00  0.00    +0.000 A 
ATOM     17  C   UNL     1      46.269   3.998   7.568  0.00  0.00    +0.000 A 
ATOM     18  C   UNL     1      47.144   3.060   7.035  0.00  0.00    +0.000 A 
ATOM     19  N   UNL     1      47.102   1.746   7.324  0.00  0.00    +0.000 NA
ATOM     20  C   UNL     1      46.162   1.362   8.208  0.00  0.00    +0.000 A 
ATOM     21  C   UNL     1      45.249   2.230   8.796  0.00  0.00    +0.000 A 
ENDBRANCH  14  16
ENDBRANCH  13  14
ENDBRANCH   5  13
TORSDOF 4
ENDMDL
MODEL 6
REMARK VINA RESULT:    -6.705      2.014      2.679
REMARK INTER + INTRA:          -8.992
REMARK INTER:                  -8.431
REMARK INTRA:                  -0.560
REMARK UNBOUND:                -0.718
REMARK  Name = 
REMARK  4 active torsions:
REMARK  status: ('A' for Active; 'I' for Inactive)
REMARK    1  A    between atoms: C_5  and  C_6
REMARK    2  A    between atoms: C_10  and  C_11
REMARK    3  A    between atoms: C_11  and  N_12
REMARK    4  A    between atoms: N_12  and  C_13
REMARK                            x       y       z     vdW  Elec       q    Type
REMARK                         _______ _______ _______ _____ _____    ______ ____
ROOT
ATOM      1  C   UNL     1      44.933   3.292   9.810  0.00  0.00    +0.000 A 
ATOM      2  C   UNL     1      43.975   2.428  10.348  0.00  0.00    +0.000 A 
ATOM      3  N   UNL     1      43.202   2.693  11.430  0.00  0.00    +0.000 NA
ATOM      4  C   UNL     1      43.369   3.896  12.015  0.00  0.00    +0.000 A 
ATOM      5  C   UNL     1      44.266   4.856  11.568  0.00  0.00    +0.000 A 
ATOM      6  C   UNL     1      45.070   4.527  10.467  0.00  0.00    +0.000 A 
ENDROOT
BRANCH   1  11
ATOM      7  C   UNL     1      46.788   3.532   6.503  0.00  0.00    +0.000 A 
ATOM      8  C   UNL     1      47.206   2.221   6.384  0.00  0.00    +0.000 A 
ATOM      9  N   UNL     1      46.935   1.270   7.299  0.00  0.00    +0.000 NA
ATOM     10  C   UNL     1      46.213   1.652   8.383  0.00  0.00    +0.000 A 
ATOM     11  C   UNL     1      45.729   2.944   8.615  0.00  0.00    +0.000 A 
ATOM     12  C   UNL     1      46.040   3.890   7.625  0.00  0.00    +0.000 A 
ENDBRANCH   1  11
BRANCH   5  13
ATOM     13  C   UNL     1      44.346   6.200  12.236  0.00  0.00    +0.000 C 
BRANCH  13  14
ATOM     14  N   UNL     1      43.950   7.253  11.312  0.00  0.00    +0.000 N 
ATOM     15  H   UNL     1      42.939   7.356  11.254  0.00  0.00    +0.000 HD
BRANCH  14  16
ATOM     16  C   UNL     1      44.598   8.496  11.403  0.00  0.00    +0.000 A 
ATOM     17  C   UNL     1      43.998   9.702  11.039  0.00  0.00    +0.000 A 
ATOM     18  C   UNL     1      44.688  10.892  11.230  0.00  0.00    +0.000 A 
ATOM     19  N   UNL     1      45.919  10.967  11.771  0.00  0.00    +0.000 NA
ATOM     20  C   UNL     1      46.467   9.803  12.164  0.00  0.00    +0.000 A 
ATOM     21  C   UNL     1      45.850   8.566  12.017  0.00  0.00    +0.000 A 
ENDBRANCH  14  16
ENDBRANCH  13  14
ENDBRANCH   5  13
TORSDOF 4
ENDMDL
MODEL 7
REMARK VINA RESULT:    -6.286      2.076      6.924
REMARK INTER + INTRA:          -8.475
REMARK INTER:                  -7.851
REMARK INTRA:                  -0.623
REMARK UNBOUND:                -0.718
REMARK  Name = 
REMARK  4 active torsions:
REMARK  status: ('A' for Active; 'I' for Inactive)
REMARK    1  A    between atoms: C_5  and  C_6
REMARK    2  A    between atoms: C_10  and  C_11
REMARK    3  A    between atoms: C_11  and  N_12
REMARK    4  A    between atoms: N_12  and  C_13
REMARK                            x       y       z     vdW  Elec       q    Type
REMARK                         _______ _______ _______ _____ _____    ______ ____
ROOT
ATOM      1  C   UNL     1      47.195   5.494  14.057  0.00  0.00    +0.000 A 
ATOM      2  C   UNL     1      47.881   6.527  13.413  0.00  0.00    +0.000 A 
ATOM      3  N   UNL     1      47.502   7.113  12.250  0.00  0.00    +0.000 NA
ATOM      4  C   UNL     1      46.361   6.664  11.688  0.00  0.00    +0.000 A 
ATOM      5  C   UNL     1      45.571   5.661  12.234  0.00  0.00    +0.000 A 
ATOM      6  C   UNL     1      46.019   5.060  13.420  0.00  0.00    +0.000 A 
ENDROOT
BRANCH   1  11
ATOM      7  C   UNL     1      47.790   3.077  16.927  0.00  0.00    +0.000 A 
ATOM      8  C   UNL     1      48.535   3.893  17.757  0.00  0.00    +0.000 A 
ATOM      9  N   UNL     1      48.861   5.164  17.450  0.00  0.00    +0.000 NA
ATOM     10  C   UNL     1      48.421   5.637  16.256  0.00  0.00    +0.000 A 
ATOM     11  C   UNL     1      47.657   4.914  15.334  0.00  0.00    +0.000 A 
ATOM     12  C   UNL     1      47.346   3.598  15.711  0.00  0.00    +0.000 A 
ENDBRANCH   1  11
BRANCH   5  13
ATOM     13  C   UNL     1      44.279   5.263  11.580  0.00  0.00    +0.000 C 
BRANCH  13  14
ATOM     14  N   UNL     1      44.401   5.319  10.131  0.00  0.00    +0.000 N 
ATOM     15  H   UNL     1      44.792   6.203   9.811  0.00  0.00    +0.000 HD
BRANCH  14  16
ATOM     16  C   UNL     1      44.976   4.223   9.469  0.00  0.00    +0.000 A 
ATOM     17  C   UNL     1      44.665   2.896   9.768  0.00  0.00    +0.000 A 
ATOM     18  C   UNL     1      45.228   1.876   9.013  0.00  0.00    +0.000 A 
ATOM     19  N   UNL     1      46.060   2.082   7.975  0.00  0.00    +0.000 NA
ATOM     20  C   UNL     1      46.314   3.367   7.663  0.00  0.00    +0.000 A 
ATOM     21  C   UNL     1      45.792   4.451   8.359  0.00  0.00    +0.000 A 
ENDBRANCH  14  16
ENDBRANCH  13  14
ENDBRANCH   5  13
TORSDOF 4
ENDMDL
MODEL 8
REMARK VINA RESULT:    -6.048      2.468      4.721
REMARK INTER + INTRA:          -8.181
REMARK INTER:                  -7.612
REMARK INTRA:                  -0.569
REMARK UNBOUND:                -0.718
REMARK  Name = 
REMARK  4 active torsions:
REMARK  status: ('A' for Active; 'I' for Inactive)
REMARK    1  A    between atoms: C_5  and  C_6
REMARK    2  A    between atoms: C_10  and  C_11
REMARK    3  A    between atoms: C_11  and  N_12
REMARK    4  A    between atoms: N_12  and  C_13
REMARK                            x       y       z     vdW  Elec       q    Type
REMARK                         _______ _______ _______ _____ _____    ______ ____
ROOT
ATOM      1  C   UNL     1      45.759   5.987  11.637  0.00  0.00    +0.000 A 
ATOM      2  C   UNL     1      45.159   7.249  11.672  0.00  0.00    +0.000 A 
ATOM      3  N   UNL     1      45.525   8.267  12.489  0.00  0.00    +0.000 NA
ATOM      4  C   UNL     1      46.562   8.038  13.319  0.00  0.00    +0.000 A 
ATOM      5  C   UNL     1      47.262   6.839  13.369  0.00  0.00    +0.000 A 
ATOM      6  C   UNL     1      46.828   5.802  12.531  0.00  0.00    +0.000 A 
ENDROOT
BRANCH   1  11
ATOM      7  C   UNL     1      45.131   3.989   8.468  0.00  0.00    +0.000 A 
ATOM      8  C   UNL     1      44.444   2.919   9.010  0.00  0.00    +0.000 A 
ATOM      9  N   UNL     1      44.177   2.797  10.325  0.00  0.00    +0.000 NA
ATOM     10  C   UNL     1      44.620   3.794  11.133  0.00  0.00    +0.000 A 
ATOM     11  C   UNL     1      45.319   4.928  10.707  0.00  0.00    +0.000 A 
ATOM     12  C   UNL     1      45.563   5.000   9.326  0.00  0.00    +0.000 A 
ENDBRANCH   1  11
BRANCH   5  13
ATOM     13  C   UNL     1      48.450   6.684  14.276  0.00  0.00    +0.000 C 
BRANCH  13  14
ATOM     14  N   UNL     1      48.023   6.584  15.664  0.00  0.00    +0.000 N 
ATOM     15  H   UNL     1      47.072   6.919  15.800  0.00  0.00    +0.000 HD
BRANCH  14  16
ATOM     16  C   UNL     1      48.257   5.380  16.347  0.00  0.00    +0.000 A 
ATOM     17  C   UNL     1      47.442   4.255  16.221  0.00  0.00    +0.000 A 
ATOM     18  C   UNL     1      47.790   3.082  16.878  0.00  0.00    +0.000 A 
ATOM     19  N   UNL     1      48.895   2.946  17.635  0.00  0.00    +0.000 NA
ATOM     20  C   UNL     1      49.700   4.022  17.710  0.00  0.00    +0.000 A 
ATOM     21  C   UNL     1      49.435   5.233  17.082  0.00  0.00    +0.000 A 
ENDBRANCH  14  16
ENDBRANCH  13  14
ENDBRANCH   5  13
TORSDOF 4
ENDMDL
MODEL 9
REMARK VINA RESULT:    -5.958      1.928      6.561
REMARK INTER + INTRA:          -8.070
REMARK INTER:                  -7.536
REMARK INTRA:                  -0.534
REMARK UNBOUND:                -0.718
REMARK  Name = 
REMARK  4 active torsions:
REMARK  status: ('A' for Active; 'I' for Inactive)
REMARK    1  A    between atoms: C_5  and  C_6
REMARK    2  A    between atoms: C_10  and  C_11
REMARK    3  A    between atoms: C_11  and  N_12
REMARK    4  A    between atoms: N_12  and  C_13
REMARK                            x       y       z     vdW  Elec       q    Type
REMARK                         _______ _______ _______ _____ _____    ______ ____
ROOT
ATOM      1  C   UNL     1      46.968   7.706  12.127  0.00  0.00    +0.000 A 
ATOM      2  C   UNL     1      46.020   8.732  12.113  0.00  0.00    +0.000 A 
ATOM      3  N   UNL     1      44.723   8.594  11.742  0.00  0.00    +0.000 NA
ATOM      4  C   UNL     1      44.325   7.360  11.375  0.00  0.00    +0.000 A 
ATOM      5  C   UNL     1      45.157   6.248  11.366  0.00  0.00    +0.000 A 
ATOM      6  C   UNL     1      46.499   6.444  11.724  0.00  0.00    +0.000 A 
ENDROOT
BRANCH   1  11
ATOM      7  C   UNL     1      50.595   8.834  12.215  0.00  0.00    +0.000 A 
ATOM      8  C   UNL     1      50.974   8.278  13.422  0.00  0.00    +0.000 A 
ATOM      9  N   UNL     1      50.139   7.570  14.208  0.00  0.00    +0.000 NA
ATOM     10  C   UNL     1      48.865   7.416  13.764  0.00  0.00    +0.000 A 
ATOM     11  C   UNL     1      48.363   7.925  12.561  0.00  0.00    +0.000 A 
ATOM     12  C   UNL     1      49.281   8.649  11.784  0.00  0.00    +0.000 A 
ENDBRANCH   1  11
BRANCH   5  13
ATOM     13  C   UNL     1      44.620   4.892  11.006  0.00  0.00    +0.000 C 
BRANCH  13  14
ATOM     14  N   UNL     1      44.478   4.766   9.563  0.00  0.00    +0.000 N 
ATOM     15  H   UNL     1      44.506   5.669   9.092  0.00  0.00    +0.000 HD
BRANCH  14  16
ATOM     16  C   UNL     1      45.256   3.805   8.899  0.00  0.00    +0.000 A 
ATOM     17  C   UNL     1      45.153   2.435   9.139  0.00  0.00    +0.000 A 
ATOM     18  C   UNL     1      45.911   1.550   8.384  0.00  0.00    +0.000 A 
ATOM     19  N   UNL     1      46.748   1.929   7.400  0.00  0.00    +0.000 NA
ATOM     20  C   UNL     1      46.803   3.250   7.143  0.00  0.00    +0.000 A 
ATOM     21  C   UNL     1      46.077   4.206   7.843  0.00  0.00    +0.000 A 
ENDBRANCH  14  16
ENDBRANCH  13  14
ENDBRANCH   5  13
TORSDOF 4
ENDMDL
