MODEL 1
REMARK VINA RESULT:    -7.641      0.000      0.000
REMARK INTER + INTRA:         -10.696
REMARK INTER:                  -9.875
REMARK INTRA:                  -0.821
REMARK UNBOUND:                -0.821
REMARK  Name = 
REMARK  8 active torsions:
REMARK  status: ('A' for Active; 'I' for Inactive)
REMARK    1  A    between atoms: C_1  and  C_2
REMARK    2  A    between atoms: C_2  and  C_3
REMARK    3  A    between atoms: C_2  and  C_4
REMARK    4  A    between atoms: C_8  and  C_9
REMARK    5  A    between atoms: C_9  and  C_10
REMARK    6  A    between atoms: C_9  and  C_11
REMARK    7  A    between atoms: C_11  and  N_12
REMARK    8  A    between atoms: C_16  and  C_17
REMARK                            x       y       z     vdW  Elec       q    Type
REMARK                         _______ _______ _______ _____ _____    ______ ____
ROOT
ATOM      1  N   UNL     1      43.972   3.234  10.259  0.00  0.00    +0.000 N 
ATOM      2  C   UNL     1      44.893   3.021   9.218  0.00  0.00    +0.000 A 
ATOM      3  C   UNL     1      45.320   1.722   8.955  0.00  0.00    +0.000 A 
ATOM      4  C   UNL     1      46.244   1.494   7.930  0.00  0.00    +0.000 A 
ATOM      5  C   UNL     1      46.726   2.571   7.184  0.00  0.00    +0.000 A 
ATOM      6  C   UNL     1      46.261   3.827   7.524  0.00  0.00    +0.000 A 
ATOM      7  N   UNL     1      45.371   4.069   8.516  0.00  0.00    +0.000 NA
ATOM      8  H   UNL     1      43.161   2.641  10.095  0.00  0.00    +0.000 HD
ENDROOT
BRANCH   5   9
ATOM      9  C   UNL     1      47.694   2.330   6.087  0.00  0.00    +0.000 C 
ATOM     10  N   UNL     1      47.705   3.176   5.013  0.00  0.00    +0.000 N 
ATOM     11  O   UNL     1      48.471   1.383   6.128  0.00  0.00    +0.000 OA
ATOM     12  H   UNL     1      47.102   3.969   4.868  0.00  0.00    +0.000 HD
ATOM     13  H   UNL     1      48.376   2.965   4.284  0.00  0.00    +0.000 HD
ENDBRANCH   5   9
BRANCH   1  14
ATOM     14  C   UNL     1      43.579   4.644  10.397  0.00  0.00    +0.000 C 
BRANCH  14  15
ATOM     15  C   UNL     1      43.594   5.122  11.865  0.00  0.00    +0.000 C 
ATOM     16  C   UNL     1      42.671   6.331  12.066  0.00  0.00    +0.000 C 
BRANCH  15  21
ATOM     17  C   UNL     1      47.125   6.556  12.302  0.00  0.00    +0.000 A 
ATOM     18  C   UNL     1      47.607   5.777  13.362  0.00  0.00    +0.000 A 
ATOM     19  C   UNL     1      46.818   4.773  13.921  0.00  0.00    +0.000 A 
ATOM     20  C   UNL     1      45.534   4.537  13.436  0.00  0.00    +0.000 A 
ATOM     21  C   UNL     1      45.017   5.299  12.381  0.00  0.00    +0.000 A 
ATOM     22  C   UNL     1      45.830   6.303  11.820  0.00  0.00    +0.000 A 
BRANCH  17  24
ATOM     23  C   UNL     1      47.497   9.047  12.104  0.00  0.00    +0.000 C 
ATOM     24  C   UNL     1      48.000   7.653  11.721  0.00  0.00    +0.000 C 
ATOM     25  C   UNL     1      49.468   7.475  12.118  0.00  0.00    +0.000 C 
ENDBRANCH  17  24
ENDBRANCH  15  21
ENDBRANCH  14  15
ENDBRANCH   1  14
TORSDOF 5
ENDMDL
MODEL 2
REMARK VINA RESULT:    -6.986      3.969      7.191
REMARK INTER + INTRA:          -9.849
REMARK INTER:                  -9.174
REMARK INTRA:                  -0.676
REMARK UNBOUND:                -0.821
REMARK  Name = 
REMARK  8 active torsions:
REMARK  status: ('A' for Active; 'I' for Inactive)
REMARK    1  A    between atoms: C_1  and  C_2
REMARK    2  A    between atoms: C_2  and  C_3
REMARK    3  A    between atoms: C_2  and  C_4
REMARK    4  A    between atoms: C_8  and  C_9
REMARK    5  A    between atoms: C_9  and  C_10
REMARK    6  A    between atoms: C_9  and  C_11
REMARK    7  A    between atoms: C_11  and  N_12
REMARK    8  A    between atoms: C_16  and  C_17
REMARK                            x       y       z     vdW  Elec       q    Type
REMARK                         _______ _______ _______ _____ _____    ______ ____
ROOT
ATOM      1  N   UNL     1      48.188   7.264  13.333  0.00  0.00    +0.000 N 
ATOM      2  C   UNL     1      48.035   6.278  14.324  0.00  0.00    +0.000 A 
ATOM      3  C   UNL     1      48.527   6.529  15.602  0.00  0.00    +0.000 A 
ATOM      4  C   UNL     1      48.393   5.555  16.596  0.00  0.00    +0.000 A 
ATOM      5  C   UNL     1      47.769   4.343  16.294  0.00  0.00    +0.000 A 
ATOM      6  C   UNL     1      47.327   4.172  14.997  0.00  0.00    +0.000 A 
ATOM      7  N   UNL     1      47.451   5.101  14.019  0.00  0.00    +0.000 NA
ATOM      8  H   UNL     1      47.787   8.133  13.682  0.00  0.00    +0.000 HD
ENDROOT
BRANCH   5   9
ATOM      9  C   UNL     1      47.613   3.314  17.351  0.00  0.00    +0.000 C 
ATOM     10  N   UNL     1      48.702   2.957  18.097  0.00  0.00    +0.000 N 
ATOM     11  O   UNL     1      46.529   2.778  17.555  0.00  0.00    +0.000 OA
ATOM     12  H   UNL     1      49.638   3.318  18.001  0.00  0.00    +0.000 HD
ATOM     13  H   UNL     1      48.549   2.243  18.798  0.00  0.00    +0.000 HD
ENDBRANCH   5   9
BRANCH   1  14
ATOM     14  C   UNL     1      47.587   6.881  12.046  0.00  0.00    +0.000 C 
BRANCH  14  15
ATOM     15  C   UNL     1      46.160   7.443  11.869  0.00  0.00    +0.000 C 
ATOM     16  C   UNL     1      45.788   8.390  13.017  0.00  0.00    +0.000 C 
BRANCH  15  21
ATOM     17  C   UNL     1      44.426   4.488  10.140  0.00  0.00    +0.000 A 
ATOM     18  C   UNL     1      43.420   4.183  11.066  0.00  0.00    +0.000 A 
ATOM     19  C   UNL     1      43.273   4.937  12.229  0.00  0.00    +0.000 A 
ATOM     20  C   UNL     1      44.133   6.001  12.490  0.00  0.00    +0.000 A 
ATOM     21  C   UNL     1      45.153   6.332  11.591  0.00  0.00    +0.000 A 
ATOM     22  C   UNL     1      45.283   5.568  10.415  0.00  0.00    +0.000 A 
BRANCH  17  24
ATOM     23  C   UNL     1      45.790   4.059   8.058  0.00  0.00    +0.000 C 
ATOM     24  C   UNL     1      44.573   3.642   8.888  0.00  0.00    +0.000 C 
ATOM     25  C   UNL     1      44.623   2.149   9.218  0.00  0.00    +0.000 C 
ENDBRANCH  17  24
ENDBRANCH  15  21
ENDBRANCH  14  15
ENDBRANCH   1  14
TORSDOF 5
ENDMDL
MODEL 3
REMARK VINA RESULT:    -6.747      4.619      7.763
REMARK INTER + INTRA:          -9.540
REMARK INTER:                  -9.063
REMARK INTRA:                  -0.477
REMARK UNBOUND:                -0.821
REMARK  Name = 
REMARK  8 active torsions:
REMARK  status: ('A' for Active; 'I' for Inactive)
REMARK    1  A    between atoms: C_1  and  C_2
REMARK    2  A    between atoms: C_2  and  C_3
REMARK    3  A    between atoms: C_2  and  C_4
REMARK    4  A    between atoms: C_8  and  C_9
REMARK    5  A    between atoms: C_9  and  C_10
REMARK    6  A    between atoms: C_9  and  C_11
REMARK    7  A    between atoms: C_11  and  N_12
REMARK    8  A    between atoms: C_16  and  C_17
REMARK                            x       y       z     vdW  Elec       q    Type
REMARK                         _______ _______ _______ _____ _____    ______ ____
ROOT
ATOM      1  N   UNL     1      46.885   5.036  13.785  0.00  0.00    +0.000 N 
ATOM      2  C   UNL     1      47.444   4.871  15.064  0.00  0.00    +0.000 A 
ATOM      3  C   UNL     1      47.007   3.812  15.857  0.00  0.00    +0.000 A 
ATOM      4  C   UNL     1      47.546   3.641  17.135  0.00  0.00    +0.000 A 
ATOM      5  C   UNL     1      48.515   4.532  17.602  0.00  0.00    +0.000 A 
ATOM      6  C   UNL     1      48.877   5.562  16.755  0.00  0.00    +0.000 A 
ATOM      7  N   UNL     1      48.364   5.749  15.515  0.00  0.00    +0.000 NA
ATOM      8  H   UNL     1      46.997   4.163  13.271  0.00  0.00    +0.000 HD
ENDROOT
BRANCH   5   9
ATOM      9  C   UNL     1      49.098   4.344  18.952  0.00  0.00    +0.000 C 
ATOM     10  N   UNL     1      48.506   3.462  19.813  0.00  0.00    +0.000 N 
ATOM     11  O   UNL     1      50.091   4.971  19.304  0.00  0.00    +0.000 OA
ATOM     12  H   UNL     1      47.681   2.912  19.635  0.00  0.00    +0.000 HD
ATOM     13  H   UNL     1      48.933   3.375  20.728  0.00  0.00    +0.000 HD
ENDBRANCH   5   9
BRANCH   1  14
ATOM     14  C   UNL     1      47.467   6.165  13.045  0.00  0.00    +0.000 C 
BRANCH  14  15
ATOM     15  C   UNL     1      46.408   6.964  12.254  0.00  0.00    +0.000 C 
ATOM     16  C   UNL     1      45.975   8.221  13.019  0.00  0.00    +0.000 C 
BRANCH  15  21
ATOM     17  C   UNL     1      44.437   4.442  10.140  0.00  0.00    +0.000 A 
ATOM     18  C   UNL     1      43.275   4.292  10.907  0.00  0.00    +0.000 A 
ATOM     19  C   UNL     1      43.103   5.017  12.085  0.00  0.00    +0.000 A 
ATOM     20  C   UNL     1      44.093   5.895  12.520  0.00  0.00    +0.000 A 
ATOM     21  C   UNL     1      45.270   6.067  11.782  0.00  0.00    +0.000 A 
ATOM     22  C   UNL     1      45.424   5.336  10.588  0.00  0.00    +0.000 A 
BRANCH  17  24
ATOM     23  C   UNL     1      45.791   4.116   8.032  0.00  0.00    +0.000 C 
ATOM     24  C   UNL     1      44.604   3.629   8.868  0.00  0.00    +0.000 C 
ATOM     25  C   UNL     1      44.724   2.133   9.165  0.00  0.00    +0.000 C 
ENDBRANCH  17  24
ENDBRANCH  15  21
ENDBRANCH  14  15
ENDBRANCH   1  14
TORSDOF 5
ENDMDL
MODEL 4
REMARK VINA RESULT:    -6.710      1.950      2.897
REMARK INTER + INTRA:          -9.492
REMARK INTER:                  -8.844
REMARK INTRA:                  -0.648
REMARK UNBOUND:                -0.821
REMARK  Name = 
REMARK  8 active torsions:
REMARK  status: ('A' for Active; 'I' for Inactive)
REMARK    1  A    between atoms: C_1  and  C_2
REMARK    2  A    between atoms: C_2  and  C_3
REMARK    3  A    between atoms: C_2  and  C_4
REMARK    4  A    between atoms: C_8  and  C_9
REMARK    5  A    between atoms: C_9  and  C_10
REMARK    6  A    between atoms: C_9  and  C_11
REMARK    7  A    between atoms: C_11  and  N_12
REMARK    8  A    between atoms: C_16  and  C_17
REMARK                            x       y       z     vdW  Elec       q    Type
REMARK                         _______ _______ _______ _____ _____    ______ ____
ROOT
ATOM      1  N   UNL     1      43.713   3.720  10.383  0.00  0.00    +0.000 N 
ATOM      2  C   UNL     1      44.678   3.324   9.442  0.00  0.00    +0.000 A 
ATOM      3  C   UNL     1      44.821   1.968   9.157  0.00  0.00    +0.000 A 
ATOM      4  C   UNL     1      45.784   1.556   8.230  0.00  0.00    +0.000 A 
ATOM      5  C   UNL     1      46.590   2.509   7.603  0.00  0.00    +0.000 A 
ATOM      6  C   UNL     1      46.392   3.829   7.958  0.00  0.00    +0.000 A 
ATOM      7  N   UNL     1      45.468   4.248   8.857  0.00  0.00    +0.000 NA
ATOM      8  H   UNL     1      42.812   3.341  10.098  0.00  0.00    +0.000 HD
ENDROOT
BRANCH   5   9
ATOM      9  C   UNL     1      47.602   2.076   6.610  0.00  0.00    +0.000 C 
ATOM     10  N   UNL     1      48.415   3.014   6.037  0.00  0.00    +0.000 N 
ATOM     11  O   UNL     1      47.711   0.897   6.292  0.00  0.00    +0.000 OA
ATOM     12  H   UNL     1      48.399   4.006   6.210  0.00  0.00    +0.000 HD
ATOM     13  H   UNL     1      49.083   2.672   5.356  0.00  0.00    +0.000 HD
ENDBRANCH   5   9
BRANCH   1  14
ATOM     14  C   UNL     1      43.643   5.179  10.555  0.00  0.00    +0.000 C 
BRANCH  14  15
ATOM     15  C   UNL     1      44.116   5.634  11.953  0.00  0.00    +0.000 C 
ATOM     16  C   UNL     1      43.000   5.482  12.994  0.00  0.00    +0.000 C 
BRANCH  15  21
ATOM     17  C   UNL     1      44.565   9.404  11.397  0.00  0.00    +0.000 A 
ATOM     18  C   UNL     1      45.862   9.599  11.890  0.00  0.00    +0.000 A 
ATOM     19  C   UNL     1      46.607   8.526  12.374  0.00  0.00    +0.000 A 
ATOM     20  C   UNL     1      46.066   7.242  12.381  0.00  0.00    +0.000 A 
ATOM     21  C   UNL     1      44.773   7.009  11.900  0.00  0.00    +0.000 A 
ATOM     22  C   UNL     1      44.036   8.102  11.405  0.00  0.00    +0.000 A 
BRANCH  17  24
ATOM     23  C   UNL     1      44.525  11.362   9.802  0.00  0.00    +0.000 C 
ATOM     24  C   UNL     1      43.770  10.593  10.888  0.00  0.00    +0.000 C 
ATOM     25  C   UNL     1      42.382  10.175  10.396  0.00  0.00    +0.000 C 
ENDBRANCH  17  24
ENDBRANCH  15  21
ENDBRANCH  14  15
ENDBRANCH   1  14
TORSDOF 5
ENDMDL
MODEL 5
REMARK VINA RESULT:    -6.469      3.911      7.293
REMARK INTER + INTRA:          -9.181
REMARK INTER:                  -8.585
REMARK INTRA:                  -0.595
REMARK UNBOUND:                -0.821
REMARK  Name = 
REMARK  8 active torsions:
REMARK  status: ('A' for Active; 'I' for Inactive)
REMARK    1  A    between atoms: C_1  and  C_2
REMARK    2  A    between atoms: C_2  and  C_3
REMARK    3  A    between atoms: C_2  and  C_4
REMARK    4  A    between atoms: C_8  and  C_9
REMARK    5  A    between atoms: C_9  and  C_10
REMARK    6  A    between atoms: C_9  and  C_11
REMARK    7  A    between atoms: C_11  and  N_12
REMARK    8  A    between atoms: C_16  and  C_17
REMARK                            x       y       z     vdW  Elec       q    Type
REMARK                         _______ _______ _______ _____ _____    ______ ____
ROOT
ATOM      1  N   UNL     1      45.904   4.902  12.648  0.00  0.00    +0.000 N 
ATOM      2  C   UNL     1      46.788   5.249  13.685  0.00  0.00    +0.000 A 
ATOM      3  C   UNL     1      46.841   4.443  14.820  0.00  0.00    +0.000 A 
ATOM      4  C   UNL     1      47.708   4.780  15.864  0.00  0.00    +0.000 A 
ATOM      5  C   UNL     1      48.507   5.921  15.757  0.00  0.00    +0.000 A 
ATOM      6  C   UNL     1      48.376   6.671  14.605  0.00  0.00    +0.000 A 
ATOM      7  N   UNL     1      47.540   6.364  13.584  0.00  0.00    +0.000 NA
ATOM      8  H   UNL     1      46.099   3.943  12.369  0.00  0.00    +0.000 HD
ENDROOT
BRANCH   5   9
ATOM      9  C   UNL     1      49.436   6.272  16.858  0.00  0.00    +0.000 C 
ATOM     10  N   UNL     1      49.436   5.513  17.995  0.00  0.00    +0.000 N 
ATOM     11  O   UNL     1      50.192   7.233  16.764  0.00  0.00    +0.000 OA
ATOM     12  H   UNL     1      48.847   4.718  18.185  0.00  0.00    +0.000 HD
ATOM     13  H   UNL     1      50.080   5.797  18.724  0.00  0.00    +0.000 HD
ENDBRANCH   5   9
BRANCH   1  14
ATOM     14  C   UNL     1      45.982   5.816  11.499  0.00  0.00    +0.000 C 
BRANCH  14  15
ATOM     15  C   UNL     1      44.827   5.604  10.495  0.00  0.00    +0.000 C 
ATOM     16  C   UNL     1      43.462   5.789  11.171  0.00  0.00    +0.000 C 
BRANCH  15  21
ATOM     17  C   UNL     1      46.174   3.063   7.956  0.00  0.00    +0.000 A 
ATOM     18  C   UNL     1      45.460   1.913   8.315  0.00  0.00    +0.000 A 
ATOM     19  C   UNL     1      44.525   1.952   9.348  0.00  0.00    +0.000 A 
ATOM     20  C   UNL     1      44.296   3.137  10.045  0.00  0.00    +0.000 A 
ATOM     21  C   UNL     1      44.995   4.305   9.716  0.00  0.00    +0.000 A 
ATOM     22  C   UNL     1      45.928   4.252   8.663  0.00  0.00    +0.000 A 
BRANCH  17  24
ATOM     23  C   UNL     1      48.036   1.712   6.912  0.00  0.00    +0.000 C 
ATOM     24  C   UNL     1      47.197   2.990   6.836  0.00  0.00    +0.000 C 
ATOM     25  C   UNL     1      46.539   3.129   5.461  0.00  0.00    +0.000 C 
ENDBRANCH  17  24
ENDBRANCH  15  21
ENDBRANCH  14  15
ENDBRANCH   1  14
TORSDOF 5
ENDMDL
MODEL 6
REMARK VINA RESULT:    -6.373      4.914      6.827
REMARK INTER + INTRA:          -9.057
REMARK INTER:                  -8.476
REMARK INTRA:                  -0.582
REMARK UNBOUND:                -0.821
REMARK  Name = 
REMARK  8 active torsions:
REMARK  status: ('A' for Active; 'I' for Inactive)
REMARK    1  A    between atoms: C_1  and  C_2
REMARK    2  A    between atoms: C_2  and  C_3
REMARK    3  A    between atoms: C_2  and  C_4
REMARK    4  A    between atoms: C_8  and  C_9
REMARK    5  A    between atoms: C_9  and  C_10
REMARK    6  A    between atoms: C_9  and  C_11
REMARK    7  A    between atoms: C_11  and  N_12
REMARK    8  A    between atoms: C_16  and  C_17
REMARK                            x       y       z     vdW  Elec       q    Type
REMARK                         _______ _______ _______ _____ _____    ______ ____
ROOT
ATOM      1  N   UNL     1      47.330   5.369  14.936  0.00  0.00    +0.000 N 
ATOM      2  C   UNL     1      46.620   5.032  13.770  0.00  0.00    +0.000 A 
ATOM      3  C   UNL     1      46.552   5.960  12.734  0.00  0.00    +0.000 A 
ATOM      4  C   UNL     1      45.841   5.645  11.572  0.00  0.00    +0.000 A 
ATOM      5  C   UNL     1      45.209   4.404  11.465  0.00  0.00    +0.000 A 
ATOM      6  C   UNL     1      45.314   3.552  12.548  0.00  0.00    +0.000 A 
ATOM      7  N   UNL     1      45.994   3.841  13.684  0.00  0.00    +0.000 NA
ATOM      8  H   UNL     1      48.274   5.643  14.669  0.00  0.00    +0.000 HD
ENDROOT
BRANCH   5   9
ATOM      9  C   UNL     1      44.467   4.062  10.228  0.00  0.00    +0.000 C 
ATOM     10  N   UNL     1      44.743   4.747   9.077  0.00  0.00    +0.000 N 
ATOM     11  O   UNL     1      43.609   3.186  10.228  0.00  0.00    +0.000 OA
ATOM     12  H   UNL     1      45.411   5.494   8.970  0.00  0.00    +0.000 HD
ATOM     13  H   UNL     1      44.204   4.486   8.260  0.00  0.00    +0.000 HD
ENDBRANCH   5   9
BRANCH   1  14
ATOM     14  C   UNL     1      47.354   4.283  15.927  0.00  0.00    +0.000 C 
BRANCH  14  15
ATOM     15  C   UNL     1      48.192   4.638  17.175  0.00  0.00    +0.000 C 
ATOM     16  C   UNL     1      48.447   6.148  17.262  0.00  0.00    +0.000 C 
BRANCH  15  21
ATOM     17  C   UNL     1      51.768   3.526  18.014  0.00  0.00    +0.000 A 
ATOM     18  C   UNL     1      51.732   2.180  17.628  0.00  0.00    +0.000 A 
ATOM     19  C   UNL     1      50.578   1.631  17.072  0.00  0.00    +0.000 A 
ATOM     20  C   UNL     1      49.439   2.415  16.901  0.00  0.00    +0.000 A 
ATOM     21  C   UNL     1      49.436   3.762  17.279  0.00  0.00    +0.000 A 
ATOM     22  C   UNL     1      50.613   4.306  17.830  0.00  0.00    +0.000 A 
BRANCH  17  24
ATOM     23  C   UNL     1      53.650   3.139  19.653  0.00  0.00    +0.000 C 
ATOM     24  C   UNL     1      53.033   4.096  18.630  0.00  0.00    +0.000 C 
ATOM     25  C   UNL     1      54.057   4.484  17.560  0.00  0.00    +0.000 C 
ENDBRANCH  17  24
ENDBRANCH  15  21
ENDBRANCH  14  15
ENDBRANCH   1  14
TORSDOF 5
ENDMDL
MODEL 7
REMARK VINA RESULT:    -6.078      4.377      6.186
REMARK INTER + INTRA:          -8.676
REMARK INTER:                  -8.140
REMARK INTRA:                  -0.536
REMARK UNBOUND:                -0.821
REMARK  Name = 
REMARK  8 active torsions:
REMARK  status: ('A' for Active; 'I' for Inactive)
REMARK    1  A    between atoms: C_1  and  C_2
REMARK    2  A    between atoms: C_2  and  C_3
REMARK    3  A    between atoms: C_2  and  C_4
REMARK    4  A    between atoms: C_8  and  C_9
REMARK    5  A    between atoms: C_9  and  C_10
REMARK    6  A    between atoms: C_9  and  C_11
REMARK    7  A    between atoms: C_11  and  N_12
REMARK    8  A    between atoms: C_16  and  C_17
REMARK                            x       y       z     vdW  Elec       q    Type
REMARK                         _______ _______ _______ _____ _____    ______ ____
ROOT
ATOM      1  N   UNL     1      47.090   5.371  14.874  0.00  0.00    +0.000 N 
ATOM      2  C   UNL     1      46.401   4.957  13.721  0.00  0.00    +0.000 A 
ATOM      3  C   UNL     1      46.159   5.888  12.713  0.00  0.00    +0.000 A 
ATOM      4  C   UNL     1      45.466   5.494  11.564  0.00  0.00    +0.000 A 
ATOM      5  C   UNL     1      45.025   4.175  11.442  0.00  0.00    +0.000 A 
ATOM      6  C   UNL     1      45.294   3.324  12.496  0.00  0.00    +0.000 A 
ATOM      7  N   UNL     1      45.960   3.687  13.620  0.00  0.00    +0.000 NA
ATOM      8  H   UNL     1      47.972   5.792  14.587  0.00  0.00    +0.000 HD
ENDROOT
BRANCH   5   9
ATOM      9  C   UNL     1      44.303   3.752  10.218  0.00  0.00    +0.000 C 
ATOM     10  N   UNL     1      44.108   4.661   9.214  0.00  0.00    +0.000 N 
ATOM     11  O   UNL     1      43.874   2.610  10.100  0.00  0.00    +0.000 OA
ATOM     12  H   UNL     1      44.400   5.625   9.214  0.00  0.00    +0.000 HD
ATOM     13  H   UNL     1      43.600   4.329   8.403  0.00  0.00    +0.000 HD
ENDBRANCH   5   9
BRANCH   1  14
ATOM     14  C   UNL     1      47.311   4.279  15.834  0.00  0.00    +0.000 C 
BRANCH  14  15
ATOM     15  C   UNL     1      48.542   4.522  16.735  0.00  0.00    +0.000 C 
ATOM     16  C   UNL     1      49.137   3.199  17.231  0.00  0.00    +0.000 C 
BRANCH  15  21
ATOM     17  C   UNL     1      48.184   7.907  18.506  0.00  0.00    +0.000 A 
ATOM     18  C   UNL     1      47.604   7.518  19.721  0.00  0.00    +0.000 A 
ATOM     19  C   UNL     1      47.353   6.175  19.991  0.00  0.00    +0.000 A 
ATOM     20  C   UNL     1      47.669   5.198  19.048  0.00  0.00    +0.000 A 
ATOM     21  C   UNL     1      48.244   5.549  17.821  0.00  0.00    +0.000 A 
ATOM     22  C   UNL     1      48.502   6.910  17.568  0.00  0.00    +0.000 A 
BRANCH  17  24
ATOM     23  C   UNL     1      48.256   9.722  16.751  0.00  0.00    +0.000 C 
ATOM     24  C   UNL     1      48.433   9.379  18.232  0.00  0.00    +0.000 C 
ATOM     25  C   UNL     1      47.553  10.274  19.109  0.00  0.00    +0.000 C 
ENDBRANCH  17  24
ENDBRANCH  15  21
ENDBRANCH  14  15
ENDBRANCH   1  14
TORSDOF 5
ENDMDL
MODEL 8
REMARK VINA RESULT:    -6.016      4.855      6.922
REMARK INTER + INTRA:          -8.596
REMARK INTER:                  -7.993
REMARK INTRA:                  -0.603
REMARK UNBOUND:                -0.821
REMARK  Name = 
REMARK  8 active torsions:
REMARK  status: ('A' for Active; 'I' for Inactive)
REMARK    1  A    between atoms: C_1  and  C_2
REMARK    2  A    between atoms: C_2  and  C_3
REMARK    3  A    between atoms: C_2  and  C_4
REMARK    4  A    between atoms: C_8  and  C_9
REMARK    5  A    between atoms: C_9  and  C_10
REMARK    6  A    between atoms: C_9  and  C_11
REMARK    7  A    between atoms: C_11  and  N_12
REMARK    8  A    between atoms: C_16  and  C_17
REMARK                            x       y       z     vdW  Elec       q    Type
REMARK                         _______ _______ _______ _____ _____    ______ ____
ROOT
ATOM      1  N   UNL     1      47.285   5.405  14.958  0.00  0.00    +0.000 N 
ATOM      2  C   UNL     1      46.590   5.075  13.782  0.00  0.00    +0.000 A 
ATOM      3  C   UNL     1      46.621   5.966  12.711  0.00  0.00    +0.000 A 
ATOM      4  C   UNL     1      45.926   5.657  11.538  0.00  0.00    +0.000 A 
ATOM      5  C   UNL     1      45.210   4.461  11.454  0.00  0.00    +0.000 A 
ATOM      6  C   UNL     1      45.220   3.645  12.569  0.00  0.00    +0.000 A 
ATOM      7  N   UNL     1      45.883   3.928  13.716  0.00  0.00    +0.000 NA
ATOM      8  H   UNL     1      48.254   5.602  14.713  0.00  0.00    +0.000 HD
ENDROOT
BRANCH   5   9
ATOM      9  C   UNL     1      44.485   4.125  10.205  0.00  0.00    +0.000 C 
ATOM     10  N   UNL     1      44.767   4.825   9.064  0.00  0.00    +0.000 N 
ATOM     11  O   UNL     1      43.635   3.241  10.186  0.00  0.00    +0.000 OA
ATOM     12  H   UNL     1      45.428   5.579   8.972  0.00  0.00    +0.000 HD
ATOM     13  H   UNL     1      44.238   4.568   8.240  0.00  0.00    +0.000 HD
ENDBRANCH   5   9
BRANCH   1  14
ATOM     14  C   UNL     1      47.200   4.358  15.987  0.00  0.00    +0.000 C 
BRANCH  14  15
ATOM     15  C   UNL     1      48.567   4.057  16.640  0.00  0.00    +0.000 C 
ATOM     16  C   UNL     1      48.660   2.593  17.086  0.00  0.00    +0.000 C 
BRANCH  15  21
ATOM     17  C   UNL     1      48.307   6.187  19.821  0.00  0.00    +0.000 A 
ATOM     18  C   UNL     1      49.532   6.866  19.796  0.00  0.00    +0.000 A 
ATOM     19  C   UNL     1      50.431   6.669  18.750  0.00  0.00    +0.000 A 
ATOM     20  C   UNL     1      50.126   5.785  17.717  0.00  0.00    +0.000 A 
ATOM     21  C   UNL     1      48.913   5.085  17.711  0.00  0.00    +0.000 A 
ATOM     22  C   UNL     1      48.010   5.303  18.770  0.00  0.00    +0.000 A 
BRANCH  17  24
ATOM     23  C   UNL     1      47.608   5.430  22.127  0.00  0.00    +0.000 C 
ATOM     24  C   UNL     1      47.351   6.409  20.980  0.00  0.00    +0.000 C 
ATOM     25  C   UNL     1      47.394   7.856  21.478  0.00  0.00    +0.000 C 
ENDBRANCH  17  24
ENDBRANCH  15  21
ENDBRANCH  14  15
ENDBRANCH   1  14
TORSDOF 5
ENDMDL
MODEL 9
REMARK VINA RESULT:    -5.807      4.401      6.891
REMARK INTER + INTRA:          -8.325
REMARK INTER:                  -7.563
REMARK INTRA:                  -0.762
REMARK UNBOUND:                -0.821
REMARK  Name = 
REMARK  8 active torsions:
REMARK  status: ('A' for Active; 'I' for Inactive)
REMARK    1  A    between atoms: C_1  and  C_2
REMARK    2  A    between atoms: C_2  and  C_3
REMARK    3  A    between atoms: C_2  and  C_4
REMARK    4  A    between atoms: C_8  and  C_9
REMARK    5  A    between atoms: C_9  and  C_10
REMARK    6  A    between atoms: C_9  and  C_11
REMARK    7  A    between atoms: C_11  and  N_12
REMARK    8  A    between atoms: C_16  and  C_17
REMARK                            x       y       z     vdW  Elec       q    Type
REMARK                         _______ _______ _______ _____ _____    ______ ____
ROOT
ATOM      1  N   UNL     1      48.593   7.406  13.600  0.00  0.00    +0.000 N 
ATOM      2  C   UNL     1      47.658   6.406  13.280  0.00  0.00    +0.000 A 
ATOM      3  C   UNL     1      46.855   6.573  12.155  0.00  0.00    +0.000 A 
ATOM      4  C   UNL     1      45.914   5.592  11.829  0.00  0.00    +0.000 A 
ATOM      5  C   UNL     1      45.790   4.458  12.635  0.00  0.00    +0.000 A 
ATOM      6  C   UNL     1      46.615   4.383  13.741  0.00  0.00    +0.000 A 
ATOM      7  N   UNL     1      47.530   5.325  14.077  0.00  0.00    +0.000 NA
ATOM      8  H   UNL     1      49.184   7.564  12.787  0.00  0.00    +0.000 HD
ENDROOT
BRANCH   5   9
ATOM      9  C   UNL     1      44.802   3.410  12.283  0.00  0.00    +0.000 C 
ATOM     10  N   UNL     1      44.935   2.745  11.095  0.00  0.00    +0.000 N 
ATOM     11  O   UNL     1      43.871   3.142  13.033  0.00  0.00    +0.000 OA
ATOM     12  H   UNL     1      45.647   2.898  10.399  0.00  0.00    +0.000 HD
ATOM     13  H   UNL     1      44.230   2.046  10.893  0.00  0.00    +0.000 HD
ENDBRANCH   5   9
BRANCH   1  14
ATOM     14  C   UNL     1      49.398   7.081  14.787  0.00  0.00    +0.000 C 
BRANCH  14  15
ATOM     15  C   UNL     1      49.075   7.993  15.991  0.00  0.00    +0.000 C 
ATOM     16  C   UNL     1      50.130   9.094  16.152  0.00  0.00    +0.000 C 
BRANCH  15  21
ATOM     17  C   UNL     1      48.572   4.971  18.300  0.00  0.00    +0.000 A 
ATOM     18  C   UNL     1      48.395   5.601  19.539  0.00  0.00    +0.000 A 
ATOM     19  C   UNL     1      48.407   6.990  19.637  0.00  0.00    +0.000 A 
ATOM     20  C   UNL     1      48.604   7.773  18.501  0.00  0.00    +0.000 A 
ATOM     21  C   UNL     1      48.788   7.179  17.247  0.00  0.00    +0.000 A 
ATOM     22  C   UNL     1      48.763   5.773  17.162  0.00  0.00    +0.000 A 
BRANCH  17  24
ATOM     23  C   UNL     1      47.312   2.920  17.532  0.00  0.00    +0.000 C 
ATOM     24  C   UNL     1      48.569   3.454  18.224  0.00  0.00    +0.000 C 
ATOM     25  C   UNL     1      49.833   2.920  17.546  0.00  0.00    +0.000 C 
ENDBRANCH  17  24
ENDBRANCH  15  21
ENDBRANCH  14  15
ENDBRANCH   1  14
TORSDOF 5
ENDMDL
