MODEL 1
REMARK VINA RESULT:    -8.867      0.000      0.000
REMARK INTER + INTRA:         -13.407
REMARK INTER:                 -12.496
REMARK INTRA:                  -0.911
REMARK UNBOUND:                -0.911
REMARK  Name = 
REMARK  7 active torsions:
REMARK  status: ('A' for Active; 'I' for Inactive)
REMARK    1  A    between atoms: C_2  and  C_20
REMARK    2  A    between atoms: N_3  and  C_4
REMARK    3  A    between atoms: C_4  and  C_5
REMARK    4  A    between atoms: C_8  and  C_9
REMARK    5  A    between atoms: C_9  and  N_10
REMARK    6  A    between atoms: N_10  and  C_11
REMARK    7  A    between atoms: C_11  and  C_12
REMARK                            x       y       z     vdW  Elec       q    Type
REMARK                         _______ _______ _______ _____ _____    ______ ____
ROOT
ATOM      1  C   UNL     1      48.084   6.443  13.826  0.00  0.00    +0.000 C 
ENDROOT
BRANCH   1   2
ATOM      2  C   UNL     1      46.922   6.002  12.972  0.00  0.00    +0.000 A 
ATOM      3  C   UNL     1      46.747   6.537  11.691  0.00  0.00    +0.000 A 
ATOM      4  C   UNL     1      45.660   6.153  10.900  0.00  0.00    +0.000 A 
ATOM      5  C   UNL     1      44.719   5.227  11.372  0.00  0.00    +0.000 A 
ATOM      6  C   UNL     1      44.879   4.712  12.665  0.00  0.00    +0.000 A 
ATOM      7  C   UNL     1      45.967   5.099  13.459  0.00  0.00    +0.000 A 
BRANCH   5   8
ATOM      8  C   UNL     1      43.542   4.819  10.510  0.00  0.00    +0.000 C 
BRANCH   8   9
ATOM      9  N   UNL     1      43.986   4.276   9.226  0.00  0.00    +0.000 NA
ATOM     10  H   UNL     1      44.796   4.811   8.907  0.00  0.00    +0.000 HD
BRANCH   9  11
ATOM     11  C   UNL     1      44.396   2.871   9.361  0.00  0.00    +0.000 C 
BRANCH  11  12
ATOM     12  C   UNL     1      45.517   2.498   8.406  0.00  0.00    +0.000 A 
ATOM     13  C   UNL     1      46.046   3.452   7.538  0.00  0.00    +0.000 A 
ATOM     14  C   UNL     1      47.068   3.081   6.667  0.00  0.00    +0.000 A 
ATOM     15  C   UNL     1      47.532   1.774   6.681  0.00  0.00    +0.000 A 
ATOM     16  C   UNL     1      46.954   0.885   7.573  0.00  0.00    +0.000 A 
ATOM     17  N   UNL     1      45.962   1.215   8.433  0.00  0.00    +0.000 NA
ENDBRANCH  11  12
ENDBRANCH   9  11
ENDBRANCH   8   9
ENDBRANCH   5   8
ENDBRANCH   1   2
BRANCH   1  20
ATOM     18  O   UNL     1      49.992   6.300  15.894  0.00  0.00    +0.000 OA
ATOM     19  C   UNL     1      48.820   6.064  16.155  0.00  0.00    +0.000 C 
ATOM     20  N   UNL     1      47.824   6.169  15.215  0.00  0.00    +0.000 N 
ATOM     21  H   UNL     1      46.868   5.954  15.479  0.00  0.00    +0.000 HD
BRANCH  19  22
ATOM     22  C   UNL     1      48.387   5.596  17.474  0.00  0.00    +0.000 A 
ATOM     23  C   UNL     1      48.261   4.295  17.924  0.00  0.00    +0.000 A 
ATOM     24 CL   UNL     1      48.461   2.767  17.194  0.00  0.00    +0.000 Cl
ATOM     25  N   UNL     1      47.938   4.278  19.243  0.00  0.00    +0.000 N 
ATOM     26  C   UNL     1      47.833   5.560  19.692  0.00  0.00    +0.000 A 
ATOM     27  N   UNL     1      47.576   5.889  20.970  0.00  0.00    +0.000 NA
ATOM     28  C   UNL     1      47.502   7.224  21.163  0.00  0.00    +0.000 A 
ATOM     29  C   UNL     1      47.626   8.191  20.174  0.00  0.00    +0.000 A 
ATOM     30  C   UNL     1      47.898   7.791  18.864  0.00  0.00    +0.000 A 
ATOM     31  C   UNL     1      48.034   6.413  18.607  0.00  0.00    +0.000 A 
ATOM     32  H   UNL     1      47.816   3.461  19.821  0.00  0.00    +0.000 HD
ENDBRANCH  19  22
ENDBRANCH   1  20
TORSDOF 7
ENDMDL
MODEL 2
REMARK VINA RESULT:    -8.082      2.060      2.714
REMARK INTER + INTRA:         -12.300
REMARK INTER:                 -11.723
REMARK INTRA:                  -0.577
REMARK UNBOUND:                -0.911
REMARK  Name = 
REMARK  7 active torsions:
REMARK  status: ('A' for Active; 'I' for Inactive)
REMARK    1  A    between atoms: C_2  and  C_20
REMARK    2  A    between atoms: N_3  and  C_4
REMARK    3  A    between atoms: C_4  and  C_5
REMARK    4  A    between atoms: C_8  and  C_9
REMARK    5  A    between atoms: C_9  and  N_10
REMARK    6  A    between atoms: N_10  and  C_11
REMARK    7  A    between atoms: C_11  and  C_12
REMARK                            x       y       z     vdW  Elec       q    Type
REMARK                         _______ _______ _______ _____ _____    ______ ____
ROOT
ATOM      1  C   UNL     1      46.598   7.694  12.963  0.00  0.00    +0.000 C 
ENDROOT
BRANCH   1   2
ATOM      2  C   UNL     1      45.785   6.487  12.567  0.00  0.00    +0.000 A 
ATOM      3  C   UNL     1      45.943   5.276  13.250  0.00  0.00    +0.000 A 
ATOM      4  C   UNL     1      45.212   4.145  12.876  0.00  0.00    +0.000 A 
ATOM      5  C   UNL     1      44.307   4.196  11.806  0.00  0.00    +0.000 A 
ATOM      6  C   UNL     1      44.168   5.401  11.105  0.00  0.00    +0.000 A 
ATOM      7  C   UNL     1      44.903   6.534  11.478  0.00  0.00    +0.000 A 
BRANCH   5   8
ATOM      8  C   UNL     1      43.521   2.965  11.406  0.00  0.00    +0.000 C 
BRANCH   8   9
ATOM      9  N   UNL     1      44.219   2.200  10.371  0.00  0.00    +0.000 NA
ATOM     10  H   UNL     1      43.659   1.379  10.139  0.00  0.00    +0.000 HD
BRANCH   9  11
ATOM     11  C   UNL     1      44.386   2.998   9.148  0.00  0.00    +0.000 C 
BRANCH  11  12
ATOM     12  C   UNL     1      45.547   2.517   8.295  0.00  0.00    +0.000 A 
ATOM     13  C   UNL     1      46.192   3.395   7.425  0.00  0.00    +0.000 A 
ATOM     14  C   UNL     1      47.248   2.925   6.649  0.00  0.00    +0.000 A 
ATOM     15  C   UNL     1      47.630   1.595   6.755  0.00  0.00    +0.000 A 
ATOM     16  C   UNL     1      46.938   0.785   7.641  0.00  0.00    +0.000 A 
ATOM     17  N   UNL     1      45.910   1.213   8.411  0.00  0.00    +0.000 NA
ENDBRANCH  11  12
ENDBRANCH   9  11
ENDBRANCH   8   9
ENDBRANCH   5   8
ENDBRANCH   1   2
BRANCH   1  20
ATOM     18  O   UNL     1      49.202   6.658  13.266  0.00  0.00    +0.000 OA
ATOM     19  C   UNL     1      48.540   6.895  14.268  0.00  0.00    +0.000 C 
ATOM     20  N   UNL     1      47.286   7.454  14.205  0.00  0.00    +0.000 N 
ATOM     21  H   UNL     1      46.775   7.623  15.065  0.00  0.00    +0.000 HD
BRANCH  19  22
ATOM     22  C   UNL     1      49.003   6.553  15.615  0.00  0.00    +0.000 A 
ATOM     23  C   UNL     1      49.925   7.221  16.400  0.00  0.00    +0.000 A 
ATOM     24 CL   UNL     1      50.918   8.585  16.156  0.00  0.00    +0.000 Cl
ATOM     25  N   UNL     1      50.002   6.651  17.631  0.00  0.00    +0.000 N 
ATOM     26  C   UNL     1      49.145   5.593  17.685  0.00  0.00    +0.000 A 
ATOM     27  N   UNL     1      48.942   4.847  18.785  0.00  0.00    +0.000 NA
ATOM     28  C   UNL     1      48.059   3.844  18.584  0.00  0.00    +0.000 A 
ATOM     29  C   UNL     1      47.435   3.548  17.380  0.00  0.00    +0.000 A 
ATOM     30  C   UNL     1      47.679   4.361  16.270  0.00  0.00    +0.000 A 
ATOM     31  C   UNL     1      48.555   5.453  16.430  0.00  0.00    +0.000 A 
ATOM     32  H   UNL     1      50.575   6.960  18.401  0.00  0.00    +0.000 HD
ENDBRANCH  19  22
ENDBRANCH   1  20
TORSDOF 7
ENDMDL
MODEL 3
REMARK VINA RESULT:    -7.821      1.671      2.264
REMARK INTER + INTRA:         -11.931
REMARK INTER:                 -11.054
REMARK INTRA:                  -0.877
REMARK UNBOUND:                -0.911
REMARK  Name = 
REMARK  7 active torsions:
REMARK  status: ('A' for Active; 'I' for Inactive)
REMARK    1  A    between atoms: C_2  and  C_20
REMARK    2  A    between atoms: N_3  and  C_4
REMARK    3  A    between atoms: C_4  and  C_5
REMARK    4  A    between atoms: C_8  and  C_9
REMARK    5  A    between atoms: C_9  and  N_10
REMARK    6  A    between atoms: N_10  and  C_11
REMARK    7  A    between atoms: C_11  and  C_12
REMARK                            x       y       z     vdW  Elec       q    Type
REMARK                         _______ _______ _______ _____ _____    ______ ____
ROOT
ATOM      1  C   UNL     1      48.495   6.618  13.758  0.00  0.00    +0.000 C 
ENDROOT
BRANCH   1   2
ATOM      2  C   UNL     1      47.183   6.263  13.106  0.00  0.00    +0.000 A 
ATOM      3  C   UNL     1      46.469   5.135  13.529  0.00  0.00    +0.000 A 
ATOM      4  C   UNL     1      45.264   4.783  12.916  0.00  0.00    +0.000 A 
ATOM      5  C   UNL     1      44.743   5.547  11.861  0.00  0.00    +0.000 A 
ATOM      6  C   UNL     1      45.471   6.660  11.421  0.00  0.00    +0.000 A 
ATOM      7  C   UNL     1      46.681   7.012  12.033  0.00  0.00    +0.000 A 
BRANCH   5   8
ATOM      8  C   UNL     1      43.438   5.156  11.201  0.00  0.00    +0.000 C 
BRANCH   8   9
ATOM      9  N   UNL     1      43.660   4.630   9.853  0.00  0.00    +0.000 NA
ATOM     10  H   UNL     1      44.401   5.174   9.408  0.00  0.00    +0.000 HD
BRANCH   9  11
ATOM     11  C   UNL     1      44.091   3.226   9.899  0.00  0.00    +0.000 C 
BRANCH  11  12
ATOM     12  C   UNL     1      45.160   2.913   8.865  0.00  0.00    +0.000 A 
ATOM     13  C   UNL     1      45.622   3.911   8.008  0.00  0.00    +0.000 A 
ATOM     14  C   UNL     1      46.595   3.595   7.064  0.00  0.00    +0.000 A 
ATOM     15  C   UNL     1      47.079   2.296   6.995  0.00  0.00    +0.000 A 
ATOM     16  C   UNL     1      46.568   1.361   7.881  0.00  0.00    +0.000 A 
ATOM     17  N   UNL     1      45.624   1.638   8.810  0.00  0.00    +0.000 NA
ENDBRANCH  11  12
ENDBRANCH   9  11
ENDBRANCH   8   9
ENDBRANCH   5   8
ENDBRANCH   1   2
BRANCH   1  20
ATOM     18  O   UNL     1      50.261   6.289  15.929  0.00  0.00    +0.000 OA
ATOM     19  C   UNL     1      49.174   6.817  16.127  0.00  0.00    +0.000 C 
ATOM     20  N   UNL     1      48.284   7.064  15.111  0.00  0.00    +0.000 N 
ATOM     21  H   UNL     1      47.392   7.496  15.328  0.00  0.00    +0.000 HD
BRANCH  19  22
ATOM     22  C   UNL     1      48.708   7.178  17.467  0.00  0.00    +0.000 A 
ATOM     23  C   UNL     1      48.201   8.389  17.902  0.00  0.00    +0.000 A 
ATOM     24 CL   UNL     1      47.976   9.910  17.164  0.00  0.00    +0.000 Cl
ATOM     25  N   UNL     1      47.776   8.292  19.188  0.00  0.00    +0.000 N 
ATOM     26  C   UNL     1      48.000   7.025  19.636  0.00  0.00    +0.000 A 
ATOM     27  N   UNL     1      47.643   6.586  20.856  0.00  0.00    +0.000 NA
ATOM     28  C   UNL     1      47.989   5.297  21.072  0.00  0.00    +0.000 A 
ATOM     29  C   UNL     1      48.678   4.487  20.180  0.00  0.00    +0.000 A 
ATOM     30  C   UNL     1      49.020   4.995  18.925  0.00  0.00    +0.000 A 
ATOM     31  C   UNL     1      48.643   6.318  18.621  0.00  0.00    +0.000 A 
ATOM     32  H   UNL     1      47.340   9.020  19.734  0.00  0.00    +0.000 HD
ENDBRANCH  19  22
ENDBRANCH   1  20
TORSDOF 7
ENDMDL
MODEL 4
REMARK VINA RESULT:    -7.729      2.981      9.191
REMARK INTER + INTRA:         -11.802
REMARK INTER:                 -10.754
REMARK INTRA:                  -1.049
REMARK UNBOUND:                -0.911
REMARK  Name = 
REMARK  7 active torsions:
REMARK  status: ('A' for Active; 'I' for Inactive)
REMARK    1  A    between atoms: C_2  and  C_20
REMARK    2  A    between atoms: N_3  and  C_4
REMARK    3  A    between atoms: C_4  and  C_5
REMARK    4  A    between atoms: C_8  and  C_9
REMARK    5  A    between atoms: C_9  and  N_10
REMARK    6  A    between atoms: N_10  and  C_11
REMARK    7  A    between atoms: C_11  and  C_12
REMARK                            x       y       z     vdW  Elec       q    Type
REMARK                         _______ _______ _______ _____ _____    ______ ____
ROOT
ATOM      1  C   UNL     1      45.234   7.386  11.653  0.00  0.00    +0.000 C 
ENDROOT
BRANCH   1   2
ATOM      2  C   UNL     1      46.341   7.534  12.667  0.00  0.00    +0.000 A 
ATOM      3  C   UNL     1      47.087   6.418  13.062  0.00  0.00    +0.000 A 
ATOM      4  C   UNL     1      48.099   6.539  14.019  0.00  0.00    +0.000 A 
ATOM      5  C   UNL     1      48.387   7.779  14.607  0.00  0.00    +0.000 A 
ATOM      6  C   UNL     1      47.623   8.891  14.231  0.00  0.00    +0.000 A 
ATOM      7  C   UNL     1      46.606   8.769  13.274  0.00  0.00    +0.000 A 
BRANCH   5   8
ATOM      8  C   UNL     1      49.484   7.901  15.645  0.00  0.00    +0.000 C 
BRANCH   8   9
ATOM      9  N   UNL     1      50.324   6.703  15.675  0.00  0.00    +0.000 NA
ATOM     10  H   UNL     1      51.281   6.969  15.434  0.00  0.00    +0.000 HD
BRANCH   9  11
ATOM     11  C   UNL     1      50.343   6.105  17.018  0.00  0.00    +0.000 C 
BRANCH  11  12
ATOM     12  C   UNL     1      49.386   4.932  17.144  0.00  0.00    +0.000 A 
ATOM     13  C   UNL     1      48.030   5.154  17.378  0.00  0.00    +0.000 A 
ATOM     14  C   UNL     1      47.177   4.060  17.498  0.00  0.00    +0.000 A 
ATOM     15  C   UNL     1      47.695   2.777  17.387  0.00  0.00    +0.000 A 
ATOM     16  C   UNL     1      49.055   2.640  17.156  0.00  0.00    +0.000 A 
ATOM     17  N   UNL     1      49.909   3.683  17.032  0.00  0.00    +0.000 NA
ENDBRANCH  11  12
ENDBRANCH   9  11
ENDBRANCH   8   9
ENDBRANCH   5   8
ENDBRANCH   1   2
BRANCH   1  20
ATOM     18  O   UNL     1      43.129   5.674  10.893  0.00  0.00    +0.000 OA
ATOM     19  C   UNL     1      44.282   5.332  10.661  0.00  0.00    +0.000 C 
ATOM     20  N   UNL     1      45.357   6.136  10.949  0.00  0.00    +0.000 N 
ATOM     21  H   UNL     1      46.294   5.803  10.745  0.00  0.00    +0.000 HD
BRANCH  19  22
ATOM     22  C   UNL     1      44.616   4.017  10.110  0.00  0.00    +0.000 A 
ATOM     23  C   UNL     1      44.192   2.773  10.542  0.00  0.00    +0.000 A 
ATOM     24 CL   UNL     1      43.232   2.238  11.845  0.00  0.00    +0.000 Cl
ATOM     25  N   UNL     1      44.633   1.803   9.699  0.00  0.00    +0.000 N 
ATOM     26  C   UNL     1      45.363   2.377   8.703  0.00  0.00    +0.000 A 
ATOM     27  N   UNL     1      45.898   1.694   7.675  0.00  0.00    +0.000 NA
ATOM     28  C   UNL     1      46.593   2.483   6.827  0.00  0.00    +0.000 A 
ATOM     29  C   UNL     1      46.799   3.847   6.978  0.00  0.00    +0.000 A 
ATOM     30  C   UNL     1      46.215   4.506   8.063  0.00  0.00    +0.000 A 
ATOM     31  C   UNL     1      45.438   3.746   8.958  0.00  0.00    +0.000 A 
ATOM     32  H   UNL     1      44.442   0.815   9.769  0.00  0.00    +0.000 HD
ENDBRANCH  19  22
ENDBRANCH   1  20
TORSDOF 7
ENDMDL
MODEL 5
REMARK VINA RESULT:    -7.597      3.750      5.599
REMARK INTER + INTRA:         -11.616
REMARK INTER:                 -10.534
REMARK INTRA:                  -1.083
REMARK UNBOUND:                -0.911
REMARK  Name = 
REMARK  7 active torsions:
REMARK  status: ('A' for Active; 'I' for Inactive)
REMARK    1  A    between atoms: C_2  and  C_20
REMARK    2  A    between atoms: N_3  and  C_4
REMARK    3  A    between atoms: C_4  and  C_5
REMARK    4  A    between atoms: C_8  and  C_9
REMARK    5  A    between atoms: C_9  and  N_10
REMARK    6  A    between atoms: N_10  and  C_11
REMARK    7  A    between atoms: C_11  and  C_12
REMARK                            x       y       z     vdW  Elec       q    Type
REMARK                         _______ _______ _______ _____ _____    ______ ____
ROOT
ATOM      1  C   UNL     1      47.488   5.966  14.371  0.00  0.00    +0.000 C 
ENDROOT
BRANCH   1   2
ATOM      2  C   UNL     1      46.424   5.151  13.678  0.00  0.00    +0.000 A 
ATOM      3  C   UNL     1      46.671   3.816  13.337  0.00  0.00    +0.000 A 
ATOM      4  C   UNL     1      45.702   3.058  12.673  0.00  0.00    +0.000 A 
ATOM      5  C   UNL     1      44.463   3.618  12.330  0.00  0.00    +0.000 A 
ATOM      6  C   UNL     1      44.226   4.962  12.647  0.00  0.00    +0.000 A 
ATOM      7  C   UNL     1      45.198   5.722  13.311  0.00  0.00    +0.000 A 
BRANCH   5   8
ATOM      8  C   UNL     1      43.420   2.791  11.608  0.00  0.00    +0.000 C 
BRANCH   8   9
ATOM      9  N   UNL     1      43.944   2.249  10.354  0.00  0.00    +0.000 NA
ATOM     10  H   UNL     1      43.229   1.656   9.930  0.00  0.00    +0.000 HD
BRANCH   9  11
ATOM     11  C   UNL     1      44.262   3.326   9.406  0.00  0.00    +0.000 C 
BRANCH  11  12
ATOM     12  C   UNL     1      45.345   2.928   8.417  0.00  0.00    +0.000 A 
ATOM     13  C   UNL     1      45.916   1.658   8.475  0.00  0.00    +0.000 A 
ATOM     14  C   UNL     1      46.913   1.323   7.562  0.00  0.00    +0.000 A 
ATOM     15  C   UNL     1      47.317   2.260   6.621  0.00  0.00    +0.000 A 
ATOM     16  C   UNL     1      46.701   3.501   6.630  0.00  0.00    +0.000 A 
ATOM     17  N   UNL     1      45.729   3.855   7.502  0.00  0.00    +0.000 NA
ENDBRANCH  11  12
ENDBRANCH   9  11
ENDBRANCH   8   9
ENDBRANCH   5   8
ENDBRANCH   1   2
BRANCH   1  20
ATOM     18  O   UNL     1      49.056   7.020  12.281  0.00  0.00    +0.000 OA
ATOM     19  C   UNL     1      48.313   7.771  12.899  0.00  0.00    +0.000 C 
ATOM     20  N   UNL     1      47.476   7.323  13.892  0.00  0.00    +0.000 N 
ATOM     21  H   UNL     1      46.886   7.988  14.380  0.00  0.00    +0.000 HD
BRANCH  19  22
ATOM     22  C   UNL     1      48.294   9.218  12.672  0.00  0.00    +0.000 A 
ATOM     23  C   UNL     1      49.349  10.110  12.733  0.00  0.00    +0.000 A 
ATOM     24 CL   UNL     1      50.999   9.964  13.138  0.00  0.00    +0.000 Cl
ATOM     25  N   UNL     1      48.945  11.350  12.350  0.00  0.00    +0.000 N 
ATOM     26  C   UNL     1      47.619  11.309  12.039  0.00  0.00    +0.000 A 
ATOM     27  N   UNL     1      46.926  12.363  11.573  0.00  0.00    +0.000 NA
ATOM     28  C   UNL     1      45.622  12.078  11.357  0.00  0.00    +0.000 A 
ATOM     29  C   UNL     1      45.009  10.859  11.613  0.00  0.00    +0.000 A 
ATOM     30  C   UNL     1      45.781   9.798  12.093  0.00  0.00    +0.000 A 
ATOM     31  C   UNL     1      47.157  10.019  12.293  0.00  0.00    +0.000 A 
ATOM     32  H   UNL     1      49.522  12.173  12.277  0.00  0.00    +0.000 HD
ENDBRANCH  19  22
ENDBRANCH   1  20
TORSDOF 7
ENDMDL
MODEL 6
REMARK VINA RESULT:    -7.583      3.988      6.194
REMARK INTER + INTRA:         -11.597
REMARK INTER:                 -10.654
REMARK INTRA:                  -0.944
REMARK UNBOUND:                -0.911
REMARK  Name = 
REMARK  7 active torsions:
REMARK  status: ('A' for Active; 'I' for Inactive)
REMARK    1  A    between atoms: C_2  and  C_20
REMARK    2  A    between atoms: N_3  and  C_4
REMARK    3  A    between atoms: C_4  and  C_5
REMARK    4  A    between atoms: C_8  and  C_9
REMARK    5  A    between atoms: C_9  and  N_10
REMARK    6  A    between atoms: N_10  and  C_11
REMARK    7  A    between atoms: C_11  and  C_12
REMARK                            x       y       z     vdW  Elec       q    Type
REMARK                         _______ _______ _______ _____ _____    ______ ____
ROOT
ATOM      1  C   UNL     1      48.112   6.466  13.703  0.00  0.00    +0.000 C 
ENDROOT
BRANCH   1   2
ATOM      2  C   UNL     1      46.943   5.930  12.916  0.00  0.00    +0.000 A 
ATOM      3  C   UNL     1      46.654   6.444  11.646  0.00  0.00    +0.000 A 
ATOM      4  C   UNL     1      45.558   5.972  10.918  0.00  0.00    +0.000 A 
ATOM      5  C   UNL     1      44.721   4.977  11.444  0.00  0.00    +0.000 A 
ATOM      6  C   UNL     1      44.994   4.482  12.726  0.00  0.00    +0.000 A 
ATOM      7  C   UNL     1      46.091   4.957  13.457  0.00  0.00    +0.000 A 
BRANCH   5   8
ATOM      8  C   UNL     1      43.534   4.473  10.649  0.00  0.00    +0.000 C 
BRANCH   8   9
ATOM      9  N   UNL     1      43.949   3.938   9.352  0.00  0.00    +0.000 NA
ATOM     10  H   UNL     1      44.558   4.621   8.897  0.00  0.00    +0.000 HD
BRANCH   9  11
ATOM     11  C   UNL     1      44.708   2.690   9.515  0.00  0.00    +0.000 C 
BRANCH  11  12
ATOM     12  C   UNL     1      45.695   2.459   8.383  0.00  0.00    +0.000 A 
ATOM     13  C   UNL     1      46.019   3.497   7.511  0.00  0.00    +0.000 A 
ATOM     14  C   UNL     1      46.920   3.255   6.477  0.00  0.00    +0.000 A 
ATOM     15  C   UNL     1      47.470   1.988   6.336  0.00  0.00    +0.000 A 
ATOM     16  C   UNL     1      47.095   1.010   7.242  0.00  0.00    +0.000 A 
ATOM     17  N   UNL     1      46.225   1.215   8.258  0.00  0.00    +0.000 NA
ENDBRANCH  11  12
ENDBRANCH   9  11
ENDBRANCH   8   9
ENDBRANCH   5   8
ENDBRANCH   1   2
BRANCH   1  20
ATOM     18  O   UNL     1      50.409   7.888  14.506  0.00  0.00    +0.000 OA
ATOM     19  C   UNL     1      50.043   7.967  13.340  0.00  0.00    +0.000 C 
ATOM     20  N   UNL     1      48.968   7.259  12.859  0.00  0.00    +0.000 N 
ATOM     21  H   UNL     1      48.700   7.365  11.887  0.00  0.00    +0.000 HD
BRANCH  19  22
ATOM     22  C   UNL     1      50.683   8.862  12.374  0.00  0.00    +0.000 A 
ATOM     23  C   UNL     1      50.791  10.240  12.422  0.00  0.00    +0.000 A 
ATOM     24 CL   UNL     1      50.212  11.435  13.492  0.00  0.00    +0.000 Cl
ATOM     25  N   UNL     1      51.554  10.692  11.393  0.00  0.00    +0.000 N 
ATOM     26  C   UNL     1      51.958   9.632  10.639  0.00  0.00    +0.000 A 
ATOM     27  N   UNL     1      52.773   9.736   9.575  0.00  0.00    +0.000 NA
ATOM     28  C   UNL     1      53.015   8.546   8.981  0.00  0.00    +0.000 A 
ATOM     29  C   UNL     1      52.470   7.328   9.364  0.00  0.00    +0.000 A 
ATOM     30  C   UNL     1      51.633   7.279  10.482  0.00  0.00    +0.000 A 
ATOM     31  C   UNL     1      51.381   8.480  11.173  0.00  0.00    +0.000 A 
ATOM     32  H   UNL     1      51.812  11.651  11.213  0.00  0.00    +0.000 HD
ENDBRANCH  19  22
ENDBRANCH   1  20
TORSDOF 7
ENDMDL
MODEL 7
REMARK VINA RESULT:    -7.361      2.486      3.080
REMARK INTER + INTRA:         -11.284
REMARK INTER:                 -10.381
REMARK INTRA:                  -0.902
REMARK UNBOUND:                -0.911
REMARK  Name = 
REMARK  7 active torsions:
REMARK  status: ('A' for Active; 'I' for Inactive)
REMARK    1  A    between atoms: C_2  and  C_20
REMARK    2  A    between atoms: N_3  and  C_4
REMARK    3  A    between atoms: C_4  and  C_5
REMARK    4  A    between atoms: C_8  and  C_9
REMARK    5  A    between atoms: C_9  and  N_10
REMARK    6  A    between atoms: N_10  and  C_11
REMARK    7  A    between atoms: C_11  and  C_12
REMARK                            x       y       z     vdW  Elec       q    Type
REMARK                         _______ _______ _______ _____ _____    ______ ____
ROOT
ATOM      1  C   UNL     1      47.997   5.414  14.454  0.00  0.00    +0.000 C 
ENDROOT
BRANCH   1   2
ATOM      2  C   UNL     1      46.834   5.165  13.525  0.00  0.00    +0.000 A 
ATOM      3  C   UNL     1      46.222   6.234  12.862  0.00  0.00    +0.000 A 
ATOM      4  C   UNL     1      45.129   6.018  12.018  0.00  0.00    +0.000 A 
ATOM      5  C   UNL     1      44.618   4.727  11.820  0.00  0.00    +0.000 A 
ATOM      6  C   UNL     1      45.214   3.660  12.504  0.00  0.00    +0.000 A 
ATOM      7  C   UNL     1      46.308   3.877  13.353  0.00  0.00    +0.000 A 
BRANCH   5   8
ATOM      8  C   UNL     1      43.431   4.502  10.906  0.00  0.00    +0.000 C 
BRANCH   8   9
ATOM      9  N   UNL     1      43.774   3.609   9.798  0.00  0.00    +0.000 NA
ATOM     10  H   UNL     1      42.913   3.335   9.322  0.00  0.00    +0.000 HD
BRANCH   9  11
ATOM     11  C   UNL     1      44.637   4.288   8.821  0.00  0.00    +0.000 C 
BRANCH  11  12
ATOM     12  C   UNL     1      45.542   3.321   8.075  0.00  0.00    +0.000 A 
ATOM     13  C   UNL     1      45.752   2.033   8.568  0.00  0.00    +0.000 A 
ATOM     14  C   UNL     1      46.592   1.171   7.869  0.00  0.00    +0.000 A 
ATOM     15  C   UNL     1      47.203   1.612   6.704  0.00  0.00    +0.000 A 
ATOM     16  C   UNL     1      46.944   2.906   6.281  0.00  0.00    +0.000 A 
ATOM     17  N   UNL     1      46.131   3.767   6.936  0.00  0.00    +0.000 NA
ENDBRANCH  11  12
ENDBRANCH   9  11
ENDBRANCH   8   9
ENDBRANCH   5   8
ENDBRANCH   1   2
BRANCH   1  20
ATOM     18  O   UNL     1      49.842   6.590  16.229  0.00  0.00    +0.000 OA
ATOM     19  C   UNL     1      48.877   7.247  15.858  0.00  0.00    +0.000 C 
ATOM     20  N   UNL     1      47.966   6.764  14.950  0.00  0.00    +0.000 N 
ATOM     21  H   UNL     1      47.179   7.346  14.682  0.00  0.00    +0.000 HD
BRANCH  19  22
ATOM     22  C   UNL     1      48.582   8.579  16.391  0.00  0.00    +0.000 A 
ATOM     23  C   UNL     1      48.654   9.798  15.742  0.00  0.00    +0.000 A 
ATOM     24 CL   UNL     1      49.150  10.280  14.184  0.00  0.00    +0.000 Cl
ATOM     25  N   UNL     1      48.193  10.791  16.546  0.00  0.00    +0.000 N 
ATOM     26  C   UNL     1      47.817  10.258  17.742  0.00  0.00    +0.000 A 
ATOM     27  N   UNL     1      47.266  10.970  18.741  0.00  0.00    +0.000 NA
ATOM     28  C   UNL     1      46.997  10.220  19.833  0.00  0.00    +0.000 A 
ATOM     29  C   UNL     1      47.279   8.868  19.972  0.00  0.00    +0.000 A 
ATOM     30  C   UNL     1      47.847   8.178  18.899  0.00  0.00    +0.000 A 
ATOM     31  C   UNL     1      48.108   8.895  17.715  0.00  0.00    +0.000 A 
ATOM     32  H   UNL     1      48.111  11.768  16.307  0.00  0.00    +0.000 HD
ENDBRANCH  19  22
ENDBRANCH   1  20
TORSDOF 7
ENDMDL
MODEL 8
REMARK VINA RESULT:    -7.263      4.415      6.675
REMARK INTER + INTRA:         -11.146
REMARK INTER:                 -10.182
REMARK INTRA:                  -0.964
REMARK UNBOUND:                -0.911
REMARK  Name = 
REMARK  7 active torsions:
REMARK  status: ('A' for Active; 'I' for Inactive)
REMARK    1  A    between atoms: C_2  and  C_20
REMARK    2  A    between atoms: N_3  and  C_4
REMARK    3  A    between atoms: C_4  and  C_5
REMARK    4  A    between atoms: C_8  and  C_9
REMARK    5  A    between atoms: C_9  and  N_10
REMARK    6  A    between atoms: N_10  and  C_11
REMARK    7  A    between atoms: C_11  and  C_12
REMARK                            x       y       z     vdW  Elec       q    Type
REMARK                         _______ _______ _______ _____ _____    ______ ____
ROOT
ATOM      1  C   UNL     1      47.971   7.149  13.311  0.00  0.00    +0.000 C 
ENDROOT
BRANCH   1   2
ATOM      2  C   UNL     1      46.838   6.335  12.739  0.00  0.00    +0.000 A 
ATOM      3  C   UNL     1      46.314   5.256  13.460  0.00  0.00    +0.000 A 
ATOM      4  C   UNL     1      45.280   4.479  12.930  0.00  0.00    +0.000 A 
ATOM      5  C   UNL     1      44.747   4.759  11.663  0.00  0.00    +0.000 A 
ATOM      6  C   UNL     1      45.290   5.823  10.930  0.00  0.00    +0.000 A 
ATOM      7  C   UNL     1      46.329   6.600  11.460  0.00  0.00    +0.000 A 
BRANCH   5   8
ATOM      8  C   UNL     1      43.629   3.910  11.094  0.00  0.00    +0.000 C 
BRANCH   8   9
ATOM      9  N   UNL     1      43.872   3.581   9.689  0.00  0.00    +0.000 NA
ATOM     10  H   UNL     1      44.500   4.283   9.293  0.00  0.00    +0.000 HD
BRANCH   9  11
ATOM     11  C   UNL     1      44.520   2.268   9.560  0.00  0.00    +0.000 C 
BRANCH  11  12
ATOM     12  C   UNL     1      45.573   2.246   8.464  0.00  0.00    +0.000 A 
ATOM     13  C   UNL     1      45.795   3.377   7.680  0.00  0.00    +0.000 A 
ATOM     14  C   UNL     1      46.760   3.326   6.678  0.00  0.00    +0.000 A 
ATOM     15  C   UNL     1      47.475   2.152   6.481  0.00  0.00    +0.000 A 
ATOM     16  C   UNL     1      47.194   1.072   7.301  0.00  0.00    +0.000 A 
ATOM     17  N   UNL     1      46.265   1.091   8.285  0.00  0.00    +0.000 NA
ENDBRANCH  11  12
ENDBRANCH   9  11
ENDBRANCH   8   9
ENDBRANCH   5   8
ENDBRANCH   1   2
BRANCH   1  20
ATOM     18  O   UNL     1      49.289   9.587  13.824  0.00  0.00    +0.000 OA
ATOM     19  C   UNL     1      49.059   9.272  12.663  0.00  0.00    +0.000 C 
ATOM     20  N   UNL     1      48.473   8.075  12.330  0.00  0.00    +0.000 N 
ATOM     21  H   UNL     1      48.297   7.866  11.353  0.00  0.00    +0.000 HD
BRANCH  19  22
ATOM     22  C   UNL     1      49.338  10.166  11.537  0.00  0.00    +0.000 A 
ATOM     23  C   UNL     1      48.470  11.027  10.890  0.00  0.00    +0.000 A 
ATOM     24 CL   UNL     1      46.805  11.360  11.040  0.00  0.00    +0.000 Cl
ATOM     25  N   UNL     1      49.136  11.767   9.966  0.00  0.00    +0.000 N 
ATOM     26  C   UNL     1      50.450  11.408   9.972  0.00  0.00    +0.000 A 
ATOM     27  N   UNL     1      51.391  11.992   9.209  0.00  0.00    +0.000 NA
ATOM     28  C   UNL     1      52.617  11.448   9.380  0.00  0.00    +0.000 A 
ATOM     29  C   UNL     1      52.915  10.375  10.209  0.00  0.00    +0.000 A 
ATOM     30  C   UNL     1      51.898   9.811  10.983  0.00  0.00    +0.000 A 
ATOM     31  C   UNL     1      50.607  10.366  10.885  0.00  0.00    +0.000 A 
ATOM     32  H   UNL     1      48.745  12.487   9.378  0.00  0.00    +0.000 HD
ENDBRANCH  19  22
ENDBRANCH   1  20
TORSDOF 7
ENDMDL
MODEL 9
REMARK VINA RESULT:    -7.004      3.925      5.193
REMARK INTER + INTRA:         -10.781
REMARK INTER:                 -10.191
REMARK INTRA:                  -0.590
REMARK UNBOUND:                -0.911
REMARK  Name = 
REMARK  7 active torsions:
REMARK  status: ('A' for Active; 'I' for Inactive)
REMARK    1  A    between atoms: C_2  and  C_20
REMARK    2  A    between atoms: N_3  and  C_4
REMARK    3  A    between atoms: C_4  and  C_5
REMARK    4  A    between atoms: C_8  and  C_9
REMARK    5  A    between atoms: C_9  and  N_10
REMARK    6  A    between atoms: N_10  and  C_11
REMARK    7  A    between atoms: C_11  and  C_12
REMARK                            x       y       z     vdW  Elec       q    Type
REMARK                         _______ _______ _______ _____ _____    ______ ____
ROOT
ATOM      1  C   UNL     1      46.008   8.231  12.776  0.00  0.00    +0.000 C 
ENDROOT
BRANCH   1   2
ATOM      2  C   UNL     1      45.370   6.900  12.467  0.00  0.00    +0.000 A 
ATOM      3  C   UNL     1      45.999   5.711  12.856  0.00  0.00    +0.000 A 
ATOM      4  C   UNL     1      45.429   4.471  12.554  0.00  0.00    +0.000 A 
ATOM      5  C   UNL     1      44.217   4.388  11.852  0.00  0.00    +0.000 A 
ATOM      6  C   UNL     1      43.601   5.577  11.440  0.00  0.00    +0.000 A 
ATOM      7  C   UNL     1      44.174   6.820  11.740  0.00  0.00    +0.000 A 
BRANCH   5   8
ATOM      8  C   UNL     1      43.608   3.040  11.527  0.00  0.00    +0.000 C 
BRANCH   8   9
ATOM      9  N   UNL     1      44.373   2.347  10.489  0.00  0.00    +0.000 NA
ATOM     10  H   UNL     1      43.874   1.494  10.231  0.00  0.00    +0.000 HD
BRANCH   9  11
ATOM     11  C   UNL     1      44.505   3.180   9.286  0.00  0.00    +0.000 C 
BRANCH  11  12
ATOM     12  C   UNL     1      45.539   2.636   8.314  0.00  0.00    +0.000 A 
ATOM     13  C   UNL     1      45.983   3.420   7.250  0.00  0.00    +0.000 A 
ATOM     14  C   UNL     1      46.925   2.893   6.369  0.00  0.00    +0.000 A 
ATOM     15  C   UNL     1      47.395   1.602   6.568  0.00  0.00    +0.000 A 
ATOM     16  C   UNL     1      46.902   0.887   7.648  0.00  0.00    +0.000 A 
ATOM     17  N   UNL     1      45.990   1.372   8.522  0.00  0.00    +0.000 NA
ENDBRANCH  11  12
ENDBRANCH   9  11
ENDBRANCH   8   9
ENDBRANCH   5   8
ENDBRANCH   1   2
BRANCH   1  20
ATOM     18  O   UNL     1      47.939  10.269  13.015  0.00  0.00    +0.000 OA
ATOM     19  C   UNL     1      48.289   9.105  13.155  0.00  0.00    +0.000 C 
ATOM     20  N   UNL     1      47.398   8.060  13.110  0.00  0.00    +0.000 N 
ATOM     21  H   UNL     1      47.740   7.112  13.224  0.00  0.00    +0.000 HD
BRANCH  19  22
ATOM     22  C   UNL     1      49.692   8.721  13.326  0.00  0.00    +0.000 A 
ATOM     23  C   UNL     1      50.239   7.870  14.269  0.00  0.00    +0.000 A 
ATOM     24 CL   UNL     1      49.603   7.011  15.598  0.00  0.00    +0.000 Cl
ATOM     25  N   UNL     1      51.563   7.684  14.029  0.00  0.00    +0.000 N 
ATOM     26  C   UNL     1      51.923   8.412  12.935  0.00  0.00    +0.000 A 
ATOM     27  N   UNL     1      53.157   8.404  12.401  0.00  0.00    +0.000 NA
ATOM     28  C   UNL     1      53.271   9.221  11.330  0.00  0.00    +0.000 A 
ATOM     29  C   UNL     1      52.265  10.033  10.824  0.00  0.00    +0.000 A 
ATOM     30  C   UNL     1      51.000   9.996  11.416  0.00  0.00    +0.000 A 
ATOM     31  C   UNL     1      50.805   9.128  12.508  0.00  0.00    +0.000 A 
ATOM     32  H   UNL     1      52.191   7.090  14.549  0.00  0.00    +0.000 HD
ENDBRANCH  19  22
ENDBRANCH   1  20
TORSDOF 7
ENDMDL
