MODEL 1
REMARK VINA RESULT:    -7.457      0.000      0.000
REMARK INTER + INTRA:         -10.085
REMARK INTER:                  -9.637
REMARK INTRA:                  -0.448
REMARK UNBOUND:                -0.448
REMARK  Name = 
REMARK  5 active torsions:
REMARK  status: ('A' for Active; 'I' for Inactive)
REMARK    1  A    between atoms: C_2  and  C_4
REMARK    2  A    between atoms: C_8  and  S_9
REMARK    3  A    between atoms: S_9  and  C_10
REMARK    4  A    between atoms: C_10  and  C_11
REMARK    5  A    between atoms: C_16  and  N_17
REMARK                            x       y       z     vdW  Elec       q    Type
REMARK                         _______ _______ _______ _____ _____    ______ ____
ROOT
ATOM      1  C   UNL     1      44.490   3.441  12.399  0.00  0.00    +0.000 C 
ENDROOT
BRANCH   1   2
ATOM      2  C   UNL     1      45.063   4.834  12.199  0.00  0.00    +0.000 A 
ATOM      3  C   UNL     1      44.272   5.920  11.799  0.00  0.00    +0.000 A 
ATOM      4  C   UNL     1      44.814   7.194  11.734  0.00  0.00    +0.000 A 
ATOM      5  F   UNL     1      44.048   8.219  11.338  0.00  0.00    +0.000 F 
ATOM      6  C   UNL     1      46.125   7.434  12.118  0.00  0.00    +0.000 A 
ATOM      7  C   UNL     1      46.941   6.394  12.573  0.00  0.00    +0.000 A 
ATOM      8  C   UNL     1      46.405   5.092  12.560  0.00  0.00    +0.000 A 
BRANCH   7   9
ATOM      9  N   UNL     1      48.190   6.642  13.108  0.00  0.00    +0.000 N 
ATOM     10  C   UNL     1      48.411   6.590  14.562  0.00  0.00    +0.000 C 
ATOM     11  C   UNL     1      48.787   7.973  15.101  0.00  0.00    +0.000 C 
ATOM     12  O   UNL     1      49.919   8.512  14.399  0.00  0.00    +0.000 OA
ATOM     13  C   UNL     1      49.614   8.657  13.001  0.00  0.00    +0.000 C 
ATOM     14  C   UNL     1      49.249   7.311  12.340  0.00  0.00    +0.000 C 
ENDBRANCH   7   9
ENDBRANCH   1   2
BRANCH   1  15
ATOM     15  S   UNL     1      43.738   2.728  10.893  0.00  0.00    +0.000 S 
BRANCH  15  20
ATOM     16  C   UNL     1      46.425   2.259   7.913  0.00  0.00    +0.000 A 
ATOM     17  C   UNL     1      46.610   3.541   7.391  0.00  0.00    +0.000 A 
ATOM     18  C   UNL     1      45.925   4.621   7.957  0.00  0.00    +0.000 A 
ATOM     19  C   UNL     1      45.053   4.428   9.038  0.00  0.00    +0.000 A 
ATOM     20  C   UNL     1      44.853   3.149   9.561  0.00  0.00    +0.000 A 
ATOM     21  C   UNL     1      45.551   2.073   8.994  0.00  0.00    +0.000 A 
BRANCH  16  23
ATOM     22  N   UNL     1      46.608  -0.165   7.706  0.00  0.00    +0.000 N 
ATOM     23  C   UNL     1      47.076   1.059   7.325  0.00  0.00    +0.000 C 
ATOM     24  O   UNL     1      47.979   1.157   6.508  0.00  0.00    +0.000 OA
ATOM     25  H   UNL     1      46.996  -0.957   7.208  0.00  0.00    +0.000 HD
ATOM     26  H   UNL     1      45.708  -0.286   8.151  0.00  0.00    +0.000 HD
ENDBRANCH  16  23
ENDBRANCH  15  20
ENDBRANCH   1  15
TORSDOF 5
ENDMDL
MODEL 2
REMARK VINA RESULT:    -7.170      3.377      7.236
REMARK INTER + INTRA:          -9.713
REMARK INTER:                  -8.818
REMARK INTRA:                  -0.895
REMARK UNBOUND:                -0.448
REMARK  Name = 
REMARK  5 active torsions:
REMARK  status: ('A' for Active; 'I' for Inactive)
REMARK    1  A    between atoms: C_2  and  C_4
REMARK    2  A    between atoms: C_8  and  S_9
REMARK    3  A    between atoms: S_9  and  C_10
REMARK    4  A    between atoms: C_10  and  C_11
REMARK    5  A    between atoms: C_16  and  N_17
REMARK                            x       y       z     vdW  Elec       q    Type
REMARK                         _______ _______ _______ _____ _____    ______ ____
ROOT
ATOM      1  C   UNL     1      48.729   6.816  12.864  0.00  0.00    +0.000 C 
ENDROOT
BRANCH   1   2
ATOM      2  C   UNL     1      47.278   7.132  12.543  0.00  0.00    +0.000 A 
ATOM      3  C   UNL     1      46.753   8.427  12.645  0.00  0.00    +0.000 A 
ATOM      4  C   UNL     1      45.454   8.689  12.238  0.00  0.00    +0.000 A 
ATOM      5  F   UNL     1      44.962   9.930  12.353  0.00  0.00    +0.000 F 
ATOM      6  C   UNL     1      44.669   7.697  11.669  0.00  0.00    +0.000 A 
ATOM      7  C   UNL     1      45.163   6.400  11.499  0.00  0.00    +0.000 A 
ATOM      8  C   UNL     1      46.455   6.126  11.987  0.00  0.00    +0.000 A 
BRANCH   7   9
ATOM      9  N   UNL     1      44.454   5.449  10.792  0.00  0.00    +0.000 N 
ATOM     10  C   UNL     1      43.142   4.980  11.266  0.00  0.00    +0.000 C 
ATOM     11  C   UNL     1      43.203   3.497  11.645  0.00  0.00    +0.000 C 
ATOM     12  O   UNL     1      43.701   2.705  10.554  0.00  0.00    +0.000 OA
ATOM     13  C   UNL     1      45.033   3.121  10.206  0.00  0.00    +0.000 C 
ATOM     14  C   UNL     1      45.088   4.601   9.773  0.00  0.00    +0.000 C 
ENDBRANCH   7   9
ENDBRANCH   1   2
BRANCH   1  15
ATOM     15  S   UNL     1      49.418   7.813  14.233  0.00  0.00    +0.000 S 
BRANCH  15  20
ATOM     16  C   UNL     1      47.985   4.935  16.677  0.00  0.00    +0.000 A 
ATOM     17  C   UNL     1      48.012   5.502  17.953  0.00  0.00    +0.000 A 
ATOM     18  C   UNL     1      48.456   6.817  18.114  0.00  0.00    +0.000 A 
ATOM     19  C   UNL     1      48.877   7.570  17.010  0.00  0.00    +0.000 A 
ATOM     20  C   UNL     1      48.863   7.011  15.730  0.00  0.00    +0.000 A 
ATOM     21  C   UNL     1      48.408   5.693  15.576  0.00  0.00    +0.000 A 
BRANCH  16  23
ATOM     22  N   UNL     1      46.954   2.867  17.461  0.00  0.00    +0.000 N 
ATOM     23  C   UNL     1      47.579   3.525  16.441  0.00  0.00    +0.000 C 
ATOM     24  O   UNL     1      47.769   2.975  15.367  0.00  0.00    +0.000 OA
ATOM     25  H   UNL     1      46.594   1.948  17.235  0.00  0.00    +0.000 HD
ATOM     26  H   UNL     1      46.539   3.354  18.245  0.00  0.00    +0.000 HD
ENDBRANCH  16  23
ENDBRANCH  15  20
ENDBRANCH   1  15
TORSDOF 5
ENDMDL
MODEL 3
REMARK VINA RESULT:    -6.409      3.977      7.522
REMARK INTER + INTRA:          -8.731
REMARK INTER:                  -7.973
REMARK INTRA:                  -0.758
REMARK UNBOUND:                -0.448
REMARK  Name = 
REMARK  5 active torsions:
REMARK  status: ('A' for Active; 'I' for Inactive)
REMARK    1  A    between atoms: C_2  and  C_4
REMARK    2  A    between atoms: C_8  and  S_9
REMARK    3  A    between atoms: S_9  and  C_10
REMARK    4  A    between atoms: C_10  and  C_11
REMARK    5  A    between atoms: C_16  and  N_17
REMARK                            x       y       z     vdW  Elec       q    Type
REMARK                         _______ _______ _______ _____ _____    ______ ____
ROOT
ATOM      1  C   UNL     1      49.007   6.794  14.268  0.00  0.00    +0.000 C 
ENDROOT
BRANCH   1   2
ATOM      2  C   UNL     1      47.626   7.167  13.757  0.00  0.00    +0.000 A 
ATOM      3  C   UNL     1      47.310   8.465  13.330  0.00  0.00    +0.000 A 
ATOM      4  C   UNL     1      46.070   8.734  12.771  0.00  0.00    +0.000 A 
ATOM      5  F   UNL     1      45.779   9.982  12.379  0.00  0.00    +0.000 F 
ATOM      6  C   UNL     1      45.142   7.724  12.568  0.00  0.00    +0.000 A 
ATOM      7  C   UNL     1      45.427   6.404  12.931  0.00  0.00    +0.000 A 
ATOM      8  C   UNL     1      46.657   6.155  13.569  0.00  0.00    +0.000 A 
BRANCH   7   9
ATOM      9  N   UNL     1      44.582   5.367  12.591  0.00  0.00    +0.000 N 
ATOM     10  C   UNL     1      45.026   3.967  12.694  0.00  0.00    +0.000 C 
ATOM     11  C   UNL     1      45.083   3.316  11.309  0.00  0.00    +0.000 C 
ATOM     12  O   UNL     1      43.823   3.435  10.629  0.00  0.00    +0.000 OA
ATOM     13  C   UNL     1      43.488   4.822  10.444  0.00  0.00    +0.000 C 
ATOM     14  C   UNL     1      43.371   5.578  11.784  0.00  0.00    +0.000 C 
ENDBRANCH   7   9
ENDBRANCH   1   2
BRANCH   1  15
ATOM     15  S   UNL     1      49.355   7.385  15.963  0.00  0.00    +0.000 S 
BRANCH  15  20
ATOM     16  C   UNL     1      49.161   3.634  17.448  0.00  0.00    +0.000 A 
ATOM     17  C   UNL     1      48.406   3.750  18.617  0.00  0.00    +0.000 A 
ATOM     18  C   UNL     1      47.899   4.998  18.990  0.00  0.00    +0.000 A 
ATOM     19  C   UNL     1      48.143   6.133  18.205  0.00  0.00    +0.000 A 
ATOM     20  C   UNL     1      48.905   6.032  17.039  0.00  0.00    +0.000 A 
ATOM     21  C   UNL     1      49.403   4.773  16.667  0.00  0.00    +0.000 A 
BRANCH  16  23
ATOM     22  N   UNL     1      50.808   1.864  17.775  0.00  0.00    +0.000 N 
ATOM     23  C   UNL     1      49.777   2.351  17.023  0.00  0.00    +0.000 C 
ATOM     24  O   UNL     1      49.365   1.732  16.053  0.00  0.00    +0.000 OA
ATOM     25  H   UNL     1      51.134   0.938  17.526  0.00  0.00    +0.000 HD
ATOM     26  H   UNL     1      50.992   2.190  18.715  0.00  0.00    +0.000 HD
ENDBRANCH  16  23
ENDBRANCH  15  20
ENDBRANCH   1  15
TORSDOF 5
ENDMDL
MODEL 4
REMARK VINA RESULT:    -6.283      4.572      6.427
REMARK INTER + INTRA:          -8.568
REMARK INTER:                  -7.550
REMARK INTRA:                  -1.018
REMARK UNBOUND:                -0.448
REMARK  Name = 
REMARK  5 active torsions:
REMARK  status: ('A' for Active; 'I' for Inactive)
REMARK    1  A    between atoms: C_2  and  C_4
REMARK    2  A    between atoms: C_8  and  S_9
REMARK    3  A    between atoms: S_9  and  C_10
REMARK    4  A    between atoms: C_10  and  C_11
REMARK    5  A    between atoms: C_16  and  N_17
REMARK                            x       y       z     vdW  Elec       q    Type
REMARK                         _______ _______ _______ _____ _____    ______ ____
ROOT
ATOM      1  C   UNL     1      49.135   8.687  14.755  0.00  0.00    +0.000 C 
ENDROOT
BRANCH   1   2
ATOM      2  C   UNL     1      48.780   8.282  16.175  0.00  0.00    +0.000 A 
ATOM      3  C   UNL     1      48.216   9.181  17.092  0.00  0.00    +0.000 A 
ATOM      4  C   UNL     1      47.808   8.741  18.342  0.00  0.00    +0.000 A 
ATOM      5  F   UNL     1      47.282   9.614  19.211  0.00  0.00    +0.000 F 
ATOM      6  C   UNL     1      47.893   7.401  18.692  0.00  0.00    +0.000 A 
ATOM      7  C   UNL     1      48.401   6.456  17.795  0.00  0.00    +0.000 A 
ATOM      8  C   UNL     1      48.885   6.925  16.559  0.00  0.00    +0.000 A 
BRANCH   7   9
ATOM      9  N   UNL     1      48.343   5.104  18.067  0.00  0.00    +0.000 N 
ATOM     10  C   UNL     1      49.516   4.390  18.598  0.00  0.00    +0.000 C 
ATOM     11  C   UNL     1      50.019   3.353  17.590  0.00  0.00    +0.000 C 
ATOM     12  O   UNL     1      48.966   2.454  17.204  0.00  0.00    +0.000 OA
ATOM     13  C   UNL     1      47.894   3.183  16.581  0.00  0.00    +0.000 C 
ATOM     14  C   UNL     1      47.284   4.243  17.523  0.00  0.00    +0.000 C 
ENDBRANCH   7   9
ENDBRANCH   1   2
BRANCH   1  15
ATOM     15  S   UNL     1      49.146   7.294  13.569  0.00  0.00    +0.000 S 
BRANCH  15  20
ATOM     16  C   UNL     1      45.668   5.364  12.873  0.00  0.00    +0.000 A 
ATOM     17  C   UNL     1      44.756   6.372  12.548  0.00  0.00    +0.000 A 
ATOM     18  C   UNL     1      45.185   7.702  12.507  0.00  0.00    +0.000 A 
ATOM     19  C   UNL     1      46.517   8.033  12.791  0.00  0.00    +0.000 A 
ATOM     20  C   UNL     1      47.435   7.035  13.126  0.00  0.00    +0.000 A 
ATOM     21  C   UNL     1      46.998   5.702  13.157  0.00  0.00    +0.000 A 
BRANCH  16  23
ATOM     22  N   UNL     1      43.932   3.654  12.995  0.00  0.00    +0.000 N 
ATOM     23  C   UNL     1      45.267   3.938  12.991  0.00  0.00    +0.000 C 
ATOM     24  O   UNL     1      46.096   3.043  13.055  0.00  0.00    +0.000 OA
ATOM     25  H   UNL     1      43.692   2.670  12.966  0.00  0.00    +0.000 HD
ATOM     26  H   UNL     1      43.237   4.316  12.673  0.00  0.00    +0.000 HD
ENDBRANCH  16  23
ENDBRANCH  15  20
ENDBRANCH   1  15
TORSDOF 5
ENDMDL
MODEL 5
REMARK VINA RESULT:    -6.271      4.595      6.435
REMARK INTER + INTRA:          -8.552
REMARK INTER:                  -7.549
REMARK INTRA:                  -1.003
REMARK UNBOUND:                -0.448
REMARK  Name = 
REMARK  5 active torsions:
REMARK  status: ('A' for Active; 'I' for Inactive)
REMARK    1  A    between atoms: C_2  and  C_4
REMARK    2  A    between atoms: C_8  and  S_9
REMARK    3  A    between atoms: S_9  and  C_10
REMARK    4  A    between atoms: C_10  and  C_11
REMARK    5  A    between atoms: C_16  and  N_17
REMARK                            x       y       z     vdW  Elec       q    Type
REMARK                         _______ _______ _______ _____ _____    ______ ____
ROOT
ATOM      1  C   UNL     1      49.179   8.698  13.841  0.00  0.00    +0.000 C 
ENDROOT
BRANCH   1   2
ATOM      2  C   UNL     1      50.004   7.772  14.719  0.00  0.00    +0.000 A 
ATOM      3  C   UNL     1      51.388   7.924  14.877  0.00  0.00    +0.000 A 
ATOM      4  C   UNL     1      52.082   7.124  15.771  0.00  0.00    +0.000 A 
ATOM      5  F   UNL     1      53.407   7.274  15.902  0.00  0.00    +0.000 F 
ATOM      6  C   UNL     1      51.421   6.202  16.568  0.00  0.00    +0.000 A 
ATOM      7  C   UNL     1      50.034   6.045  16.485  0.00  0.00    +0.000 A 
ATOM      8  C   UNL     1      49.349   6.807  15.519  0.00  0.00    +0.000 A 
BRANCH   7   9
ATOM      9  N   UNL     1      49.345   5.251  17.380  0.00  0.00    +0.000 N 
ATOM     10  C   UNL     1      49.913   3.975  17.847  0.00  0.00    +0.000 C 
ATOM     11  C   UNL     1      49.057   2.797  17.372  0.00  0.00    +0.000 C 
ATOM     12  O   UNL     1      47.687   2.959  17.771  0.00  0.00    +0.000 OA
ATOM     13  C   UNL     1      47.139   4.157  17.192  0.00  0.00    +0.000 C 
ATOM     14  C   UNL     1      47.908   5.421  17.630  0.00  0.00    +0.000 C 
ENDBRANCH   7   9
ENDBRANCH   1   2
BRANCH   1  15
ATOM     15  S   UNL     1      48.802   8.011  12.189  0.00  0.00    +0.000 S 
BRANCH  15  20
ATOM     16  C   UNL     1      46.117   5.058  12.810  0.00  0.00    +0.000 A 
ATOM     17  C   UNL     1      44.872   5.689  12.762  0.00  0.00    +0.000 A 
ATOM     18  C   UNL     1      44.805   7.062  12.511  0.00  0.00    +0.000 A 
ATOM     19  C   UNL     1      45.972   7.811  12.309  0.00  0.00    +0.000 A 
ATOM     20  C   UNL     1      47.223   7.193  12.365  0.00  0.00    +0.000 A 
ATOM     21  C   UNL     1      47.281   5.812  12.609  0.00  0.00    +0.000 A 
BRANCH  16  23
ATOM     22  N   UNL     1      45.384   2.745  12.553  0.00  0.00    +0.000 N 
ATOM     23  C   UNL     1      46.265   3.614  13.129  0.00  0.00    +0.000 C 
ATOM     24  O   UNL     1      47.157   3.208  13.858  0.00  0.00    +0.000 OA
ATOM     25  H   UNL     1      45.577   1.762  12.701  0.00  0.00    +0.000 HD
ATOM     26  H   UNL     1      44.823   2.997  11.749  0.00  0.00    +0.000 HD
ENDBRANCH  16  23
ENDBRANCH  15  20
ENDBRANCH   1  15
TORSDOF 5
ENDMDL
MODEL 6
REMARK VINA RESULT:    -6.211      3.296      4.918
REMARK INTER + INTRA:          -8.474
REMARK INTER:                  -7.879
REMARK INTRA:                  -0.595
REMARK UNBOUND:                -0.448
REMARK  Name = 
REMARK  5 active torsions:
REMARK  status: ('A' for Active; 'I' for Inactive)
REMARK    1  A    between atoms: C_2  and  C_4
REMARK    2  A    between atoms: C_8  and  S_9
REMARK    3  A    between atoms: S_9  and  C_10
REMARK    4  A    between atoms: C_10  and  C_11
REMARK    5  A    between atoms: C_16  and  N_17
REMARK                            x       y       z     vdW  Elec       q    Type
REMARK                         _______ _______ _______ _____ _____    ______ ____
ROOT
ATOM      1  C   UNL     1      47.557   6.525  12.665  0.00  0.00    +0.000 C 
ENDROOT
BRANCH   1   2
ATOM      2  C   UNL     1      48.096   6.987  14.008  0.00  0.00    +0.000 A 
ATOM      3  C   UNL     1      48.249   8.344  14.327  0.00  0.00    +0.000 A 
ATOM      4  C   UNL     1      48.643   8.722  15.601  0.00  0.00    +0.000 A 
ATOM      5  F   UNL     1      48.796  10.022  15.887  0.00  0.00    +0.000 F 
ATOM      6  C   UNL     1      48.835   7.779  16.600  0.00  0.00    +0.000 A 
ATOM      7  C   UNL     1      48.647   6.417  16.347  0.00  0.00    +0.000 A 
ATOM      8  C   UNL     1      48.324   6.038  15.030  0.00  0.00    +0.000 A 
BRANCH   7   9
ATOM      9  N   UNL     1      48.678   5.486  17.366  0.00  0.00    +0.000 N 
ATOM     10  C   UNL     1      49.944   4.851  17.768  0.00  0.00    +0.000 C 
ATOM     11  C   UNL     1      49.911   3.348  17.475  0.00  0.00    +0.000 C 
ATOM     12  O   UNL     1      48.772   2.726  18.092  0.00  0.00    +0.000 OA
ATOM     13  C   UNL     1      47.555   3.297  17.578  0.00  0.00    +0.000 C 
ATOM     14  C   UNL     1      47.463   4.813  17.846  0.00  0.00    +0.000 C 
ENDBRANCH   7   9
ENDBRANCH   1   2
BRANCH   1  15
ATOM     15  S   UNL     1      45.873   7.134  12.294  0.00  0.00    +0.000 S 
BRANCH  15  20
ATOM     16  C   UNL     1      44.431   3.836  10.463  0.00  0.00    +0.000 A 
ATOM     17  C   UNL     1      43.522   3.289  11.372  0.00  0.00    +0.000 A 
ATOM     18  C   UNL     1      43.295   3.933  12.591  0.00  0.00    +0.000 A 
ATOM     19  C   UNL     1      43.971   5.118  12.911  0.00  0.00    +0.000 A 
ATOM     20  C   UNL     1      44.890   5.669  12.015  0.00  0.00    +0.000 A 
ATOM     21  C   UNL     1      45.105   5.020  10.789  0.00  0.00    +0.000 A 
BRANCH  16  23
ATOM     22  N   UNL     1      45.296   1.918   9.227  0.00  0.00    +0.000 N 
ATOM     23  C   UNL     1      44.763   3.174   9.174  0.00  0.00    +0.000 C 
ATOM     24  O   UNL     1      44.543   3.714   8.101  0.00  0.00    +0.000 OA
ATOM     25  H   UNL     1      45.409   1.452   8.335  0.00  0.00    +0.000 HD
ATOM     26  H   UNL     1      45.237   1.339  10.055  0.00  0.00    +0.000 HD
ENDBRANCH  16  23
ENDBRANCH  15  20
ENDBRANCH   1  15
TORSDOF 5
ENDMDL
MODEL 7
REMARK VINA RESULT:    -6.032      4.013      7.522
REMARK INTER + INTRA:          -8.243
REMARK INTER:                  -7.425
REMARK INTRA:                  -0.818
REMARK UNBOUND:                -0.448
REMARK  Name = 
REMARK  5 active torsions:
REMARK  status: ('A' for Active; 'I' for Inactive)
REMARK    1  A    between atoms: C_2  and  C_4
REMARK    2  A    between atoms: C_8  and  S_9
REMARK    3  A    between atoms: S_9  and  C_10
REMARK    4  A    between atoms: C_10  and  C_11
REMARK    5  A    between atoms: C_16  and  N_17
REMARK                            x       y       z     vdW  Elec       q    Type
REMARK                         _______ _______ _______ _____ _____    ______ ____
ROOT
ATOM      1  C   UNL     1      48.266   7.985  13.779  0.00  0.00    +0.000 C 
ENDROOT
BRANCH   1   2
ATOM      2  C   UNL     1      47.704   6.590  13.992  0.00  0.00    +0.000 A 
ATOM      3  C   UNL     1      48.078   5.789  15.080  0.00  0.00    +0.000 A 
ATOM      4  C   UNL     1      47.460   4.567  15.294  0.00  0.00    +0.000 A 
ATOM      5  F   UNL     1      47.836   3.807  16.332  0.00  0.00    +0.000 F 
ATOM      6  C   UNL     1      46.424   4.136  14.478  0.00  0.00    +0.000 A 
ATOM      7  C   UNL     1      45.980   4.920  13.408  0.00  0.00    +0.000 A 
ATOM      8  C   UNL     1      46.666   6.123  13.153  0.00  0.00    +0.000 A 
BRANCH   7   9
ATOM      9  N   UNL     1      44.851   4.581  12.689  0.00  0.00    +0.000 N 
ATOM     10  C   UNL     1      44.944   3.712  11.505  0.00  0.00    +0.000 C 
ATOM     11  C   UNL     1      44.545   4.478  10.240  0.00  0.00    +0.000 C 
ATOM     12  O   UNL     1      43.241   5.065  10.381  0.00  0.00    +0.000 OA
ATOM     13  C   UNL     1      43.232   5.998  11.477  0.00  0.00    +0.000 C 
ATOM     14  C   UNL     1      43.591   5.326  12.818  0.00  0.00    +0.000 C 
ENDBRANCH   7   9
ENDBRANCH   1   2
BRANCH   1  15
ATOM     15  S   UNL     1      48.985   8.249  12.119  0.00  0.00    +0.000 S 
BRANCH  15  20
ATOM     16  C   UNL     1      46.212  11.102  11.420  0.00  0.00    +0.000 A 
ATOM     17  C   UNL     1      46.905  12.123  10.766  0.00  0.00    +0.000 A 
ATOM     18  C   UNL     1      48.266  11.965  10.488  0.00  0.00    +0.000 A 
ATOM     19  C   UNL     1      48.941  10.795  10.862  0.00  0.00    +0.000 A 
ATOM     20  C   UNL     1      48.261   9.771  11.526  0.00  0.00    +0.000 A 
ATOM     21  C   UNL     1      46.893   9.935  11.792  0.00  0.00    +0.000 A 
BRANCH  16  23
ATOM     22  N   UNL     1      44.145  10.108  12.252  0.00  0.00    +0.000 N 
ATOM     23  C   UNL     1      44.780  11.227  11.796  0.00  0.00    +0.000 C 
ATOM     24  O   UNL     1      44.192  12.296  11.731  0.00  0.00    +0.000 OA
ATOM     25  H   UNL     1      43.206  10.248  12.603  0.00  0.00    +0.000 HD
ATOM     26  H   UNL     1      44.651   9.293  12.577  0.00  0.00    +0.000 HD
ENDBRANCH  16  23
ENDBRANCH  15  20
ENDBRANCH   1  15
TORSDOF 5
ENDMDL
MODEL 8
REMARK VINA RESULT:    -5.990      3.398      8.493
REMARK INTER + INTRA:          -8.189
REMARK INTER:                  -7.369
REMARK INTRA:                  -0.819
REMARK UNBOUND:                -0.448
REMARK  Name = 
REMARK  5 active torsions:
REMARK  status: ('A' for Active; 'I' for Inactive)
REMARK    1  A    between atoms: C_2  and  C_4
REMARK    2  A    between atoms: C_8  and  S_9
REMARK    3  A    between atoms: S_9  and  C_10
REMARK    4  A    between atoms: C_10  and  C_11
REMARK    5  A    between atoms: C_16  and  N_17
REMARK                            x       y       z     vdW  Elec       q    Type
REMARK                         _______ _______ _______ _____ _____    ______ ____
ROOT
ATOM      1  C   UNL     1      48.776   6.762  12.862  0.00  0.00    +0.000 C 
ENDROOT
BRANCH   1   2
ATOM      2  C   UNL     1      47.323   7.093  12.567  0.00  0.00    +0.000 A 
ATOM      3  C   UNL     1      46.807   8.390  12.703  0.00  0.00    +0.000 A 
ATOM      4  C   UNL     1      45.504   8.667  12.321  0.00  0.00    +0.000 A 
ATOM      5  F   UNL     1      45.022   9.909  12.468  0.00  0.00    +0.000 F 
ATOM      6  C   UNL     1      44.704   7.692  11.743  0.00  0.00    +0.000 A 
ATOM      7  C   UNL     1      45.188   6.396  11.540  0.00  0.00    +0.000 A 
ATOM      8  C   UNL     1      46.485   6.104  12.003  0.00  0.00    +0.000 A 
BRANCH   7   9
ATOM      9  N   UNL     1      44.464   5.463  10.824  0.00  0.00    +0.000 N 
ATOM     10  C   UNL     1      43.132   5.031  11.279  0.00  0.00    +0.000 C 
ATOM     11  C   UNL     1      43.147   3.548  11.661  0.00  0.00    +0.000 C 
ATOM     12  O   UNL     1      43.638   2.741  10.579  0.00  0.00    +0.000 OA
ATOM     13  C   UNL     1      44.986   3.119  10.249  0.00  0.00    +0.000 C 
ATOM     14  C   UNL     1      45.088   4.596   9.815  0.00  0.00    +0.000 C 
ENDBRANCH   7   9
ENDBRANCH   1   2
BRANCH   1  15
ATOM     15  S   UNL     1      49.622   8.004  13.904  0.00  0.00    +0.000 S 
BRANCH  15  20
ATOM     16  C   UNL     1      48.102   8.651  17.590  0.00  0.00    +0.000 A 
ATOM     17  C   UNL     1      48.085   7.393  18.197  0.00  0.00    +0.000 A 
ATOM     18  C   UNL     1      48.568   6.283  17.498  0.00  0.00    +0.000 A 
ATOM     19  C   UNL     1      49.065   6.420  16.194  0.00  0.00    +0.000 A 
ATOM     20  C   UNL     1      49.078   7.671  15.573  0.00  0.00    +0.000 A 
ATOM     21  C   UNL     1      48.600   8.781  16.286  0.00  0.00    +0.000 A 
BRANCH  16  23
ATOM     22  N   UNL     1      47.767  11.066  17.650  0.00  0.00    +0.000 N 
ATOM     23  C   UNL     1      47.552   9.861  18.254  0.00  0.00    +0.000 C 
ATOM     24  O   UNL     1      46.906   9.787  19.287  0.00  0.00    +0.000 OA
ATOM     25  H   UNL     1      47.289  11.857  18.065  0.00  0.00    +0.000 HD
ATOM     26  H   UNL     1      48.046  11.144  16.680  0.00  0.00    +0.000 HD
ENDBRANCH  16  23
ENDBRANCH  15  20
ENDBRANCH   1  15
TORSDOF 5
ENDMDL
MODEL 9
REMARK VINA RESULT:    -5.794      4.804      6.499
REMARK INTER + INTRA:          -7.936
REMARK INTER:                  -7.327
REMARK INTRA:                  -0.608
REMARK UNBOUND:                -0.448
REMARK  Name = 
REMARK  5 active torsions:
REMARK  status: ('A' for Active; 'I' for Inactive)
REMARK    1  A    between atoms: C_2  and  C_4
REMARK    2  A    between atoms: C_8  and  S_9
REMARK    3  A    between atoms: S_9  and  C_10
REMARK    4  A    between atoms: C_10  and  C_11
REMARK    5  A    between atoms: C_16  and  N_17
REMARK                            x       y       z     vdW  Elec       q    Type
REMARK                         _______ _______ _______ _____ _____    ______ ____
ROOT
ATOM      1  C   UNL     1      47.057   4.108  16.020  0.00  0.00    +0.000 C 
ENDROOT
BRANCH   1   2
ATOM      2  C   UNL     1      48.404   3.877  16.683  0.00  0.00    +0.000 A 
ATOM      3  C   UNL     1      48.934   2.593  16.876  0.00  0.00    +0.000 A 
ATOM      4  C   UNL     1      50.213   2.434  17.386  0.00  0.00    +0.000 A 
ATOM      5  F   UNL     1      50.701   1.201  17.576  0.00  0.00    +0.000 F 
ATOM      6  C   UNL     1      51.016   3.532  17.660  0.00  0.00    +0.000 A 
ATOM      7  C   UNL     1      50.553   4.832  17.438  0.00  0.00    +0.000 A 
ATOM      8  C   UNL     1      49.225   4.985  16.994  0.00  0.00    +0.000 A 
BRANCH   7   9
ATOM      9  N   UNL     1      51.391   5.923  17.554  0.00  0.00    +0.000 N 
ATOM     10  C   UNL     1      51.193   7.118  16.718  0.00  0.00    +0.000 C 
ATOM     11  C   UNL     1      52.378   7.316  15.768  0.00  0.00    +0.000 C 
ATOM     12  O   UNL     1      53.619   7.360  16.491  0.00  0.00    +0.000 OA
ATOM     13  C   UNL     1      53.827   6.123  17.197  0.00  0.00    +0.000 C 
ATOM     14  C   UNL     1      52.702   5.834  18.212  0.00  0.00    +0.000 C 
ENDBRANCH   7   9
ENDBRANCH   1   2
BRANCH   1  15
ATOM     15  S   UNL     1      46.999   3.602  14.264  0.00  0.00    +0.000 S 
BRANCH  15  20
ATOM     16  C   UNL     1      44.715   6.047  12.002  0.00  0.00    +0.000 A 
ATOM     17  C   UNL     1      45.420   7.252  11.951  0.00  0.00    +0.000 A 
ATOM     18  C   UNL     1      46.654   7.356  12.600  0.00  0.00    +0.000 A 
ATOM     19  C   UNL     1      47.188   6.267  13.301  0.00  0.00    +0.000 A 
ATOM     20  C   UNL     1      46.487   5.060  13.367  0.00  0.00    +0.000 A 
ATOM     21  C   UNL     1      45.254   4.961  12.706  0.00  0.00    +0.000 A 
BRANCH  16  23
ATOM     22  N   UNL     1      42.629   7.011  11.182  0.00  0.00    +0.000 N 
ATOM     23  C   UNL     1      43.373   5.885  11.385  0.00  0.00    +0.000 C 
ATOM     24  O   UNL     1      42.954   4.789  11.043  0.00  0.00    +0.000 OA
ATOM     25  H   UNL     1      41.770   6.882  10.662  0.00  0.00    +0.000 HD
ATOM     26  H   UNL     1      43.036   7.938  11.192  0.00  0.00    +0.000 HD
ENDBRANCH  16  23
ENDBRANCH  15  20
ENDBRANCH   1  15
TORSDOF 5
ENDMDL
