MODEL 1
REMARK VINA RESULT:    -7.179      0.000      0.000
REMARK INTER + INTRA:          -9.598
REMARK INTER:                  -9.277
REMARK INTRA:                  -0.321
REMARK UNBOUND:                -0.321
REMARK  Name = 
REMARK  6 active torsions:
REMARK  status: ('A' for Active; 'I' for Inactive)
REMARK    1  A    between atoms: C_1  and  O_2
REMARK    2  A    between atoms: O_2  and  C_3
REMARK    3  A    between atoms: C_7  and  C_8
REMARK    4  A    between atoms: C_9  and  O_10
REMARK    5  A    between atoms: O_10  and  C_11
REMARK    6  A    between atoms: C_14  and  C_15
REMARK                            x       y       z     vdW  Elec       q    Type
REMARK                         _______ _______ _______ _____ _____    ______ ____
ROOT
ATOM      1  O   UNL     1      43.895   4.535  10.231  0.00  0.00    +0.000 OA
ENDROOT
BRANCH   1   2
ATOM      2  C   UNL     1      44.741   3.828   9.421  0.00  0.00    +0.000 A 
ATOM      3  C   UNL     1      44.913   2.456   9.442  0.00  0.00    +0.000 A 
ATOM      4  N   UNL     1      45.747   1.785   8.619  0.00  0.00    +0.000 NA
ATOM      5  C   UNL     1      46.411   2.548   7.718  0.00  0.00    +0.000 A 
ATOM      6  N   UNL     1      46.297   3.885   7.583  0.00  0.00    +0.000 NA
ATOM      7  C   UNL     1      45.451   4.493   8.444  0.00  0.00    +0.000 A 
BRANCH   5   8
ATOM      8  C   UNL     1      47.367   1.820   6.797  0.00  0.00    +0.000 C 
ATOM      9  N   UNL     1      48.460   2.543   6.379  0.00  0.00    +0.000 N 
ATOM     10  O   UNL     1      47.210   0.664   6.423  0.00  0.00    +0.000 OA
ATOM     11  H   UNL     1      48.591   3.500   6.688  0.00  0.00    +0.000 HD
ATOM     12  H   UNL     1      49.126   2.106   5.760  0.00  0.00    +0.000 HD
ENDBRANCH   5   8
ENDBRANCH   1   2
BRANCH   1  14
ATOM     13  C   UNL     1      45.501   5.277  11.829  0.00  0.00    +0.000 C 
ATOM     14  C   UNL     1      44.444   5.505  11.038  0.00  0.00    +0.000 C 
BRANCH  13  19
ATOM     15  C   UNL     1      48.047   7.029  14.000  0.00  0.00    +0.000 A 
ATOM     16  C   UNL     1      47.580   8.344  13.978  0.00  0.00    +0.000 A 
ATOM     17  C   UNL     1      46.401   8.655  13.297  0.00  0.00    +0.000 A 
ATOM     18  C   UNL     1      45.697   7.659  12.620  0.00  0.00    +0.000 A 
ATOM     19  C   UNL     1      46.167   6.340  12.600  0.00  0.00    +0.000 A 
ATOM     20  C   UNL     1      47.329   6.034  13.325  0.00  0.00    +0.000 A 
BRANCH  15  22
ATOM     21  C   UNL     1      49.156   6.531  16.044  0.00  0.00    +0.000 C 
ATOM     22  O   UNL     1      49.187   6.600  14.621  0.00  0.00    +0.000 OA
ENDBRANCH  15  22
ENDBRANCH  13  19
ENDBRANCH   1  14
TORSDOF 5
ENDMDL
MODEL 2
REMARK VINA RESULT:    -6.741      1.689      2.093
REMARK INTER + INTRA:          -9.033
REMARK INTER:                  -8.736
REMARK INTRA:                  -0.297
REMARK UNBOUND:                -0.321
REMARK  Name = 
REMARK  6 active torsions:
REMARK  status: ('A' for Active; 'I' for Inactive)
REMARK    1  A    between atoms: C_1  and  O_2
REMARK    2  A    between atoms: O_2  and  C_3
REMARK    3  A    between atoms: C_7  and  C_8
REMARK    4  A    between atoms: C_9  and  O_10
REMARK    5  A    between atoms: O_10  and  C_11
REMARK    6  A    between atoms: C_14  and  C_15
REMARK                            x       y       z     vdW  Elec       q    Type
REMARK                         _______ _______ _______ _____ _____    ______ ____
ROOT
ATOM      1  O   UNL     1      44.313   4.510  10.792  0.00  0.00    +0.000 OA
ENDROOT
BRANCH   1   2
ATOM      2  C   UNL     1      44.970   3.910   9.754  0.00  0.00    +0.000 A 
ATOM      3  C   UNL     1      45.093   2.545   9.563  0.00  0.00    +0.000 A 
ATOM      4  N   UNL     1      45.737   1.981   8.519  0.00  0.00    +0.000 NA
ATOM      5  C   UNL     1      46.252   2.851   7.617  0.00  0.00    +0.000 A 
ATOM      6  N   UNL     1      46.164   4.195   7.681  0.00  0.00    +0.000 NA
ATOM      7  C   UNL     1      45.513   4.691   8.756  0.00  0.00    +0.000 A 
BRANCH   5   8
ATOM      8  C   UNL     1      46.996   2.242   6.447  0.00  0.00    +0.000 C 
ATOM      9  N   UNL     1      47.191   3.073   5.367  0.00  0.00    +0.000 N 
ATOM     10  O   UNL     1      47.409   1.089   6.424  0.00  0.00    +0.000 OA
ATOM     11  H   UNL     1      46.850   4.027   5.386  0.00  0.00    +0.000 HD
ATOM     12  H   UNL     1      47.677   2.714   4.559  0.00  0.00    +0.000 HD
ENDBRANCH   5   8
ENDBRANCH   1   2
BRANCH   1  14
ATOM     13  C   UNL     1      46.179   5.138  12.138  0.00  0.00    +0.000 C 
ATOM     14  C   UNL     1      44.965   4.587  12.002  0.00  0.00    +0.000 C 
BRANCH  13  19
ATOM     15  C   UNL     1      47.281   4.478  15.690  0.00  0.00    +0.000 A 
ATOM     16  C   UNL     1      48.141   5.552  15.923  0.00  0.00    +0.000 A 
ATOM     17  C   UNL     1      48.324   6.527  14.939  0.00  0.00    +0.000 A 
ATOM     18  C   UNL     1      47.665   6.421  13.713  0.00  0.00    +0.000 A 
ATOM     19  C   UNL     1      46.826   5.332  13.446  0.00  0.00    +0.000 A 
ATOM     20  C   UNL     1      46.617   4.384  14.460  0.00  0.00    +0.000 A 
BRANCH  15  22
ATOM     21  C   UNL     1      48.152   2.848  17.185  0.00  0.00    +0.000 C 
ATOM     22  O   UNL     1      47.025   3.460  16.564  0.00  0.00    +0.000 OA
ENDBRANCH  15  22
ENDBRANCH  13  19
ENDBRANCH   1  14
TORSDOF 5
ENDMDL
MODEL 3
REMARK VINA RESULT:    -6.609      1.913      3.010
REMARK INTER + INTRA:          -8.862
REMARK INTER:                  -8.708
REMARK INTRA:                  -0.153
REMARK UNBOUND:                -0.321
REMARK  Name = 
REMARK  6 active torsions:
REMARK  status: ('A' for Active; 'I' for Inactive)
REMARK    1  A    between atoms: C_1  and  O_2
REMARK    2  A    between atoms: O_2  and  C_3
REMARK    3  A    between atoms: C_7  and  C_8
REMARK    4  A    between atoms: C_9  and  O_10
REMARK    5  A    between atoms: O_10  and  C_11
REMARK    6  A    between atoms: C_14  and  C_15
REMARK                            x       y       z     vdW  Elec       q    Type
REMARK                         _______ _______ _______ _____ _____    ______ ____
ROOT
ATOM      1  O   UNL     1      43.590   4.147  10.220  0.00  0.00    +0.000 OA
ENDROOT
BRANCH   1   2
ATOM      2  C   UNL     1      44.505   3.597   9.365  0.00  0.00    +0.000 A 
ATOM      3  C   UNL     1      45.179   4.276   8.365  0.00  0.00    +0.000 A 
ATOM      4  N   UNL     1      46.089   3.709   7.545  0.00  0.00    +0.000 NA
ATOM      5  C   UNL     1      46.339   2.398   7.776  0.00  0.00    +0.000 A 
ATOM      6  N   UNL     1      45.770   1.646   8.740  0.00  0.00    +0.000 NA
ATOM      7  C   UNL     1      44.864   2.276   9.520  0.00  0.00    +0.000 A 
BRANCH   5   8
ATOM      8  C   UNL     1      47.342   1.734   6.856  0.00  0.00    +0.000 C 
ATOM      9  N   UNL     1      48.400   2.521   6.459  0.00  0.00    +0.000 N 
ATOM     10  O   UNL     1      47.251   0.577   6.466  0.00  0.00    +0.000 OA
ATOM     11  H   UNL     1      48.476   3.478   6.782  0.00  0.00    +0.000 HD
ATOM     12  H   UNL     1      49.094   2.127   5.842  0.00  0.00    +0.000 HD
ENDBRANCH   5   8
ENDBRANCH   1   2
BRANCH   1  14
ATOM     13  C   UNL     1      45.132   5.588  11.330  0.00  0.00    +0.000 C 
ATOM     14  C   UNL     1      43.917   5.340  10.824  0.00  0.00    +0.000 C 
BRANCH  13  19
ATOM     15  C   UNL     1      45.061   9.296  12.047  0.00  0.00    +0.000 A 
ATOM     16  C   UNL     1      46.111   9.427  12.957  0.00  0.00    +0.000 A 
ATOM     17  C   UNL     1      46.881   8.315  13.301  0.00  0.00    +0.000 A 
ATOM     18  C   UNL     1      46.594   7.064  12.753  0.00  0.00    +0.000 A 
ATOM     19  C   UNL     1      45.522   6.903  11.866  0.00  0.00    +0.000 A 
ATOM     20  C   UNL     1      44.785   8.038  11.495  0.00  0.00    +0.000 A 
BRANCH  15  22
ATOM     21  C   UNL     1      44.657  11.068  10.514  0.00  0.00    +0.000 C 
ATOM     22  O   UNL     1      44.232  10.302  11.638  0.00  0.00    +0.000 OA
ENDBRANCH  15  22
ENDBRANCH  13  19
ENDBRANCH   1  14
TORSDOF 5
ENDMDL
MODEL 4
REMARK VINA RESULT:    -6.293      3.339      5.055
REMARK INTER + INTRA:          -8.454
REMARK INTER:                  -8.147
REMARK INTRA:                  -0.306
REMARK UNBOUND:                -0.321
REMARK  Name = 
REMARK  6 active torsions:
REMARK  status: ('A' for Active; 'I' for Inactive)
REMARK    1  A    between atoms: C_1  and  O_2
REMARK    2  A    between atoms: O_2  and  C_3
REMARK    3  A    between atoms: C_7  and  C_8
REMARK    4  A    between atoms: C_9  and  O_10
REMARK    5  A    between atoms: O_10  and  C_11
REMARK    6  A    between atoms: C_14  and  C_15
REMARK                            x       y       z     vdW  Elec       q    Type
REMARK                         _______ _______ _______ _____ _____    ______ ____
ROOT
ATOM      1  O   UNL     1      45.719   4.484  14.365  0.00  0.00    +0.000 OA
ENDROOT
BRANCH   1   2
ATOM      2  C   UNL     1      45.592   4.377  13.007  0.00  0.00    +0.000 A 
ATOM      3  C   UNL     1      45.142   3.258  12.329  0.00  0.00    +0.000 A 
ATOM      4  N   UNL     1      45.013   3.187  10.987  0.00  0.00    +0.000 NA
ATOM      5  C   UNL     1      45.333   4.319  10.313  0.00  0.00    +0.000 A 
ATOM      6  N   UNL     1      45.747   5.475  10.869  0.00  0.00    +0.000 NA
ATOM      7  C   UNL     1      45.860   5.473  12.216  0.00  0.00    +0.000 A 
BRANCH   5   8
ATOM      8  C   UNL     1      45.215   4.257   8.805  0.00  0.00    +0.000 C 
ATOM      9  N   UNL     1      44.231   3.428   8.316  0.00  0.00    +0.000 N 
ATOM     10  O   UNL     1      45.931   4.887   8.037  0.00  0.00    +0.000 OA
ATOM     11  H   UNL     1      43.637   2.907   8.951  0.00  0.00    +0.000 HD
ATOM     12  H   UNL     1      44.113   3.348   7.318  0.00  0.00    +0.000 HD
ENDBRANCH   5   8
ENDBRANCH   1   2
BRANCH   1  14
ATOM     13  C   UNL     1      47.215   4.396  16.219  0.00  0.00    +0.000 C 
ATOM     14  C   UNL     1      46.978   4.342  14.901  0.00  0.00    +0.000 C 
BRANCH  13  19
ATOM     15  C   UNL     1      50.328   2.518  17.246  0.00  0.00    +0.000 A 
ATOM     16  C   UNL     1      51.115   3.543  17.771  0.00  0.00    +0.000 A 
ATOM     17  C   UNL     1      50.613   4.844  17.841  0.00  0.00    +0.000 A 
ATOM     18  C   UNL     1      49.332   5.130  17.368  0.00  0.00    +0.000 A 
ATOM     19  C   UNL     1      48.539   4.123  16.805  0.00  0.00    +0.000 A 
ATOM     20  C   UNL     1      49.038   2.811  16.782  0.00  0.00    +0.000 A 
BRANCH  15  22
ATOM     21  C   UNL     1      51.983   0.857  17.636  0.00  0.00    +0.000 C 
ATOM     22  O   UNL     1      50.705   1.211  17.116  0.00  0.00    +0.000 OA
ENDBRANCH  15  22
ENDBRANCH  13  19
ENDBRANCH   1  14
TORSDOF 5
ENDMDL
MODEL 5
REMARK VINA RESULT:    -6.212      4.950      8.027
REMARK INTER + INTRA:          -8.348
REMARK INTER:                  -8.031
REMARK INTRA:                  -0.318
REMARK UNBOUND:                -0.321
REMARK  Name = 
REMARK  6 active torsions:
REMARK  status: ('A' for Active; 'I' for Inactive)
REMARK    1  A    between atoms: C_1  and  O_2
REMARK    2  A    between atoms: O_2  and  C_3
REMARK    3  A    between atoms: C_7  and  C_8
REMARK    4  A    between atoms: C_9  and  O_10
REMARK    5  A    between atoms: O_10  and  C_11
REMARK    6  A    between atoms: C_14  and  C_15
REMARK                            x       y       z     vdW  Elec       q    Type
REMARK                         _______ _______ _______ _____ _____    ______ ____
ROOT
ATOM      1  O   UNL     1      47.269   4.269  16.415  0.00  0.00    +0.000 OA
ENDROOT
BRANCH   1   2
ATOM      2  C   UNL     1      48.399   3.558  16.715  0.00  0.00    +0.000 A 
ATOM      3  C   UNL     1      48.692   2.287  16.256  0.00  0.00    +0.000 A 
ATOM      4  N   UNL     1      49.824   1.615  16.558  0.00  0.00    +0.000 NA
ATOM      5  C   UNL     1      50.704   2.285  17.342  0.00  0.00    +0.000 A 
ATOM      6  N   UNL     1      50.540   3.536  17.818  0.00  0.00    +0.000 NA
ATOM      7  C   UNL     1      49.382   4.146  17.482  0.00  0.00    +0.000 A 
BRANCH   5   8
ATOM      8  C   UNL     1      51.973   1.545  17.710  0.00  0.00    +0.000 C 
ATOM      9  N   UNL     1      51.809   0.233  18.091  0.00  0.00    +0.000 N 
ATOM     10  O   UNL     1      53.089   2.048  17.686  0.00  0.00    +0.000 OA
ATOM     11  H   UNL     1      50.885  -0.184  18.111  0.00  0.00    +0.000 HD
ATOM     12  H   UNL     1      52.622  -0.304  18.351  0.00  0.00    +0.000 HD
ENDBRANCH   5   8
ENDBRANCH   1   2
BRANCH   1  14
ATOM     13  C   UNL     1      46.315   4.153  14.233  0.00  0.00    +0.000 C 
ATOM     14  C   UNL     1      47.129   4.731  15.126  0.00  0.00    +0.000 C 
BRANCH  13  19
ATOM     15  C   UNL     1      44.910   4.553  10.750  0.00  0.00    +0.000 A 
ATOM     16  C   UNL     1      45.434   5.791  10.374  0.00  0.00    +0.000 A 
ATOM     17  C   UNL     1      46.292   6.476  11.236  0.00  0.00    +0.000 A 
ATOM     18  C   UNL     1      46.613   5.939  12.483  0.00  0.00    +0.000 A 
ATOM     19  C   UNL     1      46.070   4.716  12.894  0.00  0.00    +0.000 A 
ATOM     20  C   UNL     1      45.245   4.016  12.000  0.00  0.00    +0.000 A 
BRANCH  15  22
ATOM     21  C   UNL     1      44.521   2.501   9.613  0.00  0.00    +0.000 C 
ATOM     22  O   UNL     1      44.056   3.791  10.003  0.00  0.00    +0.000 OA
ENDBRANCH  15  22
ENDBRANCH  13  19
ENDBRANCH   1  14
TORSDOF 5
ENDMDL
MODEL 6
REMARK VINA RESULT:    -6.115      1.493      2.193
REMARK INTER + INTRA:          -8.224
REMARK INTER:                  -7.832
REMARK INTRA:                  -0.391
REMARK UNBOUND:                -0.321
REMARK  Name = 
REMARK  6 active torsions:
REMARK  status: ('A' for Active; 'I' for Inactive)
REMARK    1  A    between atoms: C_1  and  O_2
REMARK    2  A    between atoms: O_2  and  C_3
REMARK    3  A    between atoms: C_7  and  C_8
REMARK    4  A    between atoms: C_9  and  O_10
REMARK    5  A    between atoms: O_10  and  C_11
REMARK    6  A    between atoms: C_14  and  C_15
REMARK                            x       y       z     vdW  Elec       q    Type
REMARK                         _______ _______ _______ _____ _____    ______ ____
ROOT
ATOM      1  O   UNL     1      44.410   5.025  10.105  0.00  0.00    +0.000 OA
ENDROOT
BRANCH   1   2
ATOM      2  C   UNL     1      45.046   4.017   9.434  0.00  0.00    +0.000 A 
ATOM      3  C   UNL     1      44.908   2.666   9.696  0.00  0.00    +0.000 A 
ATOM      4  N   UNL     1      45.538   1.692   9.006  0.00  0.00    +0.000 NA
ATOM      5  C   UNL     1      46.322   2.119   7.986  0.00  0.00    +0.000 A 
ATOM      6  N   UNL     1      46.505   3.403   7.619  0.00  0.00    +0.000 NA
ATOM      7  C   UNL     1      45.849   4.325   8.357  0.00  0.00    +0.000 A 
BRANCH   5   8
ATOM      8  C   UNL     1      47.056   1.046   7.209  0.00  0.00    +0.000 C 
ATOM      9  N   UNL     1      46.747  -0.252   7.547  0.00  0.00    +0.000 N 
ATOM     10  O   UNL     1      47.878   1.278   6.332  0.00  0.00    +0.000 OA
ATOM     11  H   UNL     1      46.066  -0.445   8.272  0.00  0.00    +0.000 HD
ATOM     12  H   UNL     1      47.211  -1.005   7.062  0.00  0.00    +0.000 HD
ENDBRANCH   5   8
ENDBRANCH   1   2
BRANCH   1  14
ATOM     13  C   UNL     1      46.004   5.522  11.808  0.00  0.00    +0.000 C 
ATOM     14  C   UNL     1      45.189   5.909  10.817  0.00  0.00    +0.000 C 
BRANCH  13  19
ATOM     15  C   UNL     1      48.067   8.606  12.514  0.00  0.00    +0.000 A 
ATOM     16  C   UNL     1      48.570   8.324  13.785  0.00  0.00    +0.000 A 
ATOM     17  C   UNL     1      48.280   7.103  14.396  0.00  0.00    +0.000 A 
ATOM     18  C   UNL     1      47.472   6.167  13.749  0.00  0.00    +0.000 A 
ATOM     19  C   UNL     1      46.928   6.445  12.489  0.00  0.00    +0.000 A 
ATOM     20  C   UNL     1      47.264   7.657  11.867  0.00  0.00    +0.000 A 
BRANCH  15  22
ATOM     21  C   UNL     1      47.567  10.917  12.266  0.00  0.00    +0.000 C 
ATOM     22  O   UNL     1      48.271   9.763  11.816  0.00  0.00    +0.000 OA
ENDBRANCH  15  22
ENDBRANCH  13  19
ENDBRANCH   1  14
TORSDOF 5
ENDMDL
MODEL 7
REMARK VINA RESULT:    -6.011      4.201      8.076
REMARK INTER + INTRA:          -8.090
REMARK INTER:                  -7.776
REMARK INTRA:                  -0.313
REMARK UNBOUND:                -0.321
REMARK  Name = 
REMARK  6 active torsions:
REMARK  status: ('A' for Active; 'I' for Inactive)
REMARK    1  A    between atoms: C_1  and  O_2
REMARK    2  A    between atoms: O_2  and  C_3
REMARK    3  A    between atoms: C_7  and  C_8
REMARK    4  A    between atoms: C_9  and  O_10
REMARK    5  A    between atoms: O_10  and  C_11
REMARK    6  A    between atoms: C_14  and  C_15
REMARK                            x       y       z     vdW  Elec       q    Type
REMARK                         _______ _______ _______ _____ _____    ______ ____
ROOT
ATOM      1  O   UNL     1      46.713   5.952  13.591  0.00  0.00    +0.000 OA
ENDROOT
BRANCH   1   2
ATOM      2  C   UNL     1      47.354   5.453  14.691  0.00  0.00    +0.000 A 
ATOM      3  C   UNL     1      48.396   6.067  15.361  0.00  0.00    +0.000 A 
ATOM      4  N   UNL     1      49.000   5.556  16.455  0.00  0.00    +0.000 NA
ATOM      5  C   UNL     1      48.497   4.378  16.897  0.00  0.00    +0.000 A 
ATOM      6  N   UNL     1      47.466   3.706  16.346  0.00  0.00    +0.000 NA
ATOM      7  C   UNL     1      46.913   4.273  15.251  0.00  0.00    +0.000 A 
BRANCH   5   8
ATOM      8  C   UNL     1      49.171   3.774  18.111  0.00  0.00    +0.000 C 
ATOM      9  N   UNL     1      48.336   3.143  19.005  0.00  0.00    +0.000 N 
ATOM     10  O   UNL     1      50.376   3.826  18.321  0.00  0.00    +0.000 OA
ATOM     11  H   UNL     1      47.338   3.099  18.831  0.00  0.00    +0.000 HD
ATOM     12  H   UNL     1      48.734   2.727  19.833  0.00  0.00    +0.000 HD
ENDBRANCH   5   8
ENDBRANCH   1   2
BRANCH   1  14
ATOM     13  C   UNL     1      45.461   5.359  11.651  0.00  0.00    +0.000 C 
ATOM     14  C   UNL     1      46.358   5.064  12.601  0.00  0.00    +0.000 C 
BRANCH  13  19
ATOM     15  C   UNL     1      45.528   3.886   8.173  0.00  0.00    +0.000 A 
ATOM     16  C   UNL     1      44.781   2.721   8.345  0.00  0.00    +0.000 A 
ATOM     17  C   UNL     1      44.206   2.436   9.586  0.00  0.00    +0.000 A 
ATOM     18  C   UNL     1      44.393   3.304  10.663  0.00  0.00    +0.000 A 
ATOM     19  C   UNL     1      45.169   4.460  10.520  0.00  0.00    +0.000 A 
ATOM     20  C   UNL     1      45.703   4.757   9.257  0.00  0.00    +0.000 A 
BRANCH  15  22
ATOM     21  C   UNL     1      46.759   3.245   6.242  0.00  0.00    +0.000 C 
ATOM     22  O   UNL     1      46.145   4.272   7.016  0.00  0.00    +0.000 OA
ENDBRANCH  15  22
ENDBRANCH  13  19
ENDBRANCH   1  14
TORSDOF 5
ENDMDL
MODEL 8
REMARK VINA RESULT:    -5.928      5.172      8.754
REMARK INTER + INTRA:          -7.982
REMARK INTER:                  -7.660
REMARK INTRA:                  -0.322
REMARK UNBOUND:                -0.321
REMARK  Name = 
REMARK  6 active torsions:
REMARK  status: ('A' for Active; 'I' for Inactive)
REMARK    1  A    between atoms: C_1  and  O_2
REMARK    2  A    between atoms: O_2  and  C_3
REMARK    3  A    between atoms: C_7  and  C_8
REMARK    4  A    between atoms: C_9  and  O_10
REMARK    5  A    between atoms: O_10  and  C_11
REMARK    6  A    between atoms: C_14  and  C_15
REMARK                            x       y       z     vdW  Elec       q    Type
REMARK                         _______ _______ _______ _____ _____    ______ ____
ROOT
ATOM      1  O   UNL     1      47.679   3.066  14.944  0.00  0.00    +0.000 OA
ENDROOT
BRANCH   1   2
ATOM      2  C   UNL     1      47.935   3.492  16.218  0.00  0.00    +0.000 A 
ATOM      3  C   UNL     1      47.327   4.566  16.843  0.00  0.00    +0.000 A 
ATOM      4  N   UNL     1      47.591   4.954  18.109  0.00  0.00    +0.000 NA
ATOM      5  C   UNL     1      48.496   4.194  18.771  0.00  0.00    +0.000 A 
ATOM      6  N   UNL     1      49.124   3.109  18.277  0.00  0.00    +0.000 NA
ATOM      7  C   UNL     1      48.818   2.781  17.002  0.00  0.00    +0.000 A 
BRANCH   5   8
ATOM      8  C   UNL     1      48.823   4.621  20.187  0.00  0.00    +0.000 C 
ATOM      9  N   UNL     1      50.110   4.371  20.603  0.00  0.00    +0.000 N 
ATOM     10  O   UNL     1      48.020   5.155  20.943  0.00  0.00    +0.000 OA
ATOM     11  H   UNL     1      50.775   3.930  19.978  0.00  0.00    +0.000 HD
ATOM     12  H   UNL     1      50.378   4.633  21.540  0.00  0.00    +0.000 HD
ENDBRANCH   5   8
ENDBRANCH   1   2
BRANCH   1  14
ATOM     13  C   UNL     1      46.160   3.291  13.119  0.00  0.00    +0.000 C 
ATOM     14  C   UNL     1      46.780   3.793  14.196  0.00  0.00    +0.000 C 
BRANCH  13  19
ATOM     15  C   UNL     1      44.006   4.508  10.265  0.00  0.00    +0.000 A 
ATOM     16  C   UNL     1      43.045   5.263  10.939  0.00  0.00    +0.000 A 
ATOM     17  C   UNL     1      43.126   5.422  12.323  0.00  0.00    +0.000 A 
ATOM     18  C   UNL     1      44.154   4.811  13.042  0.00  0.00    +0.000 A 
ATOM     19  C   UNL     1      45.108   4.021  12.390  0.00  0.00    +0.000 A 
ATOM     20  C   UNL     1      45.041   3.907  10.993  0.00  0.00    +0.000 A 
BRANCH  15  22
ATOM     21  C   UNL     1      45.309   4.033   8.334  0.00  0.00    +0.000 C 
ATOM     22  O   UNL     1      44.032   4.272   8.919  0.00  0.00    +0.000 OA
ENDBRANCH  15  22
ENDBRANCH  13  19
ENDBRANCH   1  14
TORSDOF 5
ENDMDL
MODEL 9
REMARK VINA RESULT:    -5.590      3.285      5.134
REMARK INTER + INTRA:          -7.545
REMARK INTER:                  -7.226
REMARK INTRA:                  -0.319
REMARK UNBOUND:                -0.321
REMARK  Name = 
REMARK  6 active torsions:
REMARK  status: ('A' for Active; 'I' for Inactive)
REMARK    1  A    between atoms: C_1  and  O_2
REMARK    2  A    between atoms: O_2  and  C_3
REMARK    3  A    between atoms: C_7  and  C_8
REMARK    4  A    between atoms: C_9  and  O_10
REMARK    5  A    between atoms: O_10  and  C_11
REMARK    6  A    between atoms: C_14  and  C_15
REMARK                            x       y       z     vdW  Elec       q    Type
REMARK                         _______ _______ _______ _____ _____    ______ ____
ROOT
ATOM      1  O   UNL     1      47.925   5.892  13.927  0.00  0.00    +0.000 OA
ENDROOT
BRANCH   1   2
ATOM      2  C   UNL     1      47.010   5.128  13.257  0.00  0.00    +0.000 A 
ATOM      3  C   UNL     1      46.705   3.809  13.540  0.00  0.00    +0.000 A 
ATOM      4  N   UNL     1      45.784   3.084  12.870  0.00  0.00    +0.000 NA
ATOM      5  C   UNL     1      45.128   3.747  11.886  0.00  0.00    +0.000 A 
ATOM      6  N   UNL     1      45.317   5.038  11.546  0.00  0.00    +0.000 NA
ATOM      7  C   UNL     1      46.259   5.701  12.253  0.00  0.00    +0.000 A 
BRANCH   5   8
ATOM      8  C   UNL     1      44.104   2.949  11.107  0.00  0.00    +0.000 C 
ATOM      9  N   UNL     1      44.571   2.324   9.973  0.00  0.00    +0.000 N 
ATOM     10  O   UNL     1      42.928   2.845  11.431  0.00  0.00    +0.000 OA
ATOM     11  H   UNL     1      45.545   2.408   9.705  0.00  0.00    +0.000 HD
ATOM     12  H   UNL     1      43.928   1.783   9.416  0.00  0.00    +0.000 HD
ENDBRANCH   5   8
ENDBRANCH   1   2
BRANCH   1  14
ATOM     13  C   UNL     1      49.359   7.230  12.570  0.00  0.00    +0.000 C 
ATOM     14  C   UNL     1      48.288   7.095  13.363  0.00  0.00    +0.000 C 
BRANCH  13  19
ATOM     15  C   UNL     1      48.943  10.675  11.080  0.00  0.00    +0.000 A 
ATOM     16  C   UNL     1      50.244  10.963  10.665  0.00  0.00    +0.000 A 
ATOM     17  C   UNL     1      51.253  10.012  10.823  0.00  0.00    +0.000 A 
ATOM     18  C   UNL     1      50.972   8.778  11.413  0.00  0.00    +0.000 A 
ATOM     19  C   UNL     1      49.681   8.484  11.868  0.00  0.00    +0.000 A 
ATOM     20  C   UNL     1      48.667   9.431  11.662  0.00  0.00    +0.000 A 
BRANCH  15  22
ATOM     21  C   UNL     1      46.712  11.171  11.736  0.00  0.00    +0.000 C 
ATOM     22  O   UNL     1      47.873  11.521  10.989  0.00  0.00    +0.000 OA
ENDBRANCH  15  22
ENDBRANCH  13  19
ENDBRANCH   1  14
TORSDOF 5
ENDMDL
