MODEL 1
REMARK VINA RESULT:    -7.616      0.000      0.000
REMARK INTER + INTRA:         -11.352
REMARK INTER:                 -10.288
REMARK INTRA:                  -1.065
REMARK UNBOUND:                -1.065
REMARK  Name = 
REMARK  8 active torsions:
REMARK  status: ('A' for Active; 'I' for Inactive)
REMARK    1  A    between atoms: C_1  and  C_2
REMARK    2  A    between atoms: C_6  and  C_7
REMARK    3  A    between atoms: C_7  and  N_8
REMARK    4  A    between atoms: N_8  and  C_9
REMARK    5  A    between atoms: C_12  and  C_13
REMARK    6  A    between atoms: C_13  and  N_14
REMARK    7  A    between atoms: N_14  and  C_15
REMARK    8  A    between atoms: C_16  and  C_18
REMARK                            x       y       z     vdW  Elec       q    Type
REMARK                         _______ _______ _______ _____ _____    ______ ____
ROOT
ATOM      1  C   UNL     1      45.366   3.694  12.268  0.00  0.00    +0.000 A 
ATOM      2  C   UNL     1      45.135   5.071  12.159  0.00  0.00    +0.000 A 
ATOM      3  C   UNL     1      45.981   6.004  12.778  0.00  0.00    +0.000 A 
ATOM      4  C   UNL     1      47.097   5.580  13.512  0.00  0.00    +0.000 A 
ATOM      5  C   UNL     1      47.249   4.211  13.737  0.00  0.00    +0.000 A 
ATOM      6  C   UNL     1      46.382   3.288  13.143  0.00  0.00    +0.000 A 
ENDROOT
BRANCH   1   7
ATOM      7  N   UNL     1      44.500   2.789  11.626  0.00  0.00    +0.000 N 
ATOM      8  H   UNL     1      43.739   2.522  12.248  0.00  0.00    +0.000 HD
BRANCH   7   9
ATOM      9  C   UNL     1      43.957   3.184  10.318  0.00  0.00    +0.000 C 
BRANCH   9  15
ATOM     10  C   UNL     1      46.799   0.216   7.677  0.00  0.00    +0.000 C 
ATOM     11  C   UNL     1      46.338   1.617   7.943  0.00  0.00    +0.000 A 
ATOM     12  C   UNL     1      46.815   2.684   7.189  0.00  0.00    +0.000 A 
ATOM     13  C   UNL     1      46.351   3.964   7.473  0.00  0.00    +0.000 A 
ATOM     14  C   UNL     1      45.426   4.144   8.498  0.00  0.00    +0.000 A 
ATOM     15  C   UNL     1      44.993   3.031   9.217  0.00  0.00    +0.000 A 
ATOM     16  N   UNL     1      45.441   1.776   8.947  0.00  0.00    +0.000 NA
ENDBRANCH   9  15
ENDBRANCH   7   9
ENDBRANCH   1   7
BRANCH   4  17
ATOM     17  C   UNL     1      48.146   6.566  13.978  0.00  0.00    +0.000 C 
BRANCH  17  18
ATOM     18  N   UNL     1      48.319   7.718  13.103  0.00  0.00    +0.000 N 
ATOM     19  C   UNL     1      48.724   7.450  11.732  0.00  0.00    +0.000 C 
ATOM     20  C   UNL     1      47.971   8.971  13.618  0.00  0.00    +0.000 C 
ATOM     21  O   UNL     1      47.629   9.110  14.788  0.00  0.00    +0.000 OA
BRANCH  20  22
ATOM     22  C   UNL     1      47.954  10.135  12.718  0.00  0.00    +0.000 A 
ATOM     23  C   UNL     1      49.060  10.904  12.379  0.00  0.00    +0.000 A 
ATOM     24  S   UNL     1      48.722  12.146  11.264  0.00  0.00    +0.000 S 
ATOM     25  C   UNL     1      47.131  11.597  11.075  0.00  0.00    +0.000 A 
ATOM     26  N   UNL     1      46.314  12.155  10.136  0.00  0.00    +0.000 NA
ATOM     27  C   UNL     1      45.153  11.598  10.062  0.00  0.00    +0.000 A 
ATOM     28  N   UNL     1      44.716  10.580  10.869  0.00  0.00    +0.000 N 
ATOM     29  C   UNL     1      45.456  10.073  11.911  0.00  0.00    +0.000 A 
ATOM     30  O   UNL     1      44.942   9.330  12.743  0.00  0.00    +0.000 OA
ATOM     31  C   UNL     1      46.821  10.571  11.943  0.00  0.00    +0.000 A 
ATOM     32  H   UNL     1      43.762  10.243  10.808  0.00  0.00    +0.000 HD
ENDBRANCH  20  22
ENDBRANCH  17  18
ENDBRANCH   4  17
TORSDOF 6
ENDMDL
MODEL 2
REMARK VINA RESULT:    -7.390      3.065      5.030
REMARK INTER + INTRA:         -11.047
REMARK INTER:                 -10.221
REMARK INTRA:                  -0.827
REMARK UNBOUND:                -1.065
REMARK  Name = 
REMARK  8 active torsions:
REMARK  status: ('A' for Active; 'I' for Inactive)
REMARK    1  A    between atoms: C_1  and  C_2
REMARK    2  A    between atoms: C_6  and  C_7
REMARK    3  A    between atoms: C_7  and  N_8
REMARK    4  A    between atoms: N_8  and  C_9
REMARK    5  A    between atoms: C_12  and  C_13
REMARK    6  A    between atoms: C_13  and  N_14
REMARK    7  A    between atoms: N_14  and  C_15
REMARK    8  A    between atoms: C_16  and  C_18
REMARK                            x       y       z     vdW  Elec       q    Type
REMARK                         _______ _______ _______ _____ _____    ______ ____
ROOT
ATOM      1  C   UNL     1      45.249   4.176  12.038  0.00  0.00    +0.000 A 
ATOM      2  C   UNL     1      44.849   5.439  11.585  0.00  0.00    +0.000 A 
ATOM      3  C   UNL     1      45.421   6.614  12.097  0.00  0.00    +0.000 A 
ATOM      4  C   UNL     1      46.427   6.553  13.070  0.00  0.00    +0.000 A 
ATOM      5  C   UNL     1      46.728   5.306  13.622  0.00  0.00    +0.000 A 
ATOM      6  C   UNL     1      46.129   4.142  13.128  0.00  0.00    +0.000 A 
ENDROOT
BRANCH   1   7
ATOM      7  N   UNL     1      44.658   3.020  11.496  0.00  0.00    +0.000 N 
ATOM      8  H   UNL     1      43.975   2.631  12.143  0.00  0.00    +0.000 HD
BRANCH   7   9
ATOM      9  C   UNL     1      44.063   3.131  10.155  0.00  0.00    +0.000 C 
BRANCH   9  15
ATOM     10  C   UNL     1      46.836  -0.028   7.667  0.00  0.00    +0.000 C 
ATOM     11  C   UNL     1      46.411   1.395   7.865  0.00  0.00    +0.000 A 
ATOM     12  C   UNL     1      46.917   2.413   7.065  0.00  0.00    +0.000 A 
ATOM     13  C   UNL     1      46.485   3.716   7.287  0.00  0.00    +0.000 A 
ATOM     14  C   UNL     1      45.562   3.967   8.299  0.00  0.00    +0.000 A 
ATOM     15  C   UNL     1      45.098   2.901   9.067  0.00  0.00    +0.000 A 
ATOM     16  N   UNL     1      45.514   1.624   8.857  0.00  0.00    +0.000 NA
ENDBRANCH   9  15
ENDBRANCH   7   9
ENDBRANCH   1   7
BRANCH   4  17
ATOM     17  C   UNL     1      47.218   7.784  13.454  0.00  0.00    +0.000 C 
BRANCH  17  18
ATOM     18  N   UNL     1      48.643   7.547  13.649  0.00  0.00    +0.000 N 
ATOM     19  C   UNL     1      49.407   7.134  12.483  0.00  0.00    +0.000 C 
ATOM     20  C   UNL     1      49.176   7.848  14.906  0.00  0.00    +0.000 C 
ATOM     21  O   UNL     1      48.460   8.202  15.838  0.00  0.00    +0.000 OA
BRANCH  20  22
ATOM     22  C   UNL     1      50.635   7.801  15.095  0.00  0.00    +0.000 A 
ATOM     23  C   UNL     1      51.540   8.725  14.589  0.00  0.00    +0.000 A 
ATOM     24  S   UNL     1      53.155   8.425  15.037  0.00  0.00    +0.000 S 
ATOM     25  C   UNL     1      52.680   7.152  16.049  0.00  0.00    +0.000 A 
ATOM     26  N   UNL     1      53.589   6.533  16.854  0.00  0.00    +0.000 NA
ATOM     27  C   UNL     1      53.077   5.625  17.613  0.00  0.00    +0.000 A 
ATOM     28  N   UNL     1      51.760   5.244  17.605  0.00  0.00    +0.000 N 
ATOM     29  C   UNL     1      50.835   5.749  16.722  0.00  0.00    +0.000 A 
ATOM     30  O   UNL     1      49.734   5.220  16.596  0.00  0.00    +0.000 OA
ATOM     31  C   UNL     1      51.334   6.872  15.946  0.00  0.00    +0.000 A 
ATOM     32  H   UNL     1      51.441   4.468  18.173  0.00  0.00    +0.000 HD
ENDBRANCH  20  22
ENDBRANCH  17  18
ENDBRANCH   4  17
TORSDOF 6
ENDMDL
MODEL 3
REMARK VINA RESULT:    -7.300      3.560      5.260
REMARK INTER + INTRA:         -10.926
REMARK INTER:                 -10.180
REMARK INTRA:                  -0.746
REMARK UNBOUND:                -1.065
REMARK  Name = 
REMARK  8 active torsions:
REMARK  status: ('A' for Active; 'I' for Inactive)
REMARK    1  A    between atoms: C_1  and  C_2
REMARK    2  A    between atoms: C_6  and  C_7
REMARK    3  A    between atoms: C_7  and  N_8
REMARK    4  A    between atoms: N_8  and  C_9
REMARK    5  A    between atoms: C_12  and  C_13
REMARK    6  A    between atoms: C_13  and  N_14
REMARK    7  A    between atoms: N_14  and  C_15
REMARK    8  A    between atoms: C_16  and  C_18
REMARK                            x       y       z     vdW  Elec       q    Type
REMARK                         _______ _______ _______ _____ _____    ______ ____
ROOT
ATOM      1  C   UNL     1      45.277   5.283  11.674  0.00  0.00    +0.000 A 
ATOM      2  C   UNL     1      45.718   6.551  11.279  0.00  0.00    +0.000 A 
ATOM      3  C   UNL     1      46.810   7.173  11.904  0.00  0.00    +0.000 A 
ATOM      4  C   UNL     1      47.504   6.528  12.937  0.00  0.00    +0.000 A 
ATOM      5  C   UNL     1      46.983   5.328  13.424  0.00  0.00    +0.000 A 
ATOM      6  C   UNL     1      45.873   4.731  12.816  0.00  0.00    +0.000 A 
ENDROOT
BRANCH   1   7
ATOM      7  N   UNL     1      44.184   4.688  11.018  0.00  0.00    +0.000 N 
ATOM      8  H   UNL     1      43.925   5.227  10.194  0.00  0.00    +0.000 HD
BRANCH   7   9
ATOM      9  C   UNL     1      44.302   3.266  10.661  0.00  0.00    +0.000 C 
BRANCH   9  15
ATOM     10  C   UNL     1      46.718   0.220   7.704  0.00  0.00    +0.000 C 
ATOM     11  C   UNL     1      46.269   1.623   7.978  0.00  0.00    +0.000 A 
ATOM     12  C   UNL     1      46.572   2.657   7.099  0.00  0.00    +0.000 A 
ATOM     13  C   UNL     1      46.128   3.941   7.398  0.00  0.00    +0.000 A 
ATOM     14  C   UNL     1      45.395   4.156   8.563  0.00  0.00    +0.000 A 
ATOM     15  C   UNL     1      45.130   3.075   9.401  0.00  0.00    +0.000 A 
ATOM     16  N   UNL     1      45.560   1.817   9.118  0.00  0.00    +0.000 NA
ENDBRANCH   9  15
ENDBRANCH   7   9
ENDBRANCH   1   7
BRANCH   4  17
ATOM     17  C   UNL     1      48.818   7.071  13.453  0.00  0.00    +0.000 C 
BRANCH  17  18
ATOM     18  N   UNL     1      48.743   7.669  14.780  0.00  0.00    +0.000 N 
ATOM     19  C   UNL     1      47.767   8.731  14.969  0.00  0.00    +0.000 C 
ATOM     20  C   UNL     1      49.528   7.097  15.785  0.00  0.00    +0.000 C 
ATOM     21  O   UNL     1      50.322   6.194  15.542  0.00  0.00    +0.000 OA
BRANCH  20  22
ATOM     22  C   UNL     1      49.349   7.546  17.175  0.00  0.00    +0.000 A 
ATOM     23  C   UNL     1      49.783   8.761  17.689  0.00  0.00    +0.000 A 
ATOM     24  S   UNL     1      49.367   9.009  19.321  0.00  0.00    +0.000 S 
ATOM     25  C   UNL     1      48.458   7.579  19.348  0.00  0.00    +0.000 A 
ATOM     26  N   UNL     1      47.708   7.257  20.440  0.00  0.00    +0.000 NA
ATOM     27  C   UNL     1      47.022   6.174  20.298  0.00  0.00    +0.000 A 
ATOM     28  N   UNL     1      47.056   5.362  19.194  0.00  0.00    +0.000 N 
ATOM     29  C   UNL     1      47.892   5.578  18.124  0.00  0.00    +0.000 A 
ATOM     30  O   UNL     1      48.056   4.710  17.271  0.00  0.00    +0.000 OA
ATOM     31  C   UNL     1      48.577   6.858  18.179  0.00  0.00    +0.000 A 
ATOM     32  H   UNL     1      46.551   4.483  19.182  0.00  0.00    +0.000 HD
ENDBRANCH  20  22
ENDBRANCH  17  18
ENDBRANCH   4  17
TORSDOF 6
ENDMDL
MODEL 4
REMARK VINA RESULT:    -7.179      1.994      3.389
REMARK INTER + INTRA:         -10.762
REMARK INTER:                  -9.752
REMARK INTRA:                  -1.010
REMARK UNBOUND:                -1.065
REMARK  Name = 
REMARK  8 active torsions:
REMARK  status: ('A' for Active; 'I' for Inactive)
REMARK    1  A    between atoms: C_1  and  C_2
REMARK    2  A    between atoms: C_6  and  C_7
REMARK    3  A    between atoms: C_7  and  N_8
REMARK    4  A    between atoms: N_8  and  C_9
REMARK    5  A    between atoms: C_12  and  C_13
REMARK    6  A    between atoms: C_13  and  N_14
REMARK    7  A    between atoms: N_14  and  C_15
REMARK    8  A    between atoms: C_16  and  C_18
REMARK                            x       y       z     vdW  Elec       q    Type
REMARK                         _______ _______ _______ _____ _____    ______ ____
ROOT
ATOM      1  C   UNL     1      45.256   4.509  11.653  0.00  0.00    +0.000 A 
ATOM      2  C   UNL     1      45.812   4.678  12.926  0.00  0.00    +0.000 A 
ATOM      3  C   UNL     1      46.096   5.954  13.437  0.00  0.00    +0.000 A 
ATOM      4  C   UNL     1      45.811   7.103  12.687  0.00  0.00    +0.000 A 
ATOM      5  C   UNL     1      45.387   6.933  11.367  0.00  0.00    +0.000 A 
ATOM      6  C   UNL     1      45.138   5.655  10.855  0.00  0.00    +0.000 A 
ENDROOT
BRANCH   1   7
ATOM      7  N   UNL     1      44.978   3.214  11.178  0.00  0.00    +0.000 N 
ATOM      8  H   UNL     1      44.451   2.686  11.871  0.00  0.00    +0.000 HD
BRANCH   7   9
ATOM      9  C   UNL     1      44.323   3.102   9.866  0.00  0.00    +0.000 C 
BRANCH   9  15
ATOM     10  C   UNL     1      46.860  -0.438   7.654  0.00  0.00    +0.000 C 
ATOM     11  C   UNL     1      46.512   1.019   7.713  0.00  0.00    +0.000 A 
ATOM     12  C   UNL     1      47.045   1.920   6.799  0.00  0.00    +0.000 A 
ATOM     13  C   UNL     1      46.685   3.260   6.894  0.00  0.00    +0.000 A 
ATOM     14  C   UNL     1      45.806   3.663   7.897  0.00  0.00    +0.000 A 
ATOM     15  C   UNL     1      45.312   2.707   8.782  0.00  0.00    +0.000 A 
ATOM     16  N   UNL     1      45.658   1.395   8.697  0.00  0.00    +0.000 NA
ENDBRANCH   9  15
ENDBRANCH   7   9
ENDBRANCH   1   7
BRANCH   4  17
ATOM     17  C   UNL     1      45.883   8.480  13.309  0.00  0.00    +0.000 C 
BRANCH  17  18
ATOM     18  N   UNL     1      47.227   9.036  13.387  0.00  0.00    +0.000 N 
ATOM     19  C   UNL     1      48.078   8.553  14.463  0.00  0.00    +0.000 C 
ATOM     20  C   UNL     1      47.625   9.896  12.359  0.00  0.00    +0.000 C 
ATOM     21  O   UNL     1      46.845  10.247  11.480  0.00  0.00    +0.000 OA
BRANCH  20  22
ATOM     22  C   UNL     1      49.029  10.335  12.296  0.00  0.00    +0.000 A 
ATOM     23  C   UNL     1      49.501  11.575  12.705  0.00  0.00    +0.000 A 
ATOM     24  S   UNL     1      51.188  11.753  12.561  0.00  0.00    +0.000 S 
ATOM     25  C   UNL     1      51.361  10.131  12.103  0.00  0.00    +0.000 A 
ATOM     26  N   UNL     1      52.600   9.583  11.952  0.00  0.00    +0.000 NA
ATOM     27  C   UNL     1      52.580   8.327  11.661  0.00  0.00    +0.000 A 
ATOM     28  N   UNL     1      51.445   7.585  11.456  0.00  0.00    +0.000 N 
ATOM     29  C   UNL     1      50.180   8.123  11.470  0.00  0.00    +0.000 A 
ATOM     30  O   UNL     1      49.219   7.479  11.058  0.00  0.00    +0.000 OA
ATOM     31  C   UNL     1      50.146   9.501  11.932  0.00  0.00    +0.000 A 
ATOM     32  H   UNL     1      51.505   6.621  11.151  0.00  0.00    +0.000 HD
ENDBRANCH  20  22
ENDBRANCH  17  18
ENDBRANCH   4  17
TORSDOF 6
ENDMDL
MODEL 5
REMARK VINA RESULT:    -7.116      3.644      5.479
REMARK INTER + INTRA:         -10.677
REMARK INTER:                  -9.620
REMARK INTRA:                  -1.057
REMARK UNBOUND:                -1.065
REMARK  Name = 
REMARK  8 active torsions:
REMARK  status: ('A' for Active; 'I' for Inactive)
REMARK    1  A    between atoms: C_1  and  C_2
REMARK    2  A    between atoms: C_6  and  C_7
REMARK    3  A    between atoms: C_7  and  N_8
REMARK    4  A    between atoms: N_8  and  C_9
REMARK    5  A    between atoms: C_12  and  C_13
REMARK    6  A    between atoms: C_13  and  N_14
REMARK    7  A    between atoms: N_14  and  C_15
REMARK    8  A    between atoms: C_16  and  C_18
REMARK                            x       y       z     vdW  Elec       q    Type
REMARK                         _______ _______ _______ _____ _____    ______ ____
ROOT
ATOM      1  C   UNL     1      45.447   5.507  12.139  0.00  0.00    +0.000 A 
ATOM      2  C   UNL     1      46.155   4.941  13.206  0.00  0.00    +0.000 A 
ATOM      3  C   UNL     1      47.405   5.441  13.601  0.00  0.00    +0.000 A 
ATOM      4  C   UNL     1      47.975   6.539  12.944  0.00  0.00    +0.000 A 
ATOM      5  C   UNL     1      47.339   7.017  11.796  0.00  0.00    +0.000 A 
ATOM      6  C   UNL     1      46.107   6.491  11.390  0.00  0.00    +0.000 A 
ENDROOT
BRANCH   1   7
ATOM      7  N   UNL     1      44.192   4.984  11.777  0.00  0.00    +0.000 N 
ATOM      8  H   UNL     1      43.456   5.394  12.349  0.00  0.00    +0.000 HD
BRANCH   7   9
ATOM      9  C   UNL     1      43.814   5.056  10.357  0.00  0.00    +0.000 C 
BRANCH   9  15
ATOM     10  C   UNL     1      46.827   3.914   6.686  0.00  0.00    +0.000 C 
ATOM     11  C   UNL     1      45.953   3.426   7.802  0.00  0.00    +0.000 A 
ATOM     12  C   UNL     1      45.832   2.067   8.076  0.00  0.00    +0.000 A 
ATOM     13  C   UNL     1      45.013   1.668   9.126  0.00  0.00    +0.000 A 
ATOM     14  C   UNL     1      44.339   2.632   9.873  0.00  0.00    +0.000 A 
ATOM     15  C   UNL     1      44.504   3.975   9.542  0.00  0.00    +0.000 A 
ATOM     16  N   UNL     1      45.302   4.376   8.518  0.00  0.00    +0.000 NA
ENDBRANCH   9  15
ENDBRANCH   7   9
ENDBRANCH   1   7
BRANCH   4  17
ATOM     17  C   UNL     1      49.194   7.238  13.504  0.00  0.00    +0.000 C 
BRANCH  17  18
ATOM     18  N   UNL     1      49.016   7.777  14.846  0.00  0.00    +0.000 N 
ATOM     19  C   UNL     1      47.950   8.748  15.030  0.00  0.00    +0.000 C 
ATOM     20  C   UNL     1      49.804   7.231  15.865  0.00  0.00    +0.000 C 
ATOM     21  O   UNL     1      50.679   6.405  15.625  0.00  0.00    +0.000 OA
BRANCH  20  22
ATOM     22  C   UNL     1      49.532   7.610  17.261  0.00  0.00    +0.000 A 
ATOM     23  C   UNL     1      49.937   8.794  17.864  0.00  0.00    +0.000 A 
ATOM     24  S   UNL     1      49.411   8.963  19.475  0.00  0.00    +0.000 S 
ATOM     25  C   UNL     1      48.494   7.542  19.366  0.00  0.00    +0.000 A 
ATOM     26  N   UNL     1      47.668   7.172  20.386  0.00  0.00    +0.000 NA
ATOM     27  C   UNL     1      46.988   6.105  20.141  0.00  0.00    +0.000 A 
ATOM     28  N   UNL     1      47.092   5.349  19.003  0.00  0.00    +0.000 N 
ATOM     29  C   UNL     1      48.002   5.611  18.005  0.00  0.00    +0.000 A 
ATOM     30  O   UNL     1      48.218   4.786  17.121  0.00  0.00    +0.000 OA
ATOM     31  C   UNL     1      48.689   6.880  18.172  0.00  0.00    +0.000 A 
ATOM     32  H   UNL     1      46.585   4.477  18.911  0.00  0.00    +0.000 HD
ENDBRANCH  20  22
ENDBRANCH  17  18
ENDBRANCH   4  17
TORSDOF 6
ENDMDL
MODEL 6
REMARK VINA RESULT:    -6.877      2.148      2.669
REMARK INTER + INTRA:         -10.354
REMARK INTER:                  -9.517
REMARK INTRA:                  -0.837
REMARK UNBOUND:                -1.065
REMARK  Name = 
REMARK  8 active torsions:
REMARK  status: ('A' for Active; 'I' for Inactive)
REMARK    1  A    between atoms: C_1  and  C_2
REMARK    2  A    between atoms: C_6  and  C_7
REMARK    3  A    between atoms: C_7  and  N_8
REMARK    4  A    between atoms: N_8  and  C_9
REMARK    5  A    between atoms: C_12  and  C_13
REMARK    6  A    between atoms: C_13  and  N_14
REMARK    7  A    between atoms: N_14  and  C_15
REMARK    8  A    between atoms: C_16  and  C_18
REMARK                            x       y       z     vdW  Elec       q    Type
REMARK                         _______ _______ _______ _____ _____    ______ ____
ROOT
ATOM      1  C   UNL     1      45.350   3.962  12.424  0.00  0.00    +0.000 A 
ATOM      2  C   UNL     1      44.714   5.200  12.270  0.00  0.00    +0.000 A 
ATOM      3  C   UNL     1      45.298   6.385  12.746  0.00  0.00    +0.000 A 
ATOM      4  C   UNL     1      46.549   6.362  13.375  0.00  0.00    +0.000 A 
ATOM      5  C   UNL     1      47.119   5.118  13.653  0.00  0.00    +0.000 A 
ATOM      6  C   UNL     1      46.514   3.939  13.204  0.00  0.00    +0.000 A 
ENDROOT
BRANCH   1   7
ATOM      7  N   UNL     1      44.738   2.796  11.928  0.00  0.00    +0.000 N 
ATOM      8  H   UNL     1      44.142   2.375  12.638  0.00  0.00    +0.000 HD
BRANCH   7   9
ATOM      9  C   UNL     1      43.995   2.909  10.663  0.00  0.00    +0.000 C 
BRANCH   9  15
ATOM     10  C   UNL     1      46.806   0.329   7.612  0.00  0.00    +0.000 C 
ATOM     11  C   UNL     1      46.260   1.671   7.998  0.00  0.00    +0.000 A 
ATOM     12  C   UNL     1      46.576   2.810   7.265  0.00  0.00    +0.000 A 
ATOM     13  C   UNL     1      46.039   4.030   7.662  0.00  0.00    +0.000 A 
ATOM     14  C   UNL     1      45.203   4.079   8.776  0.00  0.00    +0.000 A 
ATOM     15  C   UNL     1      44.931   2.900   9.466  0.00  0.00    +0.000 A 
ATOM     16  N   UNL     1      45.452   1.703   9.086  0.00  0.00    +0.000 NA
ENDBRANCH   9  15
ENDBRANCH   7   9
ENDBRANCH   1   7
BRANCH   4  17
ATOM     17  C   UNL     1      47.297   7.643  13.673  0.00  0.00    +0.000 C 
BRANCH  17  18
ATOM     18  N   UNL     1      48.420   7.905  12.783  0.00  0.00    +0.000 N 
ATOM     19  C   UNL     1      48.282   7.470  11.402  0.00  0.00    +0.000 C 
ATOM     20  C   UNL     1      49.484   8.653  13.298  0.00  0.00    +0.000 C 
ATOM     21  O   UNL     1      49.519   8.990  14.477  0.00  0.00    +0.000 OA
BRANCH  20  22
ATOM     22  C   UNL     1      50.552   9.098  12.388  0.00  0.00    +0.000 A 
ATOM     23  C   UNL     1      51.778   8.467  12.220  0.00  0.00    +0.000 A 
ATOM     24  S   UNL     1      52.773   9.194  11.046  0.00  0.00    +0.000 S 
ATOM     25  C   UNL     1      51.540  10.272  10.611  0.00  0.00    +0.000 A 
ATOM     26  N   UNL     1      51.696  11.106   9.544  0.00  0.00    +0.000 NA
ATOM     27  C   UNL     1      50.656  11.826   9.293  0.00  0.00    +0.000 A 
ATOM     28  N   UNL     1      49.503  11.829  10.034  0.00  0.00    +0.000 N 
ATOM     29  C   UNL     1      49.349  11.101  11.190  0.00  0.00    +0.000 A 
ATOM     30  O   UNL     1      48.398  11.308  11.940  0.00  0.00    +0.000 OA
ATOM     31  C   UNL     1      50.438  10.171  11.434  0.00  0.00    +0.000 A 
ATOM     32  H   UNL     1      48.754  12.479   9.826  0.00  0.00    +0.000 HD
ENDBRANCH  20  22
ENDBRANCH  17  18
ENDBRANCH   4  17
TORSDOF 6
ENDMDL
MODEL 7
REMARK VINA RESULT:    -6.870      2.561      3.926
REMARK INTER + INTRA:         -10.345
REMARK INTER:                  -9.482
REMARK INTRA:                  -0.862
REMARK UNBOUND:                -1.065
REMARK  Name = 
REMARK  8 active torsions:
REMARK  status: ('A' for Active; 'I' for Inactive)
REMARK    1  A    between atoms: C_1  and  C_2
REMARK    2  A    between atoms: C_6  and  C_7
REMARK    3  A    between atoms: C_7  and  N_8
REMARK    4  A    between atoms: N_8  and  C_9
REMARK    5  A    between atoms: C_12  and  C_13
REMARK    6  A    between atoms: C_13  and  N_14
REMARK    7  A    between atoms: N_14  and  C_15
REMARK    8  A    between atoms: C_16  and  C_18
REMARK                            x       y       z     vdW  Elec       q    Type
REMARK                         _______ _______ _______ _____ _____    ______ ____
ROOT
ATOM      1  C   UNL     1      44.522   5.545  11.116  0.00  0.00    +0.000 A 
ATOM      2  C   UNL     1      44.578   6.931  10.932  0.00  0.00    +0.000 A 
ATOM      3  C   UNL     1      45.325   7.753  11.791  0.00  0.00    +0.000 A 
ATOM      4  C   UNL     1      46.054   7.200  12.852  0.00  0.00    +0.000 A 
ATOM      5  C   UNL     1      45.889   5.840  13.121  0.00  0.00    +0.000 A 
ATOM      6  C   UNL     1      45.116   5.034  12.278  0.00  0.00    +0.000 A 
ENDROOT
BRANCH   1   7
ATOM      7  N   UNL     1      43.769   4.752  10.230  0.00  0.00    +0.000 N 
ATOM      8  H   UNL     1      43.773   5.159   9.296  0.00  0.00    +0.000 HD
BRANCH   7   9
ATOM      9  C   UNL     1      44.106   3.323  10.148  0.00  0.00    +0.000 C 
BRANCH   9  15
ATOM     10  C   UNL     1      46.778   0.065   7.677  0.00  0.00    +0.000 C 
ATOM     11  C   UNL     1      46.392   1.501   7.863  0.00  0.00    +0.000 A 
ATOM     12  C   UNL     1      46.921   2.496   7.048  0.00  0.00    +0.000 A 
ATOM     13  C   UNL     1      46.525   3.813   7.259  0.00  0.00    +0.000 A 
ATOM     14  C   UNL     1      45.615   4.099   8.275  0.00  0.00    +0.000 A 
ATOM     15  C   UNL     1      45.128   3.054   9.056  0.00  0.00    +0.000 A 
ATOM     16  N   UNL     1      45.508   1.764   8.858  0.00  0.00    +0.000 NA
ENDBRANCH   9  15
ENDBRANCH   7   9
ENDBRANCH   1   7
BRANCH   4  17
ATOM     17  C   UNL     1      47.048   8.031  13.633  0.00  0.00    +0.000 C 
BRANCH  17  18
ATOM     18  N   UNL     1      48.208   8.462  12.863  0.00  0.00    +0.000 N 
ATOM     19  C   UNL     1      48.164   9.801  12.298  0.00  0.00    +0.000 C 
ATOM     20  C   UNL     1      49.310   7.601  12.829  0.00  0.00    +0.000 C 
ATOM     21  O   UNL     1      49.268   6.487  13.342  0.00  0.00    +0.000 OA
BRANCH  20  22
ATOM     22  C   UNL     1      50.566   8.069  12.222  0.00  0.00    +0.000 A 
ATOM     23  C   UNL     1      50.993   7.773  10.934  0.00  0.00    +0.000 A 
ATOM     24  S   UNL     1      52.463   8.518  10.506  0.00  0.00    +0.000 S 
ATOM     25  C   UNL     1      52.493   9.386  11.961  0.00  0.00    +0.000 A 
ATOM     26  N   UNL     1      53.445  10.337  12.180  0.00  0.00    +0.000 NA
ATOM     27  C   UNL     1      53.310  10.958  13.302  0.00  0.00    +0.000 A 
ATOM     28  N   UNL     1      52.350  10.684  14.242  0.00  0.00    +0.000 N 
ATOM     29  C   UNL     1      51.450   9.651  14.122  0.00  0.00    +0.000 A 
ATOM     30  O   UNL     1      50.767   9.299  15.080  0.00  0.00    +0.000 OA
ATOM     31  C   UNL     1      51.475   9.016  12.815  0.00  0.00    +0.000 A 
ATOM     32  H   UNL     1      52.351  11.158  15.138  0.00  0.00    +0.000 HD
ENDBRANCH  20  22
ENDBRANCH  17  18
ENDBRANCH   4  17
TORSDOF 6
ENDMDL
MODEL 8
REMARK VINA RESULT:    -6.839      3.568      5.789
REMARK INTER + INTRA:         -10.302
REMARK INTER:                  -9.205
REMARK INTRA:                  -1.098
REMARK UNBOUND:                -1.065
REMARK  Name = 
REMARK  8 active torsions:
REMARK  status: ('A' for Active; 'I' for Inactive)
REMARK    1  A    between atoms: C_1  and  C_2
REMARK    2  A    between atoms: C_6  and  C_7
REMARK    3  A    between atoms: C_7  and  N_8
REMARK    4  A    between atoms: N_8  and  C_9
REMARK    5  A    between atoms: C_12  and  C_13
REMARK    6  A    between atoms: C_13  and  N_14
REMARK    7  A    between atoms: N_14  and  C_15
REMARK    8  A    between atoms: C_16  and  C_18
REMARK                            x       y       z     vdW  Elec       q    Type
REMARK                         _______ _______ _______ _____ _____    ______ ____
ROOT
ATOM      1  C   UNL     1      45.667   7.197  11.557  0.00  0.00    +0.000 A 
ATOM      2  C   UNL     1      45.304   8.232  12.426  0.00  0.00    +0.000 A 
ATOM      3  C   UNL     1      46.235   8.810  13.303  0.00  0.00    +0.000 A 
ATOM      4  C   UNL     1      47.567   8.376  13.319  0.00  0.00    +0.000 A 
ATOM      5  C   UNL     1      47.897   7.255  12.555  0.00  0.00    +0.000 A 
ATOM      6  C   UNL     1      46.954   6.664  11.707  0.00  0.00    +0.000 A 
ENDROOT
BRANCH   1   7
ATOM      7  N   UNL     1      44.708   6.648  10.686  0.00  0.00    +0.000 N 
ATOM      8  H   UNL     1      45.082   6.579   9.741  0.00  0.00    +0.000 HD
BRANCH   7   9
ATOM      9  C   UNL     1      44.100   5.365  11.073  0.00  0.00    +0.000 C 
BRANCH   9  15
ATOM     10  C   UNL     1      46.637   3.982   7.135  0.00  0.00    +0.000 C 
ATOM     11  C   UNL     1      45.733   3.580   8.261  0.00  0.00    +0.000 A 
ATOM     12  C   UNL     1      45.343   2.256   8.428  0.00  0.00    +0.000 A 
ATOM     13  C   UNL     1      44.506   1.935   9.492  0.00  0.00    +0.000 A 
ATOM     14  C   UNL     1      44.084   2.941  10.357  0.00  0.00    +0.000 A 
ATOM     15  C   UNL     1      44.511   4.248  10.129  0.00  0.00    +0.000 A 
ATOM     16  N   UNL     1      45.328   4.572   9.092  0.00  0.00    +0.000 NA
ENDBRANCH   9  15
ENDBRANCH   7   9
ENDBRANCH   1   7
BRANCH   4  17
ATOM     17  C   UNL     1      48.630   9.142  14.075  0.00  0.00    +0.000 C 
BRANCH  17  18
ATOM     18  N   UNL     1      48.971   8.576  15.373  0.00  0.00    +0.000 N 
ATOM     19  C   UNL     1      48.095   8.905  16.486  0.00  0.00    +0.000 C 
ATOM     20  C   UNL     1      50.040   7.675  15.418  0.00  0.00    +0.000 C 
ATOM     21  O   UNL     1      50.725   7.445  14.428  0.00  0.00    +0.000 OA
BRANCH  20  22
ATOM     22  C   UNL     1      50.304   6.940  16.666  0.00  0.00    +0.000 A 
ATOM     23  C   UNL     1      51.232   7.307  17.632  0.00  0.00    +0.000 A 
ATOM     24  S   UNL     1      51.255   6.281  18.991  0.00  0.00    +0.000 S 
ATOM     25  C   UNL     1      49.921   5.414  18.409  0.00  0.00    +0.000 A 
ATOM     26  N   UNL     1      49.332   4.454  19.177  0.00  0.00    +0.000 NA
ATOM     27  C   UNL     1      48.293   3.920  18.633  0.00  0.00    +0.000 A 
ATOM     28  N   UNL     1      47.821   4.215  17.380  0.00  0.00    +0.000 N 
ATOM     29  C   UNL     1      48.456   5.081  16.521  0.00  0.00    +0.000 A 
ATOM     30  O   UNL     1      48.132   5.140  15.338  0.00  0.00    +0.000 OA
ATOM     31  C   UNL     1      49.548   5.810  17.142  0.00  0.00    +0.000 A 
ATOM     32  H   UNL     1      47.045   3.698  16.983  0.00  0.00    +0.000 HD
ENDBRANCH  20  22
ENDBRANCH  17  18
ENDBRANCH   4  17
TORSDOF 6
ENDMDL
MODEL 9
REMARK VINA RESULT:    -6.745      5.205      7.951
REMARK INTER + INTRA:         -10.175
REMARK INTER:                  -9.088
REMARK INTRA:                  -1.087
REMARK UNBOUND:                -1.065
REMARK  Name = 
REMARK  8 active torsions:
REMARK  status: ('A' for Active; 'I' for Inactive)
REMARK    1  A    between atoms: C_1  and  C_2
REMARK    2  A    between atoms: C_6  and  C_7
REMARK    3  A    between atoms: C_7  and  N_8
REMARK    4  A    between atoms: N_8  and  C_9
REMARK    5  A    between atoms: C_12  and  C_13
REMARK    6  A    between atoms: C_13  and  N_14
REMARK    7  A    between atoms: N_14  and  C_15
REMARK    8  A    between atoms: C_16  and  C_18
REMARK                            x       y       z     vdW  Elec       q    Type
REMARK                         _______ _______ _______ _____ _____    ______ ____
ROOT
ATOM      1  C   UNL     1      47.567   6.716  13.144  0.00  0.00    +0.000 A 
ATOM      2  C   UNL     1      47.962   7.972  13.618  0.00  0.00    +0.000 A 
ATOM      3  C   UNL     1      48.482   8.135  14.911  0.00  0.00    +0.000 A 
ATOM      4  C   UNL     1      48.637   7.033  15.763  0.00  0.00    +0.000 A 
ATOM      5  C   UNL     1      48.117   5.806  15.345  0.00  0.00    +0.000 A 
ATOM      6  C   UNL     1      47.570   5.660  14.065  0.00  0.00    +0.000 A 
ENDROOT
BRANCH   1   7
ATOM      7  N   UNL     1      47.057   6.590  11.838  0.00  0.00    +0.000 N 
ATOM      8  H   UNL     1      47.336   5.700  11.430  0.00  0.00    +0.000 HD
BRANCH   7   9
ATOM      9  C   UNL     1      45.611   6.787  11.656  0.00  0.00    +0.000 C 
BRANCH   9  15
ATOM     10  C   UNL     1      44.537   2.499   9.577  0.00  0.00    +0.000 C 
ATOM     11  C   UNL     1      44.355   3.416  10.748  0.00  0.00    +0.000 A 
ATOM     12  C   UNL     1      43.571   3.043  11.835  0.00  0.00    +0.000 A 
ATOM     13  C   UNL     1      43.438   3.929  12.899  0.00  0.00    +0.000 A 
ATOM     14  C   UNL     1      44.089   5.160  12.849  0.00  0.00    +0.000 A 
ATOM     15  C   UNL     1      44.856   5.470  11.728  0.00  0.00    +0.000 A 
ATOM     16  N   UNL     1      44.992   4.611  10.684  0.00  0.00    +0.000 NA
ENDBRANCH   9  15
ENDBRANCH   7   9
ENDBRANCH   1   7
BRANCH   4  17
ATOM     17  C   UNL     1      49.413   7.148  17.056  0.00  0.00    +0.000 C 
BRANCH  17  18
ATOM     18  N   UNL     1      50.552   6.245  17.157  0.00  0.00    +0.000 N 
ATOM     19  C   UNL     1      51.680   6.507  16.277  0.00  0.00    +0.000 C 
ATOM     20  C   UNL     1      50.515   5.278  18.166  0.00  0.00    +0.000 C 
ATOM     21  O   UNL     1      49.525   5.128  18.875  0.00  0.00    +0.000 OA
BRANCH  20  22
ATOM     22  C   UNL     1      51.716   4.467  18.425  0.00  0.00    +0.000 A 
ATOM     23  C   UNL     1      52.802   4.864  19.194  0.00  0.00    +0.000 A 
ATOM     24  S   UNL     1      54.008   3.672  19.353  0.00  0.00    +0.000 S 
ATOM     25  C   UNL     1      53.049   2.536  18.539  0.00  0.00    +0.000 A 
ATOM     26  N   UNL     1      53.446   1.236  18.444  0.00  0.00    +0.000 NA
ATOM     27  C   UNL     1      52.592   0.474  17.852  0.00  0.00    +0.000 A 
ATOM     28  N   UNL     1      51.409   0.896  17.302  0.00  0.00    +0.000 N 
ATOM     29  C   UNL     1      51.027   2.216  17.260  0.00  0.00    +0.000 A 
ATOM     30  O   UNL     1      50.082   2.574  16.562  0.00  0.00    +0.000 OA
ATOM     31  C   UNL     1      51.889   3.090  18.037  0.00  0.00    +0.000 A 
ATOM     32  H   UNL     1      50.822   0.256  16.781  0.00  0.00    +0.000 HD
ENDBRANCH  20  22
ENDBRANCH  17  18
ENDBRANCH   4  17
TORSDOF 6
ENDMDL
