MODEL 1
REMARK VINA RESULT:    -7.421      0.000      0.000
REMARK INTER + INTRA:         -10.329
REMARK INTER:                  -9.590
REMARK INTRA:                  -0.738
REMARK UNBOUND:                -0.738
REMARK  Name = 
REMARK  6 active torsions:
REMARK  status: ('A' for Active; 'I' for Inactive)
REMARK    1  A    between atoms: C_1  and  C_2
REMARK    2  A    between atoms: C_5  and  N_6
REMARK    3  A    between atoms: N_6  and  C_7
REMARK    4  A    between atoms: C_7  and  C_8
REMARK    5  A    between atoms: C_12  and  C_13
REMARK    6  A    between atoms: C_17  and  N_18
REMARK                            x       y       z     vdW  Elec       q    Type
REMARK                         _______ _______ _______ _____ _____    ______ ____
ROOT
ATOM      1  C   UNL     1      47.728   5.774  14.645  0.00  0.00    +0.000 C 
ATOM      2  C   UNL     1      46.793   5.772  13.469  0.00  0.00    +0.000 A 
ATOM      3  C   UNL     1      45.876   4.720  13.396  0.00  0.00    +0.000 A 
ATOM      4  N   UNL     1      44.981   4.527  12.405  0.00  0.00    +0.000 NA
ATOM      5  C   UNL     1      44.989   5.402  11.392  0.00  0.00    +0.000 A 
ATOM      6  C   UNL     1      45.903   6.460  11.360  0.00  0.00    +0.000 A 
ATOM      7  C   UNL     1      46.818   6.698  12.411  0.00  0.00    +0.000 A 
ENDROOT
BRANCH   7   8
ATOM      8  N   UNL     1      47.718   7.750  12.330  0.00  0.00    +0.000 N 
ATOM      9  C   UNL     1      48.929   7.673  11.492  0.00  0.00    +0.000 C 
ATOM     10  C   UNL     1      50.126   8.278  12.268  0.00  0.00    +0.000 C 
ATOM     11  N   UNL     1      49.897   9.657  12.757  0.00  0.00    +0.000 NA
ATOM     12  C   UNL     1      48.641   9.685  13.542  0.00  0.00    +0.000 C 
ATOM     13  C   UNL     1      47.424   9.126  12.765  0.00  0.00    +0.000 C 
ATOM     14  H   UNL     1      49.776  10.263  11.947  0.00  0.00    +0.000 HD
ENDBRANCH   7   8
BRANCH   5  15
ATOM     15  N   UNL     1      44.129   5.199  10.293  0.00  0.00    +0.000 N 
ATOM     16  H   UNL     1      43.229   5.633  10.462  0.00  0.00    +0.000 HD
BRANCH  15  17
ATOM     17  C   UNL     1      43.970   3.782   9.965  0.00  0.00    +0.000 C 
BRANCH  17  18
ATOM     18  C   UNL     1      45.046   3.360   8.984  0.00  0.00    +0.000 A 
ATOM     19  C   UNL     1      45.697   4.296   8.168  0.00  0.00    +0.000 A 
ATOM     20  C   UNL     1      46.660   3.887   7.242  0.00  0.00    +0.000 A 
ATOM     21  C   UNL     1      46.979   2.533   7.117  0.00  0.00    +0.000 A 
ATOM     22  C   UNL     1      46.337   1.586   7.921  0.00  0.00    +0.000 A 
ATOM     23  C   UNL     1      45.375   1.999   8.848  0.00  0.00    +0.000 A 
BRANCH  22  24
ATOM     24  C   UNL     1      46.662   0.194   7.789  0.00  0.00    +0.000 C 
ATOM     25  N   UNL     1      46.926  -0.926   7.681  0.00  0.00    +0.000 NA
ENDBRANCH  22  24
ENDBRANCH  17  18
ENDBRANCH  15  17
ENDBRANCH   5  15
TORSDOF 5
ENDMDL
MODEL 2
REMARK VINA RESULT:    -7.310      1.183      1.836
REMARK INTER + INTRA:         -10.184
REMARK INTER:                  -9.512
REMARK INTRA:                  -0.673
REMARK UNBOUND:                -0.738
REMARK  Name = 
REMARK  6 active torsions:
REMARK  status: ('A' for Active; 'I' for Inactive)
REMARK    1  A    between atoms: C_1  and  C_2
REMARK    2  A    between atoms: C_5  and  N_6
REMARK    3  A    between atoms: N_6  and  C_7
REMARK    4  A    between atoms: C_7  and  C_8
REMARK    5  A    between atoms: C_12  and  C_13
REMARK    6  A    between atoms: C_17  and  N_18
REMARK                            x       y       z     vdW  Elec       q    Type
REMARK                         _______ _______ _______ _____ _____    ______ ____
ROOT
ATOM      1  C   UNL     1      45.376   9.569  12.222  0.00  0.00    +0.000 C 
ATOM      2  C   UNL     1      45.318   8.090  11.966  0.00  0.00    +0.000 A 
ATOM      3  C   UNL     1      44.085   7.568  11.566  0.00  0.00    +0.000 A 
ATOM      4  N   UNL     1      43.826   6.267  11.321  0.00  0.00    +0.000 NA
ATOM      5  C   UNL     1      44.827   5.397  11.501  0.00  0.00    +0.000 A 
ATOM      6  C   UNL     1      46.083   5.825  11.944  0.00  0.00    +0.000 A 
ATOM      7  C   UNL     1      46.380   7.190  12.164  0.00  0.00    +0.000 A 
ENDROOT
BRANCH   7   8
ATOM      8  N   UNL     1      47.635   7.567  12.619  0.00  0.00    +0.000 N 
ATOM      9  C   UNL     1      48.631   8.189  11.726  0.00  0.00    +0.000 C 
ATOM     10  C   UNL     1      50.026   7.579  12.013  0.00  0.00    +0.000 C 
ATOM     11  N   UNL     1      50.446   7.667  13.431  0.00  0.00    +0.000 NA
ATOM     12  C   UNL     1      49.385   7.080  14.282  0.00  0.00    +0.000 C 
ATOM     13  C   UNL     1      47.991   7.710  14.040  0.00  0.00    +0.000 C 
ATOM     14  H   UNL     1      50.535   8.652  13.673  0.00  0.00    +0.000 HD
ENDBRANCH   7   8
BRANCH   5  15
ATOM     15  N   UNL     1      44.586   4.017  11.338  0.00  0.00    +0.000 N 
ATOM     16  H   UNL     1      45.445   3.492  11.450  0.00  0.00    +0.000 HD
BRANCH  15  17
ATOM     17  C   UNL     1      43.953   3.712  10.055  0.00  0.00    +0.000 C 
BRANCH  17  18
ATOM     18  C   UNL     1      45.010   3.308   9.046  0.00  0.00    +0.000 A 
ATOM     19  C   UNL     1      45.634   4.256   8.223  0.00  0.00    +0.000 A 
ATOM     20  C   UNL     1      46.579   3.864   7.271  0.00  0.00    +0.000 A 
ATOM     21  C   UNL     1      46.908   2.514   7.128  0.00  0.00    +0.000 A 
ATOM     22  C   UNL     1      46.293   1.555   7.940  0.00  0.00    +0.000 A 
ATOM     23  C   UNL     1      45.349   1.951   8.891  0.00  0.00    +0.000 A 
BRANCH  22  24
ATOM     24  C   UNL     1      46.629   0.167   7.789  0.00  0.00    +0.000 C 
ATOM     25  N   UNL     1      46.897  -0.950   7.666  0.00  0.00    +0.000 NA
ENDBRANCH  22  24
ENDBRANCH  17  18
ENDBRANCH  15  17
ENDBRANCH   5  15
TORSDOF 5
ENDMDL
MODEL 3
REMARK VINA RESULT:    -6.477      3.601      7.982
REMARK INTER + INTRA:          -9.108
REMARK INTER:                  -8.755
REMARK INTRA:                  -0.353
REMARK UNBOUND:                -0.738
REMARK  Name = 
REMARK  6 active torsions:
REMARK  status: ('A' for Active; 'I' for Inactive)
REMARK    1  A    between atoms: C_1  and  C_2
REMARK    2  A    between atoms: C_5  and  N_6
REMARK    3  A    between atoms: N_6  and  C_7
REMARK    4  A    between atoms: C_7  and  C_8
REMARK    5  A    between atoms: C_12  and  C_13
REMARK    6  A    between atoms: C_17  and  N_18
REMARK                            x       y       z     vdW  Elec       q    Type
REMARK                         _______ _______ _______ _____ _____    ______ ____
ROOT
ATOM      1  C   UNL     1      47.316   7.946  12.020  0.00  0.00    +0.000 C 
ATOM      2  C   UNL     1      47.158   6.744  12.908  0.00  0.00    +0.000 A 
ATOM      3  C   UNL     1      48.018   6.656  14.006  0.00  0.00    +0.000 A 
ATOM      4  N   UNL     1      48.053   5.642  14.895  0.00  0.00    +0.000 NA
ATOM      5  C   UNL     1      47.211   4.621  14.696  0.00  0.00    +0.000 A 
ATOM      6  C   UNL     1      46.347   4.603  13.596  0.00  0.00    +0.000 A 
ATOM      7  C   UNL     1      46.270   5.677  12.680  0.00  0.00    +0.000 A 
ENDROOT
BRANCH   7   8
ATOM      8  N   UNL     1      45.410   5.610  11.594  0.00  0.00    +0.000 N 
ATOM      9  C   UNL     1      43.987   5.982  11.706  0.00  0.00    +0.000 C 
ATOM     10  C   UNL     1      43.127   4.953  10.931  0.00  0.00    +0.000 C 
ATOM     11  N   UNL     1      43.526   4.772   9.516  0.00  0.00    +0.000 NA
ATOM     12  C   UNL     1      44.973   4.456   9.463  0.00  0.00    +0.000 C 
ATOM     13  C   UNL     1      45.852   5.500  10.194  0.00  0.00    +0.000 C 
ATOM     14  H   UNL     1      43.378   5.656   9.032  0.00  0.00    +0.000 HD
ENDBRANCH   7   8
BRANCH   5  15
ATOM     15  N   UNL     1      47.264   3.500  15.550  0.00  0.00    +0.000 N 
ATOM     16  H   UNL     1      46.376   3.011  15.549  0.00  0.00    +0.000 HD
BRANCH  15  17
ATOM     17  C   UNL     1      47.660   3.857  16.912  0.00  0.00    +0.000 C 
BRANCH  17  18
ATOM     18  C   UNL     1      49.093   3.431  17.157  0.00  0.00    +0.000 A 
ATOM     19  C   UNL     1      49.506   2.107  16.953  0.00  0.00    +0.000 A 
ATOM     20  C   UNL     1      50.822   1.720  17.219  0.00  0.00    +0.000 A 
ATOM     21  C   UNL     1      51.742   2.655  17.699  0.00  0.00    +0.000 A 
ATOM     22  C   UNL     1      51.346   3.979  17.911  0.00  0.00    +0.000 A 
ATOM     23  C   UNL     1      50.029   4.363  17.642  0.00  0.00    +0.000 A 
BRANCH  22  24
ATOM     24  C   UNL     1      52.291   4.939  18.409  0.00  0.00    +0.000 C 
ATOM     25  N   UNL     1      53.053   5.710  18.808  0.00  0.00    +0.000 NA
ENDBRANCH  22  24
ENDBRANCH  17  18
ENDBRANCH  15  17
ENDBRANCH   5  15
TORSDOF 5
ENDMDL
MODEL 4
REMARK VINA RESULT:    -6.471      2.801      4.516
REMARK INTER + INTRA:          -9.101
REMARK INTER:                  -8.462
REMARK INTRA:                  -0.639
REMARK UNBOUND:                -0.738
REMARK  Name = 
REMARK  6 active torsions:
REMARK  status: ('A' for Active; 'I' for Inactive)
REMARK    1  A    between atoms: C_1  and  C_2
REMARK    2  A    between atoms: C_5  and  N_6
REMARK    3  A    between atoms: N_6  and  C_7
REMARK    4  A    between atoms: C_7  and  C_8
REMARK    5  A    between atoms: C_12  and  C_13
REMARK    6  A    between atoms: C_17  and  N_18
REMARK                            x       y       z     vdW  Elec       q    Type
REMARK                         _______ _______ _______ _____ _____    ______ ____
ROOT
ATOM      1  C   UNL     1      49.491   6.734  15.603  0.00  0.00    +0.000 C 
ATOM      2  C   UNL     1      48.324   6.210  14.815  0.00  0.00    +0.000 A 
ATOM      3  C   UNL     1      47.950   6.939  13.683  0.00  0.00    +0.000 A 
ATOM      4  N   UNL     1      46.914   6.649  12.869  0.00  0.00    +0.000 NA
ATOM      5  C   UNL     1      46.163   5.587  13.186  0.00  0.00    +0.000 A 
ATOM      6  C   UNL     1      46.436   4.826  14.328  0.00  0.00    +0.000 A 
ATOM      7  C   UNL     1      47.543   5.094  15.166  0.00  0.00    +0.000 A 
ENDROOT
BRANCH   7   8
ATOM      8  N   UNL     1      47.766   4.323  16.297  0.00  0.00    +0.000 N 
ATOM      9  C   UNL     1      47.240   4.711  17.618  0.00  0.00    +0.000 C 
ATOM     10  C   UNL     1      48.326   4.463  18.694  0.00  0.00    +0.000 C 
ATOM     11  N   UNL     1      48.858   3.081  18.712  0.00  0.00    +0.000 NA
ATOM     12  C   UNL     1      49.319   2.727  17.349  0.00  0.00    +0.000 C 
ATOM     13  C   UNL     1      48.230   2.926  16.266  0.00  0.00    +0.000 C 
ATOM     14  H   UNL     1      48.095   2.453  18.960  0.00  0.00    +0.000 HD
ENDBRANCH   7   8
BRANCH   5  15
ATOM     15  N   UNL     1      45.021   5.289  12.415  0.00  0.00    +0.000 N 
ATOM     16  H   UNL     1      44.780   4.309  12.502  0.00  0.00    +0.000 HD
BRANCH  15  17
ATOM     17  C   UNL     1      45.186   5.662  11.010  0.00  0.00    +0.000 C 
BRANCH  17  18
ATOM     18  C   UNL     1      45.085   4.426  10.138  0.00  0.00    +0.000 A 
ATOM     19  C   UNL     1      44.442   3.265  10.589  0.00  0.00    +0.000 A 
ATOM     20  C   UNL     1      44.390   2.121   9.788  0.00  0.00    +0.000 A 
ATOM     21  C   UNL     1      44.986   2.124   8.526  0.00  0.00    +0.000 A 
ATOM     22  C   UNL     1      45.635   3.273   8.062  0.00  0.00    +0.000 A 
ATOM     23  C   UNL     1      45.684   4.416   8.865  0.00  0.00    +0.000 A 
BRANCH  22  24
ATOM     24  C   UNL     1      46.252   3.274   6.765  0.00  0.00    +0.000 C 
ATOM     25  N   UNL     1      46.746   3.275   5.721  0.00  0.00    +0.000 NA
ENDBRANCH  22  24
ENDBRANCH  17  18
ENDBRANCH  15  17
ENDBRANCH   5  15
TORSDOF 5
ENDMDL
MODEL 5
REMARK VINA RESULT:    -6.193      4.147      8.221
REMARK INTER + INTRA:          -8.741
REMARK INTER:                  -8.123
REMARK INTRA:                  -0.618
REMARK UNBOUND:                -0.738
REMARK  Name = 
REMARK  6 active torsions:
REMARK  status: ('A' for Active; 'I' for Inactive)
REMARK    1  A    between atoms: C_1  and  C_2
REMARK    2  A    between atoms: C_5  and  N_6
REMARK    3  A    between atoms: N_6  and  C_7
REMARK    4  A    between atoms: C_7  and  C_8
REMARK    5  A    between atoms: C_12  and  C_13
REMARK    6  A    between atoms: C_17  and  N_18
REMARK                            x       y       z     vdW  Elec       q    Type
REMARK                         _______ _______ _______ _____ _____    ______ ____
ROOT
ATOM      1  C   UNL     1      46.561   6.725  11.585  0.00  0.00    +0.000 C 
ATOM      2  C   UNL     1      46.855   6.089  12.914  0.00  0.00    +0.000 A 
ATOM      3  C   UNL     1      48.007   6.519  13.577  0.00  0.00    +0.000 A 
ATOM      4  N   UNL     1      48.455   6.046  14.759  0.00  0.00    +0.000 NA
ATOM      5  C   UNL     1      47.751   5.064  15.334  0.00  0.00    +0.000 A 
ATOM      6  C   UNL     1      46.609   4.540  14.719  0.00  0.00    +0.000 A 
ATOM      7  C   UNL     1      46.105   5.053  13.502  0.00  0.00    +0.000 A 
ENDROOT
BRANCH   7   8
ATOM      8  N   UNL     1      44.978   4.492  12.920  0.00  0.00    +0.000 N 
ATOM      9  C   UNL     1      45.024   3.182  12.244  0.00  0.00    +0.000 C 
ATOM     10  C   UNL     1      44.200   3.254  10.934  0.00  0.00    +0.000 C 
ATOM     11  N   UNL     1      42.805   3.716  11.119  0.00  0.00    +0.000 NA
ATOM     12  C   UNL     1      42.820   5.004  11.850  0.00  0.00    +0.000 C 
ATOM     13  C   UNL     1      43.601   4.939  13.186  0.00  0.00    +0.000 C 
ATOM     14  H   UNL     1      42.320   3.031  11.697  0.00  0.00    +0.000 HD
ENDBRANCH   7   8
BRANCH   5  15
ATOM     15  N   UNL     1      48.222   4.480  16.528  0.00  0.00    +0.000 N 
ATOM     16  H   UNL     1      47.451   4.095  17.062  0.00  0.00    +0.000 HD
BRANCH  15  17
ATOM     17  C   UNL     1      48.998   5.419  17.338  0.00  0.00    +0.000 C 
BRANCH  17  18
ATOM     18  C   UNL     1      50.412   4.901  17.507  0.00  0.00    +0.000 A 
ATOM     19  C   UNL     1      51.515   5.765  17.470  0.00  0.00    +0.000 A 
ATOM     20  C   UNL     1      52.816   5.269  17.591  0.00  0.00    +0.000 A 
ATOM     21  C   UNL     1      53.029   3.897  17.745  0.00  0.00    +0.000 A 
ATOM     22  C   UNL     1      51.940   3.020  17.780  0.00  0.00    +0.000 A 
ATOM     23  C   UNL     1      50.640   3.521  17.661  0.00  0.00    +0.000 A 
BRANCH  22  24
ATOM     24  C   UNL     1      52.159   1.610  17.934  0.00  0.00    +0.000 C 
ATOM     25  N   UNL     1      52.336   0.475  18.060  0.00  0.00    +0.000 NA
ENDBRANCH  22  24
ENDBRANCH  17  18
ENDBRANCH  15  17
ENDBRANCH   5  15
TORSDOF 5
ENDMDL
MODEL 6
REMARK VINA RESULT:    -5.857      3.851      9.227
REMARK INTER + INTRA:          -8.307
REMARK INTER:                  -7.626
REMARK INTRA:                  -0.681
REMARK UNBOUND:                -0.738
REMARK  Name = 
REMARK  6 active torsions:
REMARK  status: ('A' for Active; 'I' for Inactive)
REMARK    1  A    between atoms: C_1  and  C_2
REMARK    2  A    between atoms: C_5  and  N_6
REMARK    3  A    between atoms: N_6  and  C_7
REMARK    4  A    between atoms: C_7  and  C_8
REMARK    5  A    between atoms: C_12  and  C_13
REMARK    6  A    between atoms: C_17  and  N_18
REMARK                            x       y       z     vdW  Elec       q    Type
REMARK                         _______ _______ _______ _____ _____    ______ ____
ROOT
ATOM      1  C   UNL     1      46.917   6.811  11.755  0.00  0.00    +0.000 C 
ATOM      2  C   UNL     1      47.069   6.108  13.074  0.00  0.00    +0.000 A 
ATOM      3  C   UNL     1      48.152   6.489  13.870  0.00  0.00    +0.000 A 
ATOM      4  N   UNL     1      48.473   5.955  15.066  0.00  0.00    +0.000 NA
ATOM      5  C   UNL     1      47.705   4.957  15.519  0.00  0.00    +0.000 A 
ATOM      6  C   UNL     1      46.626   4.479  14.767  0.00  0.00    +0.000 A 
ATOM      7  C   UNL     1      46.253   5.057  13.532  0.00  0.00    +0.000 A 
ENDROOT
BRANCH   7   8
ATOM      8  N   UNL     1      45.186   4.541  12.813  0.00  0.00    +0.000 N 
ATOM      9  C   UNL     1      45.246   3.209  12.181  0.00  0.00    +0.000 C 
ATOM     10  C   UNL     1      44.616   3.285  10.768  0.00  0.00    +0.000 C 
ATOM     11  N   UNL     1      43.238   3.828  10.747  0.00  0.00    +0.000 NA
ATOM     12  C   UNL     1      43.228   5.137  11.442  0.00  0.00    +0.000 C 
ATOM     13  C   UNL     1      43.814   5.070  12.875  0.00  0.00    +0.000 C 
ATOM     14  H   UNL     1      42.640   3.190  11.268  0.00  0.00    +0.000 HD
ENDBRANCH   7   8
BRANCH   5  15
ATOM     15  N   UNL     1      48.046   4.310  16.725  0.00  0.00    +0.000 N 
ATOM     16  H   UNL     1      47.236   4.236  17.328  0.00  0.00    +0.000 HD
BRANCH  15  17
ATOM     17  C   UNL     1      49.152   4.971  17.417  0.00  0.00    +0.000 C 
BRANCH  17  18
ATOM     18  C   UNL     1      48.642   5.634  18.681  0.00  0.00    +0.000 A 
ATOM     19  C   UNL     1      48.552   4.929  19.889  0.00  0.00    +0.000 A 
ATOM     20  C   UNL     1      48.044   5.542  21.037  0.00  0.00    +0.000 A 
ATOM     21  C   UNL     1      47.614   6.870  20.989  0.00  0.00    +0.000 A 
ATOM     22  C   UNL     1      47.694   7.587  19.791  0.00  0.00    +0.000 A 
ATOM     23  C   UNL     1      48.204   6.971  18.644  0.00  0.00    +0.000 A 
BRANCH  22  24
ATOM     24  C   UNL     1      47.247   8.951  19.740  0.00  0.00    +0.000 C 
ATOM     25  N   UNL     1      46.886  10.047  19.699  0.00  0.00    +0.000 NA
ENDBRANCH  22  24
ENDBRANCH  17  18
ENDBRANCH  15  17
ENDBRANCH   5  15
TORSDOF 5
ENDMDL
MODEL 7
REMARK VINA RESULT:    -5.817      2.794      7.589
REMARK INTER + INTRA:          -8.255
REMARK INTER:                  -7.527
REMARK INTRA:                  -0.729
REMARK UNBOUND:                -0.738
REMARK  Name = 
REMARK  6 active torsions:
REMARK  status: ('A' for Active; 'I' for Inactive)
REMARK    1  A    between atoms: C_1  and  C_2
REMARK    2  A    between atoms: C_5  and  N_6
REMARK    3  A    between atoms: N_6  and  C_7
REMARK    4  A    between atoms: C_7  and  C_8
REMARK    5  A    between atoms: C_12  and  C_13
REMARK    6  A    between atoms: C_17  and  N_18
REMARK                            x       y       z     vdW  Elec       q    Type
REMARK                         _______ _______ _______ _____ _____    ______ ____
ROOT
ATOM      1  C   UNL     1      44.517   8.723  11.374  0.00  0.00    +0.000 C 
ATOM      2  C   UNL     1      45.705   8.119  12.067  0.00  0.00    +0.000 A 
ATOM      3  C   UNL     1      46.741   8.990  12.414  0.00  0.00    +0.000 A 
ATOM      4  N   UNL     1      47.899   8.634  13.009  0.00  0.00    +0.000 NA
ATOM      5  C   UNL     1      48.083   7.334  13.266  0.00  0.00    +0.000 A 
ATOM      6  C   UNL     1      47.118   6.385  12.912  0.00  0.00    +0.000 A 
ATOM      7  C   UNL     1      45.883   6.748  12.326  0.00  0.00    +0.000 A 
ENDROOT
BRANCH   7   8
ATOM      8  N   UNL     1      44.962   5.772  11.975  0.00  0.00    +0.000 N 
ATOM      9  C   UNL     1      43.764   5.506  12.793  0.00  0.00    +0.000 C 
ATOM     10  C   UNL     1      43.551   3.975  12.904  0.00  0.00    +0.000 C 
ATOM     11  N   UNL     1      43.479   3.277  11.600  0.00  0.00    +0.000 NA
ATOM     12  C   UNL     1      44.678   3.625  10.803  0.00  0.00    +0.000 C 
ATOM     13  C   UNL     1      44.881   5.152  10.643  0.00  0.00    +0.000 C 
ATOM     14  H   UNL     1      42.659   3.620  11.103  0.00  0.00    +0.000 HD
ENDBRANCH   7   8
BRANCH   5  15
ATOM     15  N   UNL     1      49.308   6.900  13.813  0.00  0.00    +0.000 N 
ATOM     16  H   UNL     1      49.366   5.889  13.796  0.00  0.00    +0.000 HD
BRANCH  15  17
ATOM     17  C   UNL     1      49.525   7.411  15.166  0.00  0.00    +0.000 C 
BRANCH  17  18
ATOM     18  C   UNL     1      49.626   6.254  16.140  0.00  0.00    +0.000 A 
ATOM     19  C   UNL     1      50.815   5.983  16.830  0.00  0.00    +0.000 A 
ATOM     20  C   UNL     1      50.905   4.890  17.696  0.00  0.00    +0.000 A 
ATOM     21  C   UNL     1      49.804   4.050  17.879  0.00  0.00    +0.000 A 
ATOM     22  C   UNL     1      48.610   4.305  17.196  0.00  0.00    +0.000 A 
ATOM     23  C   UNL     1      48.524   5.400  16.331  0.00  0.00    +0.000 A 
BRANCH  22  24
ATOM     24  C   UNL     1      47.480   3.440  17.381  0.00  0.00    +0.000 C 
ATOM     25  N   UNL     1      46.570   2.744  17.531  0.00  0.00    +0.000 NA
ENDBRANCH  22  24
ENDBRANCH  17  18
ENDBRANCH  15  17
ENDBRANCH   5  15
TORSDOF 5
ENDMDL
MODEL 8
REMARK VINA RESULT:    -5.737      2.803      7.425
REMARK INTER + INTRA:          -8.152
REMARK INTER:                  -7.316
REMARK INTRA:                  -0.836
REMARK UNBOUND:                -0.738
REMARK  Name = 
REMARK  6 active torsions:
REMARK  status: ('A' for Active; 'I' for Inactive)
REMARK    1  A    between atoms: C_1  and  C_2
REMARK    2  A    between atoms: C_5  and  N_6
REMARK    3  A    between atoms: N_6  and  C_7
REMARK    4  A    between atoms: C_7  and  C_8
REMARK    5  A    between atoms: C_12  and  C_13
REMARK    6  A    between atoms: C_17  and  N_18
REMARK                            x       y       z     vdW  Elec       q    Type
REMARK                         _______ _______ _______ _____ _____    ______ ____
ROOT
ATOM      1  C   UNL     1      46.621   4.351  14.416  0.00  0.00    +0.000 C 
ATOM      2  C   UNL     1      47.154   5.419  13.505  0.00  0.00    +0.000 A 
ATOM      3  C   UNL     1      48.356   6.025  13.880  0.00  0.00    +0.000 A 
ATOM      4  N   UNL     1      48.974   7.022  13.213  0.00  0.00    +0.000 NA
ATOM      5  C   UNL     1      48.373   7.489  12.113  0.00  0.00    +0.000 A 
ATOM      6  C   UNL     1      47.144   6.974  11.688  0.00  0.00    +0.000 A 
ATOM      7  C   UNL     1      46.506   5.901  12.353  0.00  0.00    +0.000 A 
ENDROOT
BRANCH   7   8
ATOM      8  N   UNL     1      45.280   5.432  11.906  0.00  0.00    +0.000 N 
ATOM      9  C   UNL     1      44.010   5.884  12.506  0.00  0.00    +0.000 C 
ATOM     10  C   UNL     1      43.066   4.668  12.679  0.00  0.00    +0.000 C 
ATOM     11  N   UNL     1      42.830   3.900  11.435  0.00  0.00    +0.000 NA
ATOM     12  C   UNL     1      44.138   3.523  10.850  0.00  0.00    +0.000 C 
ATOM     13  C   UNL     1      45.078   4.733  10.626  0.00  0.00    +0.000 C 
ATOM     14  H   UNL     1      42.353   4.511  10.773  0.00  0.00    +0.000 HD
ENDBRANCH   7   8
BRANCH   5  15
ATOM     15  N   UNL     1      48.937   8.584  11.425  0.00  0.00    +0.000 N 
ATOM     16  H   UNL     1      49.921   8.423  11.248  0.00  0.00    +0.000 HD
BRANCH  15  17
ATOM     17  C   UNL     1      48.736   9.848  12.134  0.00  0.00    +0.000 C 
BRANCH  17  18
ATOM     18  C   UNL     1      47.713  10.690  11.400  0.00  0.00    +0.000 A 
ATOM     19  C   UNL     1      48.094  11.589  10.394  0.00  0.00    +0.000 A 
ATOM     20  C   UNL     1      47.144  12.387   9.751  0.00  0.00    +0.000 A 
ATOM     21  C   UNL     1      45.797  12.298  10.112  0.00  0.00    +0.000 A 
ATOM     22  C   UNL     1      45.400  11.408  11.116  0.00  0.00    +0.000 A 
ATOM     23  C   UNL     1      46.354  10.611  11.755  0.00  0.00    +0.000 A 
BRANCH  22  24
ATOM     24  C   UNL     1      44.017  11.321  11.490  0.00  0.00    +0.000 C 
ATOM     25  N   UNL     1      42.903  11.249  11.788  0.00  0.00    +0.000 NA
ENDBRANCH  22  24
ENDBRANCH  17  18
ENDBRANCH  15  17
ENDBRANCH   5  15
TORSDOF 5
ENDMDL
MODEL 9
REMARK VINA RESULT:    -5.704      3.538      5.156
REMARK INTER + INTRA:          -8.109
REMARK INTER:                  -7.475
REMARK INTRA:                  -0.634
REMARK UNBOUND:                -0.738
REMARK  Name = 
REMARK  6 active torsions:
REMARK  status: ('A' for Active; 'I' for Inactive)
REMARK    1  A    between atoms: C_1  and  C_2
REMARK    2  A    between atoms: C_5  and  N_6
REMARK    3  A    between atoms: N_6  and  C_7
REMARK    4  A    between atoms: C_7  and  C_8
REMARK    5  A    between atoms: C_12  and  C_13
REMARK    6  A    between atoms: C_17  and  N_18
REMARK                            x       y       z     vdW  Elec       q    Type
REMARK                         _______ _______ _______ _____ _____    ______ ____
ROOT
ATOM      1  C   UNL     1      48.591   3.430  18.556  0.00  0.00    +0.000 C 
ATOM      2  C   UNL     1      48.224   4.104  17.265  0.00  0.00    +0.000 A 
ATOM      3  C   UNL     1      47.689   3.293  16.261  0.00  0.00    +0.000 A 
ATOM      4  N   UNL     1      47.330   3.705  15.027  0.00  0.00    +0.000 NA
ATOM      5  C   UNL     1      47.527   4.995  14.729  0.00  0.00    +0.000 A 
ATOM      6  C   UNL     1      48.099   5.870  15.658  0.00  0.00    +0.000 A 
ATOM      7  C   UNL     1      48.441   5.462  16.968  0.00  0.00    +0.000 A 
ENDROOT
BRANCH   7   8
ATOM      8  N   UNL     1      49.022   6.360  17.851  0.00  0.00    +0.000 N 
ATOM      9  C   UNL     1      50.477   6.597  17.873  0.00  0.00    +0.000 C 
ATOM     10  C   UNL     1      50.959   6.678  19.343  0.00  0.00    +0.000 C 
ATOM     11  N   UNL     1      50.238   7.678  20.164  0.00  0.00    +0.000 NA
ATOM     12  C   UNL     1      48.782   7.426  20.058  0.00  0.00    +0.000 C 
ATOM     13  C   UNL     1      48.275   7.387  18.595  0.00  0.00    +0.000 C 
ATOM     14  H   UNL     1      50.427   8.600  19.774  0.00  0.00    +0.000 HD
ENDBRANCH   7   8
BRANCH   5  15
ATOM     15  N   UNL     1      47.244   5.458  13.427  0.00  0.00    +0.000 N 
ATOM     16  H   UNL     1      47.881   6.203  13.171  0.00  0.00    +0.000 HD
BRANCH  15  17
ATOM     17  C   UNL     1      45.854   5.887  13.280  0.00  0.00    +0.000 C 
BRANCH  17  18
ATOM     18  C   UNL     1      45.124   4.944  12.345  0.00  0.00    +0.000 A 
ATOM     19  C   UNL     1      44.152   4.051  12.821  0.00  0.00    +0.000 A 
ATOM     20  C   UNL     1      43.514   3.161  11.953  0.00  0.00    +0.000 A 
ATOM     21  C   UNL     1      43.845   3.149  10.596  0.00  0.00    +0.000 A 
ATOM     22  C   UNL     1      44.814   4.031  10.106  0.00  0.00    +0.000 A 
ATOM     23  C   UNL     1      45.449   4.920  10.976  0.00  0.00    +0.000 A 
BRANCH  22  24
ATOM     24  C   UNL     1      45.157   4.015   8.711  0.00  0.00    +0.000 C 
ATOM     25  N   UNL     1      45.433   4.000   7.590  0.00  0.00    +0.000 NA
ENDBRANCH  22  24
ENDBRANCH  17  18
ENDBRANCH  15  17
ENDBRANCH   5  15
TORSDOF 5
ENDMDL
