MODEL 1
REMARK VINA RESULT:    -7.770      0.000      0.000
REMARK INTER + INTRA:         -12.983
REMARK INTER:                 -11.404
REMARK INTRA:                  -1.579
REMARK UNBOUND:                -1.579
REMARK  Name = 
REMARK  9 active torsions:
REMARK  status: ('A' for Active; 'I' for Inactive)
REMARK    1  A    between atoms: C_1  and  C_2
REMARK    2  A    between atoms: C_2  and  N_3
REMARK    3  A    between atoms: N_3  and  C_4
REMARK    4  A    between atoms: C_4  and  C_5
REMARK    5  A    between atoms: C_8  and  C_9
REMARK    6  A    between atoms: C_9  and  N_10
REMARK    7  A    between atoms: N_10  and  C_11
REMARK    8  A    between atoms: C_11  and  C_12
REMARK    9  A    between atoms: C_20  and  C_22
REMARK                            x       y       z     vdW  Elec       q    Type
REMARK                         _______ _______ _______ _____ _____    ______ ____
ROOT
ATOM      1  C   UNL     1      47.413   7.141  13.732  0.00  0.00    +0.000 C 
ENDROOT
BRANCH   1   2
ATOM      2  C   UNL     1      46.652   6.198  12.858  0.00  0.00    +0.000 A 
ATOM      3  C   UNL     1      46.288   4.943  13.362  0.00  0.00    +0.000 A 
ATOM      4  C   UNL     1      45.335   4.176  12.701  0.00  0.00    +0.000 A 
ATOM      5  C   UNL     1      44.709   4.668  11.545  0.00  0.00    +0.000 A 
ATOM      6  C   UNL     1      45.151   5.880  10.998  0.00  0.00    +0.000 A 
ATOM      7  C   UNL     1      46.142   6.626  11.634  0.00  0.00    +0.000 A 
BRANCH   5   8
ATOM      8  C   UNL     1      43.526   3.953  10.925  0.00  0.00    +0.000 C 
BRANCH   8   9
ATOM      9  N   UNL     1      43.889   3.447   9.606  0.00  0.00    +0.000 NA
ATOM     10  H   UNL     1      44.293   4.205   9.057  0.00  0.00    +0.000 HD
BRANCH   9  11
ATOM     11  C   UNL     1      44.844   2.348   9.642  0.00  0.00    +0.000 C 
BRANCH  11  12
ATOM     12  C   UNL     1      45.709   2.373   8.398  0.00  0.00    +0.000 A 
ATOM     13  C   UNL     1      45.820   3.522   7.597  0.00  0.00    +0.000 A 
ATOM     14  C   UNL     1      46.676   3.542   6.491  0.00  0.00    +0.000 A 
ATOM     15  C   UNL     1      47.412   2.406   6.163  0.00  0.00    +0.000 A 
ATOM     16  C   UNL     1      47.278   1.246   6.923  0.00  0.00    +0.000 A 
ATOM     17  C   UNL     1      46.432   1.228   8.031  0.00  0.00    +0.000 A 
ENDBRANCH  11  12
ENDBRANCH   9  11
ENDBRANCH   8   9
ENDBRANCH   5   8
ENDBRANCH   1   2
BRANCH   1  18
ATOM     18  N   UNL     1      48.879   7.175  13.677  0.00  0.00    +0.000 N 
ATOM     19  C   UNL     1      49.652   7.176  14.859  0.00  0.00    +0.000 C 
ATOM     20  O   UNL     1      50.831   7.441  14.828  0.00  0.00    +0.000 OA
BRANCH  19  21
ATOM     21  C   UNL     1      48.999   6.827  16.132  0.00  0.00    +0.000 A 
ATOM     22  C   UNL     1      48.836   5.545  16.624  0.00  0.00    +0.000 A 
ATOM     23  S   UNL     1      48.108   5.468  18.157  0.00  0.00    +0.000 S 
ATOM     24  C   UNL     1      48.034   7.165  18.249  0.00  0.00    +0.000 A 
ATOM     25  N   UNL     1      47.599   7.779  19.378  0.00  0.00    +0.000 NA
ATOM     26  C   UNL     1      47.647   9.073  19.324  0.00  0.00    +0.000 A 
ATOM     27  N   UNL     1      48.037   9.795  18.226  0.00  0.00    +0.000 N 
ATOM     28  C   UNL     1      48.367   9.219  17.015  0.00  0.00    +0.000 A 
ATOM     29  O   UNL     1      48.480   9.890  16.011  0.00  0.00    +0.000 OA
ATOM     30  C   UNL     1      48.473   7.768  17.087  0.00  0.00    +0.000 A 
ATOM     31  H   UNL     1      48.011  10.805  18.233  0.00  0.00    +0.000 HD
ENDBRANCH  19  21
BRANCH  18  33
ATOM     32  C   UNL     1      49.157   8.809  11.727  0.00  0.00    +0.000 C 
ATOM     33  C   UNL     1      49.606   7.535  12.450  0.00  0.00    +0.000 C 
ENDBRANCH  18  33
ENDBRANCH   1  18
TORSDOF 8
ENDMDL
MODEL 2
REMARK VINA RESULT:    -7.712      1.324      2.130
REMARK INTER + INTRA:         -12.898
REMARK INTER:                 -11.327
REMARK INTRA:                  -1.571
REMARK UNBOUND:                -1.579
REMARK  Name = 
REMARK  9 active torsions:
REMARK  status: ('A' for Active; 'I' for Inactive)
REMARK    1  A    between atoms: C_1  and  C_2
REMARK    2  A    between atoms: C_2  and  N_3
REMARK    3  A    between atoms: N_3  and  C_4
REMARK    4  A    between atoms: C_4  and  C_5
REMARK    5  A    between atoms: C_8  and  C_9
REMARK    6  A    between atoms: C_9  and  N_10
REMARK    7  A    between atoms: N_10  and  C_11
REMARK    8  A    between atoms: C_11  and  C_12
REMARK    9  A    between atoms: C_20  and  C_22
REMARK                            x       y       z     vdW  Elec       q    Type
REMARK                         _______ _______ _______ _____ _____    ______ ____
ROOT
ATOM      1  C   UNL     1      47.833   7.636  13.772  0.00  0.00    +0.000 C 
ENDROOT
BRANCH   1   2
ATOM      2  C   UNL     1      47.190   6.488  13.066  0.00  0.00    +0.000 A 
ATOM      3  C   UNL     1      46.995   5.285  13.756  0.00  0.00    +0.000 A 
ATOM      4  C   UNL     1      46.142   4.316  13.241  0.00  0.00    +0.000 A 
ATOM      5  C   UNL     1      45.445   4.550  12.045  0.00  0.00    +0.000 A 
ATOM      6  C   UNL     1      45.722   5.715  11.316  0.00  0.00    +0.000 A 
ATOM      7  C   UNL     1      46.616   6.664  11.809  0.00  0.00    +0.000 A 
BRANCH   5   8
ATOM      8  C   UNL     1      44.358   3.609  11.569  0.00  0.00    +0.000 C 
BRANCH   8   9
ATOM      9  N   UNL     1      44.936   2.566  10.730  0.00  0.00    +0.000 NA
ATOM     10  H   UNL     1      44.756   1.657  11.155  0.00  0.00    +0.000 HD
BRANCH   9  11
ATOM     11  C   UNL     1      44.411   2.548   9.372  0.00  0.00    +0.000 C 
BRANCH  11  12
ATOM     12  C   UNL     1      45.552   2.478   8.377  0.00  0.00    +0.000 A 
ATOM     13  C   UNL     1      46.259   1.288   8.144  0.00  0.00    +0.000 A 
ATOM     14  C   UNL     1      47.265   1.232   7.173  0.00  0.00    +0.000 A 
ATOM     15  C   UNL     1      47.588   2.373   6.443  0.00  0.00    +0.000 A 
ATOM     16  C   UNL     1      46.925   3.572   6.696  0.00  0.00    +0.000 A 
ATOM     17  C   UNL     1      45.916   3.626   7.656  0.00  0.00    +0.000 A 
ENDBRANCH  11  12
ENDBRANCH   9  11
ENDBRANCH   8   9
ENDBRANCH   5   8
ENDBRANCH   1   2
BRANCH   1  18
ATOM     18  N   UNL     1      49.294   7.769  13.783  0.00  0.00    +0.000 N 
ATOM     19  C   UNL     1      49.969   8.300  14.904  0.00  0.00    +0.000 C 
ATOM     20  O   UNL     1      51.130   8.629  14.830  0.00  0.00    +0.000 OA
BRANCH  19  21
ATOM     21  C   UNL     1      49.237   8.427  16.175  0.00  0.00    +0.000 A 
ATOM     22  C   UNL     1      48.746   9.607  16.703  0.00  0.00    +0.000 A 
ATOM     23  S   UNL     1      47.878   9.421  18.152  0.00  0.00    +0.000 S 
ATOM     24  C   UNL     1      48.079   7.733  18.101  0.00  0.00    +0.000 A 
ATOM     25  N   UNL     1      47.479   6.936  19.019  0.00  0.00    +0.000 NA
ATOM     26  C   UNL     1      47.675   5.670  18.825  0.00  0.00    +0.000 A 
ATOM     27  N   UNL     1      48.462   5.145  17.833  0.00  0.00    +0.000 N 
ATOM     28  C   UNL     1      49.194   5.918  16.954  0.00  0.00    +0.000 A 
ATOM     29  O   UNL     1      50.049   5.427  16.248  0.00  0.00    +0.000 OA
ATOM     30  C   UNL     1      48.874   7.337  17.044  0.00  0.00    +0.000 A 
ATOM     31  H   UNL     1      48.611   4.148  17.761  0.00  0.00    +0.000 HD
ENDBRANCH  19  21
BRANCH  18  33
ATOM     32  C   UNL     1      49.824   8.726  11.469  0.00  0.00    +0.000 C 
ATOM     33  C   UNL     1      50.095   7.676  12.552  0.00  0.00    +0.000 C 
ENDBRANCH  18  33
ENDBRANCH   1  18
TORSDOF 8
ENDMDL
MODEL 3
REMARK VINA RESULT:    -7.712      2.118      3.139
REMARK INTER + INTRA:         -12.898
REMARK INTER:                 -11.710
REMARK INTRA:                  -1.187
REMARK UNBOUND:                -1.579
REMARK  Name = 
REMARK  9 active torsions:
REMARK  status: ('A' for Active; 'I' for Inactive)
REMARK    1  A    between atoms: C_1  and  C_2
REMARK    2  A    between atoms: C_2  and  N_3
REMARK    3  A    between atoms: N_3  and  C_4
REMARK    4  A    between atoms: C_4  and  C_5
REMARK    5  A    between atoms: C_8  and  C_9
REMARK    6  A    between atoms: C_9  and  N_10
REMARK    7  A    between atoms: N_10  and  C_11
REMARK    8  A    between atoms: C_11  and  C_12
REMARK    9  A    between atoms: C_20  and  C_22
REMARK                            x       y       z     vdW  Elec       q    Type
REMARK                         _______ _______ _______ _____ _____    ______ ____
ROOT
ATOM      1  C   UNL     1      48.063   5.839  13.797  0.00  0.00    +0.000 C 
ENDROOT
BRANCH   1   2
ATOM      2  C   UNL     1      46.741   5.860  13.102  0.00  0.00    +0.000 A 
ATOM      3  C   UNL     1      46.647   6.437  11.830  0.00  0.00    +0.000 A 
ATOM      4  C   UNL     1      45.526   6.206  11.040  0.00  0.00    +0.000 A 
ATOM      5  C   UNL     1      44.498   5.367  11.498  0.00  0.00    +0.000 A 
ATOM      6  C   UNL     1      44.560   4.875  12.809  0.00  0.00    +0.000 A 
ATOM      7  C   UNL     1      45.661   5.147  13.619  0.00  0.00    +0.000 A 
BRANCH   5   8
ATOM      8  C   UNL     1      43.371   4.931  10.586  0.00  0.00    +0.000 C 
BRANCH   8   9
ATOM      9  N   UNL     1      43.917   4.373   9.354  0.00  0.00    +0.000 NA
ATOM     10  H   UNL     1      44.679   4.966   9.028  0.00  0.00    +0.000 HD
BRANCH   9  11
ATOM     11  C   UNL     1      44.424   3.015   9.500  0.00  0.00    +0.000 C 
BRANCH  11  12
ATOM     12  C   UNL     1      45.509   2.755   8.474  0.00  0.00    +0.000 A 
ATOM     13  C   UNL     1      46.095   1.488   8.323  0.00  0.00    +0.000 A 
ATOM     14  C   UNL     1      47.047   1.256   7.325  0.00  0.00    +0.000 A 
ATOM     15  C   UNL     1      47.439   2.295   6.485  0.00  0.00    +0.000 A 
ATOM     16  C   UNL     1      46.898   3.568   6.653  0.00  0.00    +0.000 A 
ATOM     17  C   UNL     1      45.941   3.798   7.641  0.00  0.00    +0.000 A 
ENDBRANCH  11  12
ENDBRANCH   9  11
ENDBRANCH   8   9
ENDBRANCH   5   8
ENDBRANCH   1   2
BRANCH   1  18
ATOM     18  N   UNL     1      48.449   6.947  14.678  0.00  0.00    +0.000 N 
ATOM     19  C   UNL     1      48.510   6.777  16.079  0.00  0.00    +0.000 C 
ATOM     20  O   UNL     1      48.593   7.731  16.816  0.00  0.00    +0.000 OA
BRANCH  19  21
ATOM     21  C   UNL     1      48.492   5.410  16.626  0.00  0.00    +0.000 A 
ATOM     22  C   UNL     1      47.374   4.604  16.731  0.00  0.00    +0.000 A 
ATOM     23  S   UNL     1      47.685   3.047  17.336  0.00  0.00    +0.000 S 
ATOM     24  C   UNL     1      49.352   3.374  17.429  0.00  0.00    +0.000 A 
ATOM     25  N   UNL     1      50.230   2.403  17.785  0.00  0.00    +0.000 NA
ATOM     26  C   UNL     1      51.469   2.781  17.761  0.00  0.00    +0.000 A 
ATOM     27  N   UNL     1      51.893   4.051  17.469  0.00  0.00    +0.000 N 
ATOM     28  C   UNL     1      51.032   5.103  17.225  0.00  0.00    +0.000 A 
ATOM     29  O   UNL     1      51.430   6.248  17.200  0.00  0.00    +0.000 OA
ATOM     30  C   UNL     1      49.644   4.681  17.091  0.00  0.00    +0.000 A 
ATOM     31  H   UNL     1      52.872   4.294  17.510  0.00  0.00    +0.000 HD
ENDBRANCH  19  21
BRANCH  18  33
ATOM     32  C   UNL     1      49.816   8.890  13.723  0.00  0.00    +0.000 C 
ATOM     33  C   UNL     1      48.471   8.343  14.213  0.00  0.00    +0.000 C 
ENDBRANCH  18  33
ENDBRANCH   1  18
TORSDOF 8
ENDMDL
MODEL 4
REMARK VINA RESULT:    -7.261      1.817      2.787
REMARK INTER + INTRA:         -12.236
REMARK INTER:                 -10.805
REMARK INTRA:                  -1.431
REMARK UNBOUND:                -1.579
REMARK  Name = 
REMARK  9 active torsions:
REMARK  status: ('A' for Active; 'I' for Inactive)
REMARK    1  A    between atoms: C_1  and  C_2
REMARK    2  A    between atoms: C_2  and  N_3
REMARK    3  A    between atoms: N_3  and  C_4
REMARK    4  A    between atoms: C_4  and  C_5
REMARK    5  A    between atoms: C_8  and  C_9
REMARK    6  A    between atoms: C_9  and  N_10
REMARK    7  A    between atoms: N_10  and  C_11
REMARK    8  A    between atoms: C_11  and  C_12
REMARK    9  A    between atoms: C_20  and  C_22
REMARK                            x       y       z     vdW  Elec       q    Type
REMARK                         _______ _______ _______ _____ _____    ______ ____
ROOT
ATOM      1  C   UNL     1      48.788   6.886  13.351  0.00  0.00    +0.000 C 
ENDROOT
BRANCH   1   2
ATOM      2  C   UNL     1      47.456   6.356  12.931  0.00  0.00    +0.000 A 
ATOM      3  C   UNL     1      46.953   6.694  11.669  0.00  0.00    +0.000 A 
ATOM      4  C   UNL     1      45.882   5.988  11.133  0.00  0.00    +0.000 A 
ATOM      5  C   UNL     1      45.321   4.912  11.837  0.00  0.00    +0.000 A 
ATOM      6  C   UNL     1      45.769   4.646  13.139  0.00  0.00    +0.000 A 
ATOM      7  C   UNL     1      46.810   5.387  13.696  0.00  0.00    +0.000 A 
BRANCH   5   8
ATOM      8  C   UNL     1      44.299   3.997  11.195  0.00  0.00    +0.000 C 
BRANCH   8   9
ATOM      9  N   UNL     1      44.935   2.748  10.792  0.00  0.00    +0.000 NA
ATOM     10  H   UNL     1      44.767   2.042  11.506  0.00  0.00    +0.000 HD
BRANCH   9  11
ATOM     11  C   UNL     1      44.456   2.233   9.516  0.00  0.00    +0.000 C 
BRANCH  11  12
ATOM     12  C   UNL     1      45.556   2.320   8.477  0.00  0.00    +0.000 A 
ATOM     13  C   UNL     1      46.281   1.188   8.070  0.00  0.00    +0.000 A 
ATOM     14  C   UNL     1      47.246   1.283   7.062  0.00  0.00    +0.000 A 
ATOM     15  C   UNL     1      47.511   2.514   6.468  0.00  0.00    +0.000 A 
ATOM     16  C   UNL     1      46.831   3.653   6.895  0.00  0.00    +0.000 A 
ATOM     17  C   UNL     1      45.862   3.558   7.892  0.00  0.00    +0.000 A 
ENDBRANCH  11  12
ENDBRANCH   9  11
ENDBRANCH   8   9
ENDBRANCH   5   8
ENDBRANCH   1   2
BRANCH   1  18
ATOM     18  N   UNL     1      48.895   8.224  13.943  0.00  0.00    +0.000 N 
ATOM     19  C   UNL     1      48.974   8.397  15.342  0.00  0.00    +0.000 C 
ATOM     20  O   UNL     1      48.824   9.488  15.841  0.00  0.00    +0.000 OA
BRANCH  19  21
ATOM     21  C   UNL     1      49.266   7.225  16.184  0.00  0.00    +0.000 A 
ATOM     22  C   UNL     1      48.320   6.420  16.791  0.00  0.00    +0.000 A 
ATOM     23  S   UNL     1      48.965   5.096  17.640  0.00  0.00    +0.000 S 
ATOM     24  C   UNL     1      50.546   5.521  17.177  0.00  0.00    +0.000 A 
ATOM     25  N   UNL     1      51.598   4.725  17.494  0.00  0.00    +0.000 NA
ATOM     26  C   UNL     1      52.733   5.145  17.031  0.00  0.00    +0.000 A 
ATOM     27  N   UNL     1      52.908   6.312  16.335  0.00  0.00    +0.000 N 
ATOM     28  C   UNL     1      51.892   7.217  16.098  0.00  0.00    +0.000 A 
ATOM     29  O   UNL     1      52.128   8.333  15.688  0.00  0.00    +0.000 OA
ATOM     30  C   UNL     1      50.579   6.704  16.467  0.00  0.00    +0.000 A 
ATOM     31  H   UNL     1      53.828   6.606  16.038  0.00  0.00    +0.000 HD
ENDBRANCH  19  21
BRANCH  18  33
ATOM     32  C   UNL     1      49.294   9.592  11.816  0.00  0.00    +0.000 C 
ATOM     33  C   UNL     1      48.599   9.444  13.174  0.00  0.00    +0.000 C 
ENDBRANCH  18  33
ENDBRANCH   1  18
TORSDOF 8
ENDMDL
MODEL 5
REMARK VINA RESULT:    -7.255      3.031      9.255
REMARK INTER + INTRA:         -12.227
REMARK INTER:                 -10.567
REMARK INTRA:                  -1.661
REMARK UNBOUND:                -1.579
REMARK  Name = 
REMARK  9 active torsions:
REMARK  status: ('A' for Active; 'I' for Inactive)
REMARK    1  A    between atoms: C_1  and  C_2
REMARK    2  A    between atoms: C_2  and  N_3
REMARK    3  A    between atoms: N_3  and  C_4
REMARK    4  A    between atoms: C_4  and  C_5
REMARK    5  A    between atoms: C_8  and  C_9
REMARK    6  A    between atoms: C_9  and  N_10
REMARK    7  A    between atoms: N_10  and  C_11
REMARK    8  A    between atoms: C_11  and  C_12
REMARK    9  A    between atoms: C_20  and  C_22
REMARK                            x       y       z     vdW  Elec       q    Type
REMARK                         _______ _______ _______ _____ _____    ______ ____
ROOT
ATOM      1  C   UNL     1      47.219   6.169  12.353  0.00  0.00    +0.000 C 
ENDROOT
BRANCH   1   2
ATOM      2  C   UNL     1      47.538   5.552  13.675  0.00  0.00    +0.000 A 
ATOM      3  C   UNL     1      48.174   6.326  14.654  0.00  0.00    +0.000 A 
ATOM      4  C   UNL     1      48.210   5.890  15.973  0.00  0.00    +0.000 A 
ATOM      5  C   UNL     1      47.580   4.690  16.340  0.00  0.00    +0.000 A 
ATOM      6  C   UNL     1      47.031   3.880  15.336  0.00  0.00    +0.000 A 
ATOM      7  C   UNL     1      47.040   4.293  14.005  0.00  0.00    +0.000 A 
BRANCH   5   8
ATOM      8  C   UNL     1      47.421   4.295  17.793  0.00  0.00    +0.000 C 
BRANCH   8   9
ATOM      9  N   UNL     1      46.773   5.373  18.532  0.00  0.00    +0.000 NA
ATOM     10  H   UNL     1      45.816   5.098  18.752  0.00  0.00    +0.000 HD
BRANCH   9  11
ATOM     11  C   UNL     1      47.448   5.718  19.776  0.00  0.00    +0.000 C 
BRANCH  11  12
ATOM     12  C   UNL     1      47.411   7.219  19.985  0.00  0.00    +0.000 A 
ATOM     13  C   UNL     1      47.417   8.116  18.904  0.00  0.00    +0.000 A 
ATOM     14  C   UNL     1      47.316   9.495  19.120  0.00  0.00    +0.000 A 
ATOM     15  C   UNL     1      47.231   9.989  20.419  0.00  0.00    +0.000 A 
ATOM     16  C   UNL     1      47.269   9.112  21.502  0.00  0.00    +0.000 A 
ATOM     17  C   UNL     1      47.359   7.738  21.287  0.00  0.00    +0.000 A 
ENDBRANCH  11  12
ENDBRANCH   9  11
ENDBRANCH   8   9
ENDBRANCH   5   8
ENDBRANCH   1   2
BRANCH   1  18
ATOM     18  N   UNL     1      46.147   7.164  12.244  0.00  0.00    +0.000 N 
ATOM     19  C   UNL     1      44.870   6.808  11.755  0.00  0.00    +0.000 C 
ATOM     20  O   UNL     1      44.068   7.656  11.442  0.00  0.00    +0.000 OA
BRANCH  19  21
ATOM     21  C   UNL     1      44.525   5.380  11.652  0.00  0.00    +0.000 A 
ATOM     22  C   UNL     1      43.878   4.641  12.625  0.00  0.00    +0.000 A 
ATOM     23  S   UNL     1      43.551   3.032  12.184  0.00  0.00    +0.000 S 
ATOM     24  C   UNL     1      44.218   3.281  10.639  0.00  0.00    +0.000 A 
ATOM     25  N   UNL     1      44.165   2.306   9.697  0.00  0.00    +0.000 NA
ATOM     26  C   UNL     1      44.662   2.654   8.553  0.00  0.00    +0.000 A 
ATOM     27  N   UNL     1      45.254   3.863   8.293  0.00  0.00    +0.000 N 
ATOM     28  C   UNL     1      45.445   4.837   9.252  0.00  0.00    +0.000 A 
ATOM     29  O   UNL     1      46.170   5.787   9.047  0.00  0.00    +0.000 OA
ATOM     30  C   UNL     1      44.761   4.543  10.504  0.00  0.00    +0.000 A 
ATOM     31  H   UNL     1      45.663   4.057   7.390  0.00  0.00    +0.000 HD
ENDBRANCH  19  21
BRANCH  18  33
ATOM     32  C   UNL     1      47.859   9.060  12.082  0.00  0.00    +0.000 C 
ATOM     33  C   UNL     1      46.413   8.609  12.314  0.00  0.00    +0.000 C 
ENDBRANCH  18  33
ENDBRANCH   1  18
TORSDOF 8
ENDMDL
MODEL 6
REMARK VINA RESULT:    -7.149      2.124      2.818
REMARK INTER + INTRA:         -12.071
REMARK INTER:                 -10.700
REMARK INTRA:                  -1.371
REMARK UNBOUND:                -1.579
REMARK  Name = 
REMARK  9 active torsions:
REMARK  status: ('A' for Active; 'I' for Inactive)
REMARK    1  A    between atoms: C_1  and  C_2
REMARK    2  A    between atoms: C_2  and  N_3
REMARK    3  A    between atoms: N_3  and  C_4
REMARK    4  A    between atoms: C_4  and  C_5
REMARK    5  A    between atoms: C_8  and  C_9
REMARK    6  A    between atoms: C_9  and  N_10
REMARK    7  A    between atoms: N_10  and  C_11
REMARK    8  A    between atoms: C_11  and  C_12
REMARK    9  A    between atoms: C_20  and  C_22
REMARK                            x       y       z     vdW  Elec       q    Type
REMARK                         _______ _______ _______ _____ _____    ______ ____
ROOT
ATOM      1  C   UNL     1      48.872   6.925  13.493  0.00  0.00    +0.000 C 
ENDROOT
BRANCH   1   2
ATOM      2  C   UNL     1      47.817   6.175  12.747  0.00  0.00    +0.000 A 
ATOM      3  C   UNL     1      47.160   5.112  13.379  0.00  0.00    +0.000 A 
ATOM      4  C   UNL     1      45.986   4.598  12.839  0.00  0.00    +0.000 A 
ATOM      5  C   UNL     1      45.435   5.163  11.678  0.00  0.00    +0.000 A 
ATOM      6  C   UNL     1      46.152   6.160  11.004  0.00  0.00    +0.000 A 
ATOM      7  C   UNL     1      47.355   6.641  11.518  0.00  0.00    +0.000 A 
BRANCH   5   8
ATOM      8  C   UNL     1      44.058   4.766  11.186  0.00  0.00    +0.000 C 
BRANCH   8   9
ATOM      9  N   UNL     1      44.168   3.661  10.241  0.00  0.00    +0.000 NA
ATOM     10  H   UNL     1      43.314   3.107  10.275  0.00  0.00    +0.000 HD
BRANCH   9  11
ATOM     11  C   UNL     1      44.384   4.087   8.865  0.00  0.00    +0.000 C 
BRANCH  11  12
ATOM     12  C   UNL     1      45.415   3.194   8.203  0.00  0.00    +0.000 A 
ATOM     13  C   UNL     1      46.288   3.679   7.216  0.00  0.00    +0.000 A 
ATOM     14  C   UNL     1      47.275   2.853   6.667  0.00  0.00    +0.000 A 
ATOM     15  C   UNL     1      47.381   1.529   7.083  0.00  0.00    +0.000 A 
ATOM     16  C   UNL     1      46.491   1.022   8.028  0.00  0.00    +0.000 A 
ATOM     17  C   UNL     1      45.514   1.848   8.584  0.00  0.00    +0.000 A 
ENDBRANCH  11  12
ENDBRANCH   9  11
ENDBRANCH   8   9
ENDBRANCH   5   8
ENDBRANCH   1   2
BRANCH   1  18
ATOM     18  N   UNL     1      48.501   8.052  14.356  0.00  0.00    +0.000 N 
ATOM     19  C   UNL     1      49.027   8.174  15.661  0.00  0.00    +0.000 C 
ATOM     20  O   UNL     1      48.551   8.955  16.451  0.00  0.00    +0.000 OA
BRANCH  19  21
ATOM     21  C   UNL     1      50.184   7.344  16.038  0.00  0.00    +0.000 A 
ATOM     22  C   UNL     1      51.510   7.695  15.870  0.00  0.00    +0.000 A 
ATOM     23  S   UNL     1      52.620   6.557  16.471  0.00  0.00    +0.000 S 
ATOM     24  C   UNL     1      51.358   5.568  17.036  0.00  0.00    +0.000 A 
ATOM     25  N   UNL     1      51.623   4.450  17.758  0.00  0.00    +0.000 NA
ATOM     26  C   UNL     1      50.565   3.825  18.167  0.00  0.00    +0.000 A 
ATOM     27  N   UNL     1      49.278   4.190  17.869  0.00  0.00    +0.000 N 
ATOM     28  C   UNL     1      48.960   5.244  17.035  0.00  0.00    +0.000 A 
ATOM     29  O   UNL     1      47.833   5.392  16.612  0.00  0.00    +0.000 OA
ATOM     30  C   UNL     1      50.116   6.059  16.685  0.00  0.00    +0.000 A 
ATOM     31  H   UNL     1      48.495   3.635  18.183  0.00  0.00    +0.000 HD
ENDBRANCH  19  21
BRANCH  18  33
ATOM     32  C   UNL     1      47.526   9.958  12.952  0.00  0.00    +0.000 C 
ATOM     33  C   UNL     1      47.347   8.915  14.061  0.00  0.00    +0.000 C 
ENDBRANCH  18  33
ENDBRANCH   1  18
TORSDOF 8
ENDMDL
MODEL 7
REMARK VINA RESULT:    -6.900      3.069      3.812
REMARK INTER + INTRA:         -11.706
REMARK INTER:                 -10.174
REMARK INTRA:                  -1.532
REMARK UNBOUND:                -1.579
REMARK  Name = 
REMARK  9 active torsions:
REMARK  status: ('A' for Active; 'I' for Inactive)
REMARK    1  A    between atoms: C_1  and  C_2
REMARK    2  A    between atoms: C_2  and  N_3
REMARK    3  A    between atoms: N_3  and  C_4
REMARK    4  A    between atoms: C_4  and  C_5
REMARK    5  A    between atoms: C_8  and  C_9
REMARK    6  A    between atoms: C_9  and  N_10
REMARK    7  A    between atoms: N_10  and  C_11
REMARK    8  A    between atoms: C_11  and  C_12
REMARK    9  A    between atoms: C_20  and  C_22
REMARK                            x       y       z     vdW  Elec       q    Type
REMARK                         _______ _______ _______ _____ _____    ______ ____
ROOT
ATOM      1  C   UNL     1      46.282   8.884  13.003  0.00  0.00    +0.000 C 
ENDROOT
BRANCH   1   2
ATOM      2  C   UNL     1      45.927   7.533  12.472  0.00  0.00    +0.000 A 
ATOM      3  C   UNL     1      46.708   6.429  12.836  0.00  0.00    +0.000 A 
ATOM      4  C   UNL     1      46.238   5.140  12.615  0.00  0.00    +0.000 A 
ATOM      5  C   UNL     1      44.966   4.935  12.058  0.00  0.00    +0.000 A 
ATOM      6  C   UNL     1      44.237   6.045  11.610  0.00  0.00    +0.000 A 
ATOM      7  C   UNL     1      44.729   7.337  11.787  0.00  0.00    +0.000 A 
BRANCH   5   8
ATOM      8  C   UNL     1      44.344   3.556  11.998  0.00  0.00    +0.000 C 
BRANCH   8   9
ATOM      9  N   UNL     1      45.000   2.761  10.966  0.00  0.00    +0.000 NA
ATOM     10  H   UNL     1      45.011   1.783  11.254  0.00  0.00    +0.000 HD
BRANCH   9  11
ATOM     11  C   UNL     1      44.355   2.846   9.662  0.00  0.00    +0.000 C 
BRANCH  11  12
ATOM     12  C   UNL     1      45.386   2.676   8.564  0.00  0.00    +0.000 A 
ATOM     13  C   UNL     1      45.756   3.740   7.726  0.00  0.00    +0.000 A 
ATOM     14  C   UNL     1      46.757   3.575   6.762  0.00  0.00    +0.000 A 
ATOM     15  C   UNL     1      47.379   2.338   6.613  0.00  0.00    +0.000 A 
ATOM     16  C   UNL     1      46.990   1.262   7.408  0.00  0.00    +0.000 A 
ATOM     17  C   UNL     1      46.000   1.428   8.375  0.00  0.00    +0.000 A 
ENDBRANCH  11  12
ENDBRANCH   9  11
ENDBRANCH   8   9
ENDBRANCH   5   8
ENDBRANCH   1   2
BRANCH   1  18
ATOM     18  N   UNL     1      46.499  10.003  12.081  0.00  0.00    +0.000 N 
ATOM     19  C   UNL     1      47.803  10.400  11.710  0.00  0.00    +0.000 C 
ATOM     20  O   UNL     1      47.995  11.453  11.149  0.00  0.00    +0.000 OA
BRANCH  19  21
ATOM     21  C   UNL     1      48.927   9.494  12.001  0.00  0.00    +0.000 A 
ATOM     22  C   UNL     1      49.331   8.438  11.205  0.00  0.00    +0.000 A 
ATOM     23  S   UNL     1      50.709   7.619  11.770  0.00  0.00    +0.000 S 
ATOM     24  C   UNL     1      50.854   8.691  13.083  0.00  0.00    +0.000 A 
ATOM     25  N   UNL     1      51.912   8.612  13.928  0.00  0.00    +0.000 NA
ATOM     26  C   UNL     1      51.920   9.525  14.848  0.00  0.00    +0.000 A 
ATOM     27  N   UNL     1      50.936  10.463  15.024  0.00  0.00    +0.000 N 
ATOM     28  C   UNL     1      49.780  10.505  14.271  0.00  0.00    +0.000 A 
ATOM     29  O   UNL     1      48.839  11.193  14.602  0.00  0.00    +0.000 OA
ATOM     30  C   UNL     1      49.812   9.595  13.133  0.00  0.00    +0.000 A 
ATOM     31  H   UNL     1      50.979  11.122  15.789  0.00  0.00    +0.000 HD
ENDBRANCH  19  21
BRANCH  18  33
ATOM     32  C   UNL     1      44.460  10.569  10.640  0.00  0.00    +0.000 C 
ATOM     33  C   UNL     1      45.434  10.965  11.756  0.00  0.00    +0.000 C 
ENDBRANCH  18  33
ENDBRANCH   1  18
TORSDOF 8
ENDMDL
MODEL 8
REMARK VINA RESULT:    -6.501      1.599      2.223
REMARK INTER + INTRA:         -11.120
REMARK INTER:                 -10.145
REMARK INTRA:                  -0.975
REMARK UNBOUND:                -1.579
REMARK  Name = 
REMARK  9 active torsions:
REMARK  status: ('A' for Active; 'I' for Inactive)
REMARK    1  A    between atoms: C_1  and  C_2
REMARK    2  A    between atoms: C_2  and  N_3
REMARK    3  A    between atoms: N_3  and  C_4
REMARK    4  A    between atoms: C_4  and  C_5
REMARK    5  A    between atoms: C_8  and  C_9
REMARK    6  A    between atoms: C_9  and  N_10
REMARK    7  A    between atoms: N_10  and  C_11
REMARK    8  A    between atoms: C_11  and  C_12
REMARK    9  A    between atoms: C_20  and  C_22
REMARK                            x       y       z     vdW  Elec       q    Type
REMARK                         _______ _______ _______ _____ _____    ______ ____
ROOT
ATOM      1  C   UNL     1      48.065   7.162  13.544  0.00  0.00    +0.000 C 
ENDROOT
BRANCH   1   2
ATOM      2  C   UNL     1      46.865   6.603  12.853  0.00  0.00    +0.000 A 
ATOM      3  C   UNL     1      46.842   6.554  11.454  0.00  0.00    +0.000 A 
ATOM      4  C   UNL     1      45.894   5.777  10.798  0.00  0.00    +0.000 A 
ATOM      5  C   UNL     1      44.976   5.010  11.534  0.00  0.00    +0.000 A 
ATOM      6  C   UNL     1      44.947   5.143  12.929  0.00  0.00    +0.000 A 
ATOM      7  C   UNL     1      45.866   5.962  13.584  0.00  0.00    +0.000 A 
BRANCH   5   8
ATOM      8  C   UNL     1      44.074   3.999  10.858  0.00  0.00    +0.000 C 
BRANCH   8   9
ATOM      9  N   UNL     1      44.806   2.760  10.623  0.00  0.00    +0.000 NA
ATOM     10  H   UNL     1      44.619   2.112  11.387  0.00  0.00    +0.000 HD
BRANCH   9  11
ATOM     11  C   UNL     1      44.459   2.103   9.370  0.00  0.00    +0.000 C 
BRANCH  11  12
ATOM     12  C   UNL     1      45.593   2.253   8.375  0.00  0.00    +0.000 A 
ATOM     13  C   UNL     1      46.437   1.179   8.048  0.00  0.00    +0.000 A 
ATOM     14  C   UNL     1      47.435   1.325   7.079  0.00  0.00    +0.000 A 
ATOM     15  C   UNL     1      47.613   2.551   6.445  0.00  0.00    +0.000 A 
ATOM     16  C   UNL     1      46.811   3.637   6.793  0.00  0.00    +0.000 A 
ATOM     17  C   UNL     1      45.810   3.491   7.751  0.00  0.00    +0.000 A 
ENDBRANCH  11  12
ENDBRANCH   9  11
ENDBRANCH   8   9
ENDBRANCH   5   8
ENDBRANCH   1   2
BRANCH   1  18
ATOM     18  N   UNL     1      48.270   8.613  13.604  0.00  0.00    +0.000 N 
ATOM     19  C   UNL     1      49.040   9.198  14.634  0.00  0.00    +0.000 C 
ATOM     20  O   UNL     1      49.016  10.392  14.824  0.00  0.00    +0.000 OA
BRANCH  19  21
ATOM     21  C   UNL     1      49.893   8.328  15.461  0.00  0.00    +0.000 A 
ATOM     22  C   UNL     1      51.006   7.640  15.015  0.00  0.00    +0.000 A 
ATOM     23  S   UNL     1      51.829   6.775  16.225  0.00  0.00    +0.000 S 
ATOM     24  C   UNL     1      50.750   7.338  17.414  0.00  0.00    +0.000 A 
ATOM     25  N   UNL     1      50.949   7.047  18.724  0.00  0.00    +0.000 NA
ATOM     26  C   UNL     1      50.081   7.586  19.520  0.00  0.00    +0.000 A 
ATOM     27  N   UNL     1      49.008   8.337  19.113  0.00  0.00    +0.000 N 
ATOM     28  C   UNL     1      48.692   8.554  17.787  0.00  0.00    +0.000 A 
ATOM     29  O   UNL     1      47.620   9.020  17.465  0.00  0.00    +0.000 OA
ATOM     30  C   UNL     1      49.730   8.096  16.873  0.00  0.00    +0.000 A 
ATOM     31  H   UNL     1      48.341   8.694  19.782  0.00  0.00    +0.000 HD
ENDBRANCH  19  21
BRANCH  18  33
ATOM     32  C   UNL     1      48.071  10.128  11.550  0.00  0.00    +0.000 C 
ATOM     33  C   UNL     1      47.446   9.551  12.825  0.00  0.00    +0.000 C 
ENDBRANCH  18  33
ENDBRANCH   1  18
TORSDOF 8
ENDMDL
MODEL 9
REMARK VINA RESULT:    -6.039      3.222      4.886
REMARK INTER + INTRA:         -10.443
REMARK INTER:                  -8.939
REMARK INTRA:                  -1.504
REMARK UNBOUND:                -1.579
REMARK  Name = 
REMARK  9 active torsions:
REMARK  status: ('A' for Active; 'I' for Inactive)
REMARK    1  A    between atoms: C_1  and  C_2
REMARK    2  A    between atoms: C_2  and  N_3
REMARK    3  A    between atoms: N_3  and  C_4
REMARK    4  A    between atoms: C_4  and  C_5
REMARK    5  A    between atoms: C_8  and  C_9
REMARK    6  A    between atoms: C_9  and  N_10
REMARK    7  A    between atoms: N_10  and  C_11
REMARK    8  A    between atoms: C_11  and  C_12
REMARK    9  A    between atoms: C_20  and  C_22
REMARK                            x       y       z     vdW  Elec       q    Type
REMARK                         _______ _______ _______ _____ _____    ______ ____
ROOT
ATOM      1  C   UNL     1      48.576   9.487  12.977  0.00  0.00    +0.000 C 
ENDROOT
BRANCH   1   2
ATOM      2  C   UNL     1      47.528   8.601  12.386  0.00  0.00    +0.000 A 
ATOM      3  C   UNL     1      47.912   7.398  11.782  0.00  0.00    +0.000 A 
ATOM      4  C   UNL     1      46.962   6.424  11.500  0.00  0.00    +0.000 A 
ATOM      5  C   UNL     1      45.617   6.625  11.850  0.00  0.00    +0.000 A 
ATOM      6  C   UNL     1      45.231   7.870  12.365  0.00  0.00    +0.000 A 
ATOM      7  C   UNL     1      46.177   8.866  12.602  0.00  0.00    +0.000 A 
BRANCH   5   8
ATOM      8  C   UNL     1      44.600   5.507  11.749  0.00  0.00    +0.000 C 
BRANCH   8   9
ATOM      9  N   UNL     1      44.253   5.278  10.351  0.00  0.00    +0.000 NA
ATOM     10  H   UNL     1      45.016   5.603   9.760  0.00  0.00    +0.000 HD
BRANCH   9  11
ATOM     11  C   UNL     1      43.991   3.881  10.034  0.00  0.00    +0.000 C 
BRANCH  11  12
ATOM     12  C   UNL     1      45.011   3.378   9.032  0.00  0.00    +0.000 A 
ATOM     13  C   UNL     1      45.703   4.252   8.179  0.00  0.00    +0.000 A 
ATOM     14  C   UNL     1      46.688   3.771   7.309  0.00  0.00    +0.000 A 
ATOM     15  C   UNL     1      46.971   2.408   7.268  0.00  0.00    +0.000 A 
ATOM     16  C   UNL     1      46.260   1.524   8.077  0.00  0.00    +0.000 A 
ATOM     17  C   UNL     1      45.286   2.004   8.952  0.00  0.00    +0.000 A 
ENDBRANCH  11  12
ENDBRANCH   9  11
ENDBRANCH   8   9
ENDBRANCH   5   8
ENDBRANCH   1   2
BRANCH   1  18
ATOM     18  N   UNL     1      49.466   8.976  14.025  0.00  0.00    +0.000 N 
ATOM     19  C   UNL     1      50.814   8.658  13.745  0.00  0.00    +0.000 C 
ATOM     20  O   UNL     1      51.476   8.022  14.531  0.00  0.00    +0.000 OA
BRANCH  19  21
ATOM     21  C   UNL     1      51.405   9.134  12.484  0.00  0.00    +0.000 A 
ATOM     22  C   UNL     1      51.684   8.347  11.382  0.00  0.00    +0.000 A 
ATOM     23  S   UNL     1      52.297   9.199  10.046  0.00  0.00    +0.000 S 
ATOM     24  C   UNL     1      52.158  10.677  10.877  0.00  0.00    +0.000 A 
ATOM     25  N   UNL     1      52.428  11.850  10.253  0.00  0.00    +0.000 NA
ATOM     26  C   UNL     1      52.228  12.897  10.990  0.00  0.00    +0.000 A 
ATOM     27  N   UNL     1      51.839  12.863  12.304  0.00  0.00    +0.000 N 
ATOM     28  C   UNL     1      51.675  11.693  13.019  0.00  0.00    +0.000 A 
ATOM     29  O   UNL     1      51.558  11.705  14.226  0.00  0.00    +0.000 OA
ATOM     30  C   UNL     1      51.739  10.502  12.181  0.00  0.00    +0.000 A 
ATOM     31  H   UNL     1      51.742  13.714  12.839  0.00  0.00    +0.000 HD
ENDBRANCH  19  21
BRANCH  18  33
ATOM     32  C   UNL     1      48.278   9.475  16.237  0.00  0.00    +0.000 C 
ATOM     33  C   UNL     1      48.951   8.462  15.304  0.00  0.00    +0.000 C 
ENDBRANCH  18  33
ENDBRANCH   1  18
TORSDOF 8
ENDMDL
