MODEL 1
REMARK VINA RESULT:    -8.286      0.000      0.000
REMARK INTER + INTRA:         -12.484
REMARK INTER:                 -11.676
REMARK INTRA:                  -0.808
REMARK UNBOUND:                -0.808
REMARK  Name = 
REMARK  7 active torsions:
REMARK  status: ('A' for Active; 'I' for Inactive)
REMARK    1  A    between atoms: C_2  and  C_4
REMARK    2  A    between atoms: C_7  and  N_8
REMARK    3  A    between atoms: N_8  and  C_9
REMARK    4  A    between atoms: C_9  and  C_10
REMARK    5  A    between atoms: C_10  and  C_11
REMARK    6  A    between atoms: C_15  and  O_16
REMARK    7  A    between atoms: O_16  and  C_17
REMARK                            x       y       z     vdW  Elec       q    Type
REMARK                         _______ _______ _______ _____ _____    ______ ____
ROOT
ATOM      1  N   UNL     1      43.659   4.785   9.956  0.00  0.00    +0.000 N 
ATOM      2  H   UNL     1      42.896   5.072   9.346  0.00  0.00    +0.000 HD
ENDROOT
BRANCH   1   6
ATOM      3  C   UNL     1      46.482   2.535   7.747  0.00  0.00    +0.000 A 
ATOM      4  C   UNL     1      46.503   3.927   7.675  0.00  0.00    +0.000 A 
ATOM      5  C   UNL     1      45.583   4.679   8.412  0.00  0.00    +0.000 A 
ATOM      6  C   UNL     1      44.644   4.071   9.257  0.00  0.00    +0.000 A 
ATOM      7  C   UNL     1      44.619   2.669   9.297  0.00  0.00    +0.000 A 
ATOM      8  C   UNL     1      45.526   1.904   8.547  0.00  0.00    +0.000 A 
BRANCH   3  10
ATOM      9  N   UNL     1      48.455   2.365   6.332  0.00  0.00    +0.000 N 
ATOM     10  C   UNL     1      47.427   1.709   6.957  0.00  0.00    +0.000 C 
ATOM     11  O   UNL     1      47.324   0.492   6.886  0.00  0.00    +0.000 OA
ATOM     12  H   UNL     1      49.146   1.786   5.873  0.00  0.00    +0.000 HD
ATOM     13  H   UNL     1      48.711   3.315   6.558  0.00  0.00    +0.000 HD
ENDBRANCH   3  10
ENDBRANCH   1   6
BRANCH   1  14
ATOM     14  C   UNL     1      43.246   4.287  11.266  0.00  0.00    +0.000 C 
BRANCH  14  15
ATOM     15  C   UNL     1      43.355   5.351  12.360  0.00  0.00    +0.000 C 
BRANCH  15  16
ATOM     16  C   UNL     1      44.816   5.611  12.656  0.00  0.00    +0.000 A 
ATOM     17  C   UNL     1      45.410   6.831  12.310  0.00  0.00    +0.000 A 
ATOM     18  C   UNL     1      46.720   7.112  12.705  0.00  0.00    +0.000 A 
ATOM     19  C   UNL     1      47.454   6.179  13.443  0.00  0.00    +0.000 A 
ATOM     20  C   UNL     1      46.879   4.955  13.774  0.00  0.00    +0.000 A 
ATOM     21  C   UNL     1      45.565   4.678  13.388  0.00  0.00    +0.000 A 
BRANCH  20  22
ATOM     22  O   UNL     1      47.485   3.972  14.516  0.00  0.00    +0.000 OA
BRANCH  22  23
ATOM     23  C   UNL     1      47.349   3.994  15.953  0.00  0.00    +0.000 C 
ATOM     24  C   UNL     1      48.210   4.987  16.747  0.00  0.00    +0.000 C 
ATOM     25  O   UNL     1      48.690   3.934  17.620  0.00  0.00    +0.000 OA
ATOM     26  C   UNL     1      48.175   2.937  16.703  0.00  0.00    +0.000 C 
ENDBRANCH  22  23
ENDBRANCH  20  22
ENDBRANCH  15  16
ENDBRANCH  14  15
ENDBRANCH   1  14
TORSDOF 7
ENDMDL
MODEL 2
REMARK VINA RESULT:    -7.173      2.349      3.361
REMARK INTER + INTRA:         -10.916
REMARK INTER:                 -10.152
REMARK INTRA:                  -0.764
REMARK UNBOUND:                -0.808
REMARK  Name = 
REMARK  7 active torsions:
REMARK  status: ('A' for Active; 'I' for Inactive)
REMARK    1  A    between atoms: C_2  and  C_4
REMARK    2  A    between atoms: C_7  and  N_8
REMARK    3  A    between atoms: N_8  and  C_9
REMARK    4  A    between atoms: C_9  and  C_10
REMARK    5  A    between atoms: C_10  and  C_11
REMARK    6  A    between atoms: C_15  and  O_16
REMARK    7  A    between atoms: O_16  and  C_17
REMARK                            x       y       z     vdW  Elec       q    Type
REMARK                         _______ _______ _______ _____ _____    ______ ____
ROOT
ATOM      1  N   UNL     1      43.621   4.924   9.737  0.00  0.00    +0.000 N 
ATOM      2  H   UNL     1      42.662   4.599   9.629  0.00  0.00    +0.000 HD
ENDROOT
BRANCH   1   6
ATOM      3  C   UNL     1      46.240   2.115   7.960  0.00  0.00    +0.000 A 
ATOM      4  C   UNL     1      46.353   3.465   7.631  0.00  0.00    +0.000 A 
ATOM      5  C   UNL     1      45.501   4.401   8.224  0.00  0.00    +0.000 A 
ATOM      6  C   UNL     1      44.542   4.026   9.174  0.00  0.00    +0.000 A 
ATOM      7  C   UNL     1      44.424   2.661   9.474  0.00  0.00    +0.000 A 
ATOM      8  C   UNL     1      45.262   1.710   8.871  0.00  0.00    +0.000 A 
BRANCH   3  10
ATOM      9  N   UNL     1      46.813  -0.221   7.582  0.00  0.00    +0.000 N 
ATOM     10  C   UNL     1      47.112   1.093   7.330  0.00  0.00    +0.000 C 
ATOM     11  O   UNL     1      48.037   1.396   6.589  0.00  0.00    +0.000 OA
ATOM     12  H   UNL     1      47.354  -0.910   7.076  0.00  0.00    +0.000 HD
ATOM     13  H   UNL     1      45.932  -0.511   7.981  0.00  0.00    +0.000 HD
ENDBRANCH   3  10
ENDBRANCH   1   6
BRANCH   1  14
ATOM     14  C   UNL     1      43.933   5.502  11.042  0.00  0.00    +0.000 C 
BRANCH  14  15
ATOM     15  C   UNL     1      45.191   6.373  11.013  0.00  0.00    +0.000 C 
BRANCH  15  16
ATOM     16  C   UNL     1      46.031   6.074  12.236  0.00  0.00    +0.000 A 
ATOM     17  C   UNL     1      45.591   5.157  13.198  0.00  0.00    +0.000 A 
ATOM     18  C   UNL     1      46.429   4.789  14.254  0.00  0.00    +0.000 A 
ATOM     19  C   UNL     1      47.712   5.335  14.364  0.00  0.00    +0.000 A 
ATOM     20  C   UNL     1      48.150   6.263  13.423  0.00  0.00    +0.000 A 
ATOM     21  C   UNL     1      47.315   6.623  12.362  0.00  0.00    +0.000 A 
BRANCH  20  22
ATOM     22  O   UNL     1      49.392   6.846  13.407  0.00  0.00    +0.000 OA
BRANCH  22  23
ATOM     23  C   UNL     1      49.643   7.936  12.493  0.00  0.00    +0.000 C 
ATOM     24  C   UNL     1      50.719   7.744  11.416  0.00  0.00    +0.000 C 
ATOM     25  O   UNL     1      51.376   8.980  11.794  0.00  0.00    +0.000 OA
ATOM     26  C   UNL     1      50.600   9.019  13.017  0.00  0.00    +0.000 C 
ENDBRANCH  22  23
ENDBRANCH  20  22
ENDBRANCH  15  16
ENDBRANCH  14  15
ENDBRANCH   1  14
TORSDOF 7
ENDMDL
MODEL 3
REMARK VINA RESULT:    -7.161      3.266      5.057
REMARK INTER + INTRA:         -10.899
REMARK INTER:                 -10.284
REMARK INTRA:                  -0.616
REMARK UNBOUND:                -0.808
REMARK  Name = 
REMARK  7 active torsions:
REMARK  status: ('A' for Active; 'I' for Inactive)
REMARK    1  A    between atoms: C_2  and  C_4
REMARK    2  A    between atoms: C_7  and  N_8
REMARK    3  A    between atoms: N_8  and  C_9
REMARK    4  A    between atoms: C_9  and  C_10
REMARK    5  A    between atoms: C_10  and  C_11
REMARK    6  A    between atoms: C_15  and  O_16
REMARK    7  A    between atoms: O_16  and  C_17
REMARK                            x       y       z     vdW  Elec       q    Type
REMARK                         _______ _______ _______ _____ _____    ______ ____
ROOT
ATOM      1  N   UNL     1      43.591   4.324  10.338  0.00  0.00    +0.000 N 
ATOM      2  H   UNL     1      43.127   3.667  10.962  0.00  0.00    +0.000 HD
ENDROOT
BRANCH   1   6
ATOM      3  C   UNL     1      46.382   2.471   7.752  0.00  0.00    +0.000 A 
ATOM      4  C   UNL     1      45.633   1.690   8.631  0.00  0.00    +0.000 A 
ATOM      5  C   UNL     1      44.699   2.292   9.478  0.00  0.00    +0.000 A 
ATOM      6  C   UNL     1      44.466   3.674   9.454  0.00  0.00    +0.000 A 
ATOM      7  C   UNL     1      45.247   4.449   8.583  0.00  0.00    +0.000 A 
ATOM      8  C   UNL     1      46.201   3.856   7.741  0.00  0.00    +0.000 A 
BRANCH   3  10
ATOM      9  N   UNL     1      48.448   2.663   6.478  0.00  0.00    +0.000 N 
ATOM     10  C   UNL     1      47.400   1.866   6.859  0.00  0.00    +0.000 C 
ATOM     11  O   UNL     1      47.336   0.699   6.497  0.00  0.00    +0.000 OA
ATOM     12  H   UNL     1      49.183   2.217   5.945  0.00  0.00    +0.000 HD
ATOM     13  H   UNL     1      48.662   3.536   6.939  0.00  0.00    +0.000 HD
ENDBRANCH   3  10
ENDBRANCH   1   6
BRANCH   1  14
ATOM     14  C   UNL     1      44.046   5.560  10.972  0.00  0.00    +0.000 C 
BRANCH  14  15
ATOM     15  C   UNL     1      45.330   5.365  11.783  0.00  0.00    +0.000 C 
BRANCH  15  16
ATOM     16  C   UNL     1      45.968   6.714  12.033  0.00  0.00    +0.000 A 
ATOM     17  C   UNL     1      47.361   6.857  12.036  0.00  0.00    +0.000 A 
ATOM     18  C   UNL     1      47.938   8.125  12.136  0.00  0.00    +0.000 A 
ATOM     19  C   UNL     1      47.133   9.264  12.239  0.00  0.00    +0.000 A 
ATOM     20  C   UNL     1      45.748   9.131  12.256  0.00  0.00    +0.000 A 
ATOM     21  C   UNL     1      45.171   7.862  12.147  0.00  0.00    +0.000 A 
BRANCH  20  22
ATOM     22  O   UNL     1      44.854  10.170  12.324  0.00  0.00    +0.000 OA
BRANCH  22  23
ATOM     23  C   UNL     1      44.709  11.045  11.185  0.00  0.00    +0.000 C 
ATOM     24  C   UNL     1      43.707  12.203  11.285  0.00  0.00    +0.000 C 
ATOM     25  O   UNL     1      43.070  11.814  10.043  0.00  0.00    +0.000 OA
ATOM     26  C   UNL     1      43.757  10.538  10.091  0.00  0.00    +0.000 C 
ENDBRANCH  22  23
ENDBRANCH  20  22
ENDBRANCH  15  16
ENDBRANCH  14  15
ENDBRANCH   1  14
TORSDOF 7
ENDMDL
MODEL 4
REMARK VINA RESULT:    -7.106      2.319      3.729
REMARK INTER + INTRA:         -10.822
REMARK INTER:                 -10.109
REMARK INTRA:                  -0.713
REMARK UNBOUND:                -0.808
REMARK  Name = 
REMARK  7 active torsions:
REMARK  status: ('A' for Active; 'I' for Inactive)
REMARK    1  A    between atoms: C_2  and  C_4
REMARK    2  A    between atoms: C_7  and  N_8
REMARK    3  A    between atoms: N_8  and  C_9
REMARK    4  A    between atoms: C_9  and  C_10
REMARK    5  A    between atoms: C_10  and  C_11
REMARK    6  A    between atoms: C_15  and  O_16
REMARK    7  A    between atoms: O_16  and  C_17
REMARK                            x       y       z     vdW  Elec       q    Type
REMARK                         _______ _______ _______ _____ _____    ______ ____
ROOT
ATOM      1  N   UNL     1      43.523   4.296  10.393  0.00  0.00    +0.000 N 
ATOM      2  H   UNL     1      42.625   3.830  10.270  0.00  0.00    +0.000 HD
ENDROOT
BRANCH   1   6
ATOM      3  C   UNL     1      46.376   2.498   7.836  0.00  0.00    +0.000 A 
ATOM      4  C   UNL     1      46.271   3.888   7.881  0.00  0.00    +0.000 A 
ATOM      5  C   UNL     1      45.341   4.490   8.733  0.00  0.00    +0.000 A 
ATOM      6  C   UNL     1      44.517   3.733   9.578  0.00  0.00    +0.000 A 
ATOM      7  C   UNL     1      44.617   2.336   9.500  0.00  0.00    +0.000 A 
ATOM      8  C   UNL     1      45.535   1.720   8.634  0.00  0.00    +0.000 A 
BRANCH   3  10
ATOM      9  N   UNL     1      48.404   2.568   6.491  0.00  0.00    +0.000 N 
ATOM     10  C   UNL     1      47.334   1.828   6.923  0.00  0.00    +0.000 C 
ATOM     11  O   UNL     1      47.205   0.658   6.590  0.00  0.00    +0.000 OA
ATOM     12  H   UNL     1      49.100   2.077   5.945  0.00  0.00    +0.000 HD
ATOM     13  H   UNL     1      48.673   3.439   6.925  0.00  0.00    +0.000 HD
ENDBRANCH   3  10
ENDBRANCH   1   6
BRANCH   1  14
ATOM     14  C   UNL     1      43.867   4.616  11.777  0.00  0.00    +0.000 C 
BRANCH  14  15
ATOM     15  C   UNL     1      45.102   3.856  12.265  0.00  0.00    +0.000 C 
BRANCH  15  16
ATOM     16  C   UNL     1      46.082   4.838  12.869  0.00  0.00    +0.000 A 
ATOM     17  C   UNL     1      46.652   4.599  14.126  0.00  0.00    +0.000 A 
ATOM     18  C   UNL     1      47.652   5.441  14.616  0.00  0.00    +0.000 A 
ATOM     19  C   UNL     1      48.092   6.534  13.862  0.00  0.00    +0.000 A 
ATOM     20  C   UNL     1      47.517   6.792  12.621  0.00  0.00    +0.000 A 
ATOM     21  C   UNL     1      46.522   5.943  12.126  0.00  0.00    +0.000 A 
BRANCH  20  22
ATOM     22  O   UNL     1      47.880   7.812  11.778  0.00  0.00    +0.000 OA
BRANCH  22  23
ATOM     23  C   UNL     1      47.990   9.152  12.305  0.00  0.00    +0.000 C 
ATOM     24  C   UNL     1      46.889  10.161  11.952  0.00  0.00    +0.000 C 
ATOM     25  O   UNL     1      47.866  11.131  11.498  0.00  0.00    +0.000 OA
ATOM     26  C   UNL     1      48.886  10.100  11.494  0.00  0.00    +0.000 C 
ENDBRANCH  22  23
ENDBRANCH  20  22
ENDBRANCH  15  16
ENDBRANCH  14  15
ENDBRANCH   1  14
TORSDOF 7
ENDMDL
MODEL 5
REMARK VINA RESULT:    -6.930      1.870      2.550
REMARK INTER + INTRA:         -10.573
REMARK INTER:                 -10.030
REMARK INTRA:                  -0.543
REMARK UNBOUND:                -0.808
REMARK  Name = 
REMARK  7 active torsions:
REMARK  status: ('A' for Active; 'I' for Inactive)
REMARK    1  A    between atoms: C_2  and  C_4
REMARK    2  A    between atoms: C_7  and  N_8
REMARK    3  A    between atoms: N_8  and  C_9
REMARK    4  A    between atoms: C_9  and  C_10
REMARK    5  A    between atoms: C_10  and  C_11
REMARK    6  A    between atoms: C_15  and  O_16
REMARK    7  A    between atoms: O_16  and  C_17
REMARK                            x       y       z     vdW  Elec       q    Type
REMARK                         _______ _______ _______ _____ _____    ______ ____
ROOT
ATOM      1  N   UNL     1      43.886   4.819  10.046  0.00  0.00    +0.000 N 
ATOM      2  H   UNL     1      43.011   4.311  10.161  0.00  0.00    +0.000 HD
ENDROOT
BRANCH   1   6
ATOM      3  C   UNL     1      46.523   2.532   7.653  0.00  0.00    +0.000 A 
ATOM      4  C   UNL     1      46.522   3.922   7.542  0.00  0.00    +0.000 A 
ATOM      5  C   UNL     1      45.665   4.685   8.338  0.00  0.00    +0.000 A 
ATOM      6  C   UNL     1      44.812   4.093   9.281  0.00  0.00    +0.000 A 
ATOM      7  C   UNL     1      44.807   2.693   9.361  0.00  0.00    +0.000 A 
ATOM      8  C   UNL     1      45.651   1.916   8.553  0.00  0.00    +0.000 A 
BRANCH   3  10
ATOM      9  N   UNL     1      48.461   2.316   6.195  0.00  0.00    +0.000 N 
ATOM     10  C   UNL     1      47.403   1.692   6.804  0.00  0.00    +0.000 C 
ATOM     11  O   UNL     1      47.223   0.490   6.672  0.00  0.00    +0.000 OA
ATOM     12  H   UNL     1      49.107   1.721   5.694  0.00  0.00    +0.000 HD
ATOM     13  H   UNL     1      48.779   3.235   6.466  0.00  0.00    +0.000 HD
ENDBRANCH   3  10
ENDBRANCH   1   6
BRANCH   1  14
ATOM     14  C   UNL     1      44.367   5.498  11.247  0.00  0.00    +0.000 C 
BRANCH  14  15
ATOM     15  C   UNL     1      43.718   6.870  11.446  0.00  0.00    +0.000 C 
BRANCH  15  16
ATOM     16  C   UNL     1      44.801   7.915  11.596  0.00  0.00    +0.000 A 
ATOM     17  C   UNL     1      44.517   9.273  11.406  0.00  0.00    +0.000 A 
ATOM     18  C   UNL     1      45.489  10.239  11.675  0.00  0.00    +0.000 A 
ATOM     19  C   UNL     1      46.756   9.863  12.131  0.00  0.00    +0.000 A 
ATOM     20  C   UNL     1      47.055   8.514  12.303  0.00  0.00    +0.000 A 
ATOM     21  C   UNL     1      46.079   7.548  12.043  0.00  0.00    +0.000 A 
BRANCH  20  22
ATOM     22  O   UNL     1      48.248   8.022  12.770  0.00  0.00    +0.000 OA
BRANCH  22  23
ATOM     23  C   UNL     1      48.362   7.666  14.164  0.00  0.00    +0.000 C 
ATOM     24  C   UNL     1      49.759   7.361  14.722  0.00  0.00    +0.000 C 
ATOM     25  O   UNL     1      49.308   6.098  15.273  0.00  0.00    +0.000 OA
ATOM     26  C   UNL     1      48.095   6.186  14.484  0.00  0.00    +0.000 C 
ENDBRANCH  22  23
ENDBRANCH  20  22
ENDBRANCH  15  16
ENDBRANCH  14  15
ENDBRANCH   1  14
TORSDOF 7
ENDMDL
MODEL 6
REMARK VINA RESULT:    -6.615      2.659      8.018
REMARK INTER + INTRA:         -10.130
REMARK INTER:                  -9.548
REMARK INTRA:                  -0.581
REMARK UNBOUND:                -0.808
REMARK  Name = 
REMARK  7 active torsions:
REMARK  status: ('A' for Active; 'I' for Inactive)
REMARK    1  A    between atoms: C_2  and  C_4
REMARK    2  A    between atoms: C_7  and  N_8
REMARK    3  A    between atoms: N_8  and  C_9
REMARK    4  A    between atoms: C_9  and  C_10
REMARK    5  A    between atoms: C_10  and  C_11
REMARK    6  A    between atoms: C_15  and  O_16
REMARK    7  A    between atoms: O_16  and  C_17
REMARK                            x       y       z     vdW  Elec       q    Type
REMARK                         _______ _______ _______ _____ _____    ______ ____
ROOT
ATOM      1  N   UNL     1      47.300   7.163  13.000  0.00  0.00    +0.000 N 
ATOM      2  H   UNL     1      47.872   8.005  13.013  0.00  0.00    +0.000 HD
ENDROOT
BRANCH   1   6
ATOM      3  C   UNL     1      48.122   4.756  16.383  0.00  0.00    +0.000 A 
ATOM      4  C   UNL     1      47.231   4.299  15.413  0.00  0.00    +0.000 A 
ATOM      5  C   UNL     1      46.964   5.081  14.286  0.00  0.00    +0.000 A 
ATOM      6  C   UNL     1      47.594   6.316  14.081  0.00  0.00    +0.000 A 
ATOM      7  C   UNL     1      48.468   6.773  15.079  0.00  0.00    +0.000 A 
ATOM      8  C   UNL     1      48.729   6.003  16.223  0.00  0.00    +0.000 A 
BRANCH   3  10
ATOM      9  N   UNL     1      47.533   4.096  18.651  0.00  0.00    +0.000 N 
ATOM     10  C   UNL     1      48.407   3.961  17.602  0.00  0.00    +0.000 C 
ATOM     11  O   UNL     1      49.355   3.192  17.671  0.00  0.00    +0.000 OA
ATOM     12  H   UNL     1      47.682   3.483  19.442  0.00  0.00    +0.000 HD
ATOM     13  H   UNL     1      46.624   4.524  18.549  0.00  0.00    +0.000 HD
ENDBRANCH   3  10
ENDBRANCH   1   6
BRANCH   1  14
ATOM     14  C   UNL     1      47.121   6.559  11.682  0.00  0.00    +0.000 C 
BRANCH  14  15
ATOM     15  C   UNL     1      45.661   6.577  11.221  0.00  0.00    +0.000 C 
BRANCH  15  16
ATOM     16  C   UNL     1      45.365   5.303  10.459  0.00  0.00    +0.000 A 
ATOM     17  C   UNL     1      44.510   4.333  10.993  0.00  0.00    +0.000 A 
ATOM     18  C   UNL     1      44.139   3.224  10.228  0.00  0.00    +0.000 A 
ATOM     19  C   UNL     1      44.622   3.068   8.926  0.00  0.00    +0.000 A 
ATOM     20  C   UNL     1      45.489   4.018   8.393  0.00  0.00    +0.000 A 
ATOM     21  C   UNL     1      45.852   5.132   9.155  0.00  0.00    +0.000 A 
BRANCH  20  22
ATOM     22  O   UNL     1      46.006   3.992   7.122  0.00  0.00    +0.000 OA
BRANCH  22  23
ATOM     23  C   UNL     1      46.344   2.720   6.528  0.00  0.00    +0.000 C 
ATOM     24  C   UNL     1      47.460   1.891   7.179  0.00  0.00    +0.000 C 
ATOM     25  O   UNL     1      48.149   1.748   5.912  0.00  0.00    +0.000 OA
ATOM     26  C   UNL     1      47.319   2.792   5.343  0.00  0.00    +0.000 C 
ENDBRANCH  22  23
ENDBRANCH  20  22
ENDBRANCH  15  16
ENDBRANCH  14  15
ENDBRANCH   1  14
TORSDOF 7
ENDMDL
MODEL 7
REMARK VINA RESULT:    -6.361      2.885      7.449
REMARK INTER + INTRA:          -9.772
REMARK INTER:                  -9.016
REMARK INTRA:                  -0.757
REMARK UNBOUND:                -0.808
REMARK  Name = 
REMARK  7 active torsions:
REMARK  status: ('A' for Active; 'I' for Inactive)
REMARK    1  A    between atoms: C_2  and  C_4
REMARK    2  A    between atoms: C_7  and  N_8
REMARK    3  A    between atoms: N_8  and  C_9
REMARK    4  A    between atoms: C_9  and  C_10
REMARK    5  A    between atoms: C_10  and  C_11
REMARK    6  A    between atoms: C_15  and  O_16
REMARK    7  A    between atoms: O_16  and  C_17
REMARK                            x       y       z     vdW  Elec       q    Type
REMARK                         _______ _______ _______ _____ _____    ______ ____
ROOT
ATOM      1  N   UNL     1      48.128   7.164  13.327  0.00  0.00    +0.000 N 
ATOM      2  H   UNL     1      49.104   7.406  13.165  0.00  0.00    +0.000 HD
ENDROOT
BRANCH   1   6
ATOM      3  C   UNL     1      47.792   4.342  16.463  0.00  0.00    +0.000 A 
ATOM      4  C   UNL     1      48.459   5.546  16.689  0.00  0.00    +0.000 A 
ATOM      5  C   UNL     1      48.562   6.489  15.663  0.00  0.00    +0.000 A 
ATOM      6  C   UNL     1      47.984   6.275  14.404  0.00  0.00    +0.000 A 
ATOM      7  C   UNL     1      47.340   5.048  14.186  0.00  0.00    +0.000 A 
ATOM      8  C   UNL     1      47.247   4.086  15.204  0.00  0.00    +0.000 A 
BRANCH   3  10
ATOM      9  N   UNL     1      48.811   3.069  18.271  0.00  0.00    +0.000 N 
ATOM     10  C   UNL     1      47.687   3.310  17.523  0.00  0.00    +0.000 C 
ATOM     11  O   UNL     1      46.643   2.716  17.752  0.00  0.00    +0.000 OA
ATOM     12  H   UNL     1      48.706   2.432  19.050  0.00  0.00    +0.000 HD
ATOM     13  H   UNL     1      49.604   3.694  18.277  0.00  0.00    +0.000 HD
ENDBRANCH   3  10
ENDBRANCH   1   6
BRANCH   1  14
ATOM     14  C   UNL     1      47.345   6.914  12.119  0.00  0.00    +0.000 C 
BRANCH  14  15
ATOM     15  C   UNL     1      45.896   7.389  12.250  0.00  0.00    +0.000 C 
BRANCH  15  16
ATOM     16  C   UNL     1      44.966   6.231  11.963  0.00  0.00    +0.000 A 
ATOM     17  C   UNL     1      43.975   5.864  12.881  0.00  0.00    +0.000 A 
ATOM     18  C   UNL     1      43.039   4.882  12.550  0.00  0.00    +0.000 A 
ATOM     19  C   UNL     1      43.084   4.250  11.304  0.00  0.00    +0.000 A 
ATOM     20  C   UNL     1      44.078   4.593  10.392  0.00  0.00    +0.000 A 
ATOM     21  C   UNL     1      45.009   5.583  10.719  0.00  0.00    +0.000 A 
BRANCH  20  22
ATOM     22  O   UNL     1      44.210   4.068   9.131  0.00  0.00    +0.000 OA
BRANCH  22  23
ATOM     23  C   UNL     1      45.485   3.520   8.730  0.00  0.00    +0.000 C 
ATOM     24  C   UNL     1      45.762   3.358   7.229  0.00  0.00    +0.000 C 
ATOM     25  O   UNL     1      46.137   1.969   7.407  0.00  0.00    +0.000 OA
ATOM     26  C   UNL     1      45.568   1.986   8.740  0.00  0.00    +0.000 C 
ENDBRANCH  22  23
ENDBRANCH  20  22
ENDBRANCH  15  16
ENDBRANCH  14  15
ENDBRANCH   1  14
TORSDOF 7
ENDMDL
MODEL 8
REMARK VINA RESULT:    -6.274      3.885      7.779
REMARK INTER + INTRA:          -9.650
REMARK INTER:                  -8.956
REMARK INTRA:                  -0.694
REMARK UNBOUND:                -0.808
REMARK  Name = 
REMARK  7 active torsions:
REMARK  status: ('A' for Active; 'I' for Inactive)
REMARK    1  A    between atoms: C_2  and  C_4
REMARK    2  A    between atoms: C_7  and  N_8
REMARK    3  A    between atoms: N_8  and  C_9
REMARK    4  A    between atoms: C_9  and  C_10
REMARK    5  A    between atoms: C_10  and  C_11
REMARK    6  A    between atoms: C_15  and  O_16
REMARK    7  A    between atoms: O_16  and  C_17
REMARK                            x       y       z     vdW  Elec       q    Type
REMARK                         _______ _______ _______ _____ _____    ______ ____
ROOT
ATOM      1  N   UNL     1      46.820   6.119  12.912  0.00  0.00    +0.000 N 
ATOM      2  H   UNL     1      47.115   5.696  13.790  0.00  0.00    +0.000 HD
ENDROOT
BRANCH   1   6
ATOM      3  C   UNL     1      48.846   9.708  11.949  0.00  0.00    +0.000 A 
ATOM      4  C   UNL     1      47.701   9.755  12.743  0.00  0.00    +0.000 A 
ATOM      5  C   UNL     1      47.034   8.574  13.077  0.00  0.00    +0.000 A 
ATOM      6  C   UNL     1      47.501   7.320  12.658  0.00  0.00    +0.000 A 
ATOM      7  C   UNL     1      48.639   7.292  11.839  0.00  0.00    +0.000 A 
ATOM      8  C   UNL     1      49.306   8.475  11.482  0.00  0.00    +0.000 A 
BRANCH   3  10
ATOM      9  N   UNL     1      50.260  11.601  12.538  0.00  0.00    +0.000 N 
ATOM     10  C   UNL     1      49.562  10.946  11.556  0.00  0.00    +0.000 C 
ATOM     11  O   UNL     1      49.566  11.357  10.403  0.00  0.00    +0.000 OA
ATOM     12  H   UNL     1      50.819  12.391  12.242  0.00  0.00    +0.000 HD
ATOM     13  H   UNL     1      50.478  11.174  13.426  0.00  0.00    +0.000 HD
ENDBRANCH   3  10
ENDBRANCH   1   6
BRANCH   1  14
ATOM     14  C   UNL     1      45.382   6.077  12.658  0.00  0.00    +0.000 C 
BRANCH  14  15
ATOM     15  C   UNL     1      45.036   6.349  11.192  0.00  0.00    +0.000 C 
BRANCH  15  16
ATOM     16  C   UNL     1      45.042   5.043  10.429  0.00  0.00    +0.000 A 
ATOM     17  C   UNL     1      44.311   3.942  10.890  0.00  0.00    +0.000 A 
ATOM     18  C   UNL     1      44.216   2.785  10.112  0.00  0.00    +0.000 A 
ATOM     19  C   UNL     1      44.855   2.711   8.871  0.00  0.00    +0.000 A 
ATOM     20  C   UNL     1      45.601   3.793   8.413  0.00  0.00    +0.000 A 
ATOM     21  C   UNL     1      45.688   4.954   9.187  0.00  0.00    +0.000 A 
BRANCH  20  22
ATOM     22  O   UNL     1      46.248   3.853   7.205  0.00  0.00    +0.000 OA
BRANCH  22  23
ATOM     23  C   UNL     1      46.560   2.623   6.515  0.00  0.00    +0.000 C 
ATOM     24  C   UNL     1      47.738   1.784   7.027  0.00  0.00    +0.000 C 
ATOM     25  O   UNL     1      48.326   1.726   5.703  0.00  0.00    +0.000 OA
ATOM     26  C   UNL     1      47.436   2.782   5.262  0.00  0.00    +0.000 C 
ENDBRANCH  22  23
ENDBRANCH  20  22
ENDBRANCH  15  16
ENDBRANCH  14  15
ENDBRANCH   1  14
TORSDOF 7
ENDMDL
MODEL 9
REMARK VINA RESULT:    -6.153      2.853      4.357
REMARK INTER + INTRA:          -9.479
REMARK INTER:                  -8.513
REMARK INTRA:                  -0.966
REMARK UNBOUND:                -0.808
REMARK  Name = 
REMARK  7 active torsions:
REMARK  status: ('A' for Active; 'I' for Inactive)
REMARK    1  A    between atoms: C_2  and  C_4
REMARK    2  A    between atoms: C_7  and  N_8
REMARK    3  A    between atoms: N_8  and  C_9
REMARK    4  A    between atoms: C_9  and  C_10
REMARK    5  A    between atoms: C_10  and  C_11
REMARK    6  A    between atoms: C_15  and  O_16
REMARK    7  A    between atoms: O_16  and  C_17
REMARK                            x       y       z     vdW  Elec       q    Type
REMARK                         _______ _______ _______ _____ _____    ______ ____
ROOT
ATOM      1  N   UNL     1      45.896   8.001  13.213  0.00  0.00    +0.000 N 
ATOM      2  H   UNL     1      46.103   7.882  14.203  0.00  0.00    +0.000 HD
ENDROOT
BRANCH   1   6
ATOM      3  C   UNL     1      44.605   4.334  11.540  0.00  0.00    +0.000 A 
ATOM      4  C   UNL     1      44.586   5.490  10.762  0.00  0.00    +0.000 A 
ATOM      5  C   UNL     1      45.024   6.702  11.302  0.00  0.00    +0.000 A 
ATOM      6  C   UNL     1      45.516   6.790  12.611  0.00  0.00    +0.000 A 
ATOM      7  C   UNL     1      45.503   5.624  13.389  0.00  0.00    +0.000 A 
ATOM      8  C   UNL     1      45.048   4.404  12.863  0.00  0.00    +0.000 A 
BRANCH   3  10
ATOM      9  N   UNL     1      44.900   2.429  10.054  0.00  0.00    +0.000 N 
ATOM     10  C   UNL     1      44.122   3.037  11.005  0.00  0.00    +0.000 C 
ATOM     11  O   UNL     1      43.097   2.508  11.410  0.00  0.00    +0.000 OA
ATOM     12  H   UNL     1      44.612   1.504   9.762  0.00  0.00    +0.000 HD
ATOM     13  H   UNL     1      45.854   2.706   9.872  0.00  0.00    +0.000 HD
ENDBRANCH   3  10
ENDBRANCH   1   6
BRANCH   1  14
ATOM     14  C   UNL     1      46.824   8.867  12.489  0.00  0.00    +0.000 C 
BRANCH  14  15
ATOM     15  C   UNL     1      48.278   8.408  12.617  0.00  0.00    +0.000 C 
BRANCH  15  16
ATOM     16  C   UNL     1      48.589   8.146  14.074  0.00  0.00    +0.000 A 
ATOM     17  C   UNL     1      48.633   9.198  14.997  0.00  0.00    +0.000 A 
ATOM     18  C   UNL     1      48.790   8.933  16.359  0.00  0.00    +0.000 A 
ATOM     19  C   UNL     1      48.911   7.617  16.816  0.00  0.00    +0.000 A 
ATOM     20  C   UNL     1      48.889   6.565  15.904  0.00  0.00    +0.000 A 
ATOM     21  C   UNL     1      48.722   6.831  14.542  0.00  0.00    +0.000 A 
BRANCH  20  22
ATOM     22  O   UNL     1      48.970   5.235  16.230  0.00  0.00    +0.000 OA
BRANCH  22  23
ATOM     23  C   UNL     1      47.764   4.440  16.235  0.00  0.00    +0.000 C 
ATOM     24  C   UNL     1      46.948   4.369  17.532  0.00  0.00    +0.000 C 
ATOM     25  O   UNL     1      46.936   2.920  17.494  0.00  0.00    +0.000 OA
ATOM     26  C   UNL     1      47.975   2.938  16.483  0.00  0.00    +0.000 C 
ENDBRANCH  22  23
ENDBRANCH  20  22
ENDBRANCH  15  16
ENDBRANCH  14  15
ENDBRANCH   1  14
TORSDOF 7
ENDMDL
