MODEL 1
REMARK VINA RESULT:    -8.331      0.000      0.000
REMARK INTER + INTRA:         -12.030
REMARK INTER:                 -11.253
REMARK INTRA:                  -0.777
REMARK UNBOUND:                -0.777
REMARK  Name = 
REMARK  6 active torsions:
REMARK  status: ('A' for Active; 'I' for Inactive)
REMARK    1  A    between atoms: C_2  and  O_3
REMARK    2  A    between atoms: C_2  and  C_18
REMARK    3  A    between atoms: O_3  and  C_4
REMARK    4  A    between atoms: C_4  and  C_5
REMARK    5  A    between atoms: C_8  and  C_9
REMARK    6  A    between atoms: C_9  and  C_10
REMARK                            x       y       z     vdW  Elec       q    Type
REMARK                         _______ _______ _______ _____ _____    ______ ____
ROOT
ATOM      1  O   UNL     1      45.690   4.599  14.261  0.00  0.00    +0.000 OA
ENDROOT
BRANCH   1   3
ATOM      2  O   UNL     1      47.481   3.201  13.946  0.00  0.00    +0.000 OA
ATOM      3  C   UNL     1      46.986   4.225  14.405  0.00  0.00    +0.000 C 
BRANCH   3   4
ATOM      4  C   UNL     1      47.668   5.058  15.378  0.00  0.00    +0.000 A 
ATOM      5  C   UNL     1      48.259   6.272  15.062  0.00  0.00    +0.000 A 
ATOM      6  S   UNL     1      49.367   6.785  16.268  0.00  0.00    +0.000 S 
ATOM      7  C   UNL     1      49.032   5.418  17.226  0.00  0.00    +0.000 A 
ATOM      8  N   UNL     1      49.786   5.077  18.307  0.00  0.00    +0.000 NA
ATOM      9  C   UNL     1      49.399   3.990  18.896  0.00  0.00    +0.000 A 
ATOM     10  N   UNL     1      48.278   3.270  18.569  0.00  0.00    +0.000 N 
ATOM     11  C   UNL     1      47.434   3.636  17.550  0.00  0.00    +0.000 A 
ATOM     12  O   UNL     1      46.336   3.119  17.395  0.00  0.00    +0.000 OA
ATOM     13  C   UNL     1      47.958   4.712  16.735  0.00  0.00    +0.000 A 
ATOM     14  H   UNL     1      47.969   2.498  19.140  0.00  0.00    +0.000 HD
ENDBRANCH   3   4
ENDBRANCH   1   3
BRANCH   1  15
ATOM     15  C   UNL     1      45.407   5.598  13.277  0.00  0.00    +0.000 C 
BRANCH  15  16
ATOM     16  C   UNL     1      45.244   5.031  11.887  0.00  0.00    +0.000 A 
ATOM     17  C   UNL     1      45.719   5.747  10.783  0.00  0.00    +0.000 A 
ATOM     18  C   UNL     1      45.573   5.239   9.488  0.00  0.00    +0.000 A 
ATOM     19  C   UNL     1      44.948   4.001   9.280  0.00  0.00    +0.000 A 
ATOM     20  C   UNL     1      44.529   3.260  10.389  0.00  0.00    +0.000 A 
ATOM     21  C   UNL     1      44.678   3.770  11.682  0.00  0.00    +0.000 A 
BRANCH  19  22
ATOM     22  C   UNL     1      44.741   3.458   7.885  0.00  0.00    +0.000 C 
BRANCH  22  23
ATOM     23  C   UNL     1      45.981   2.868   7.290  0.00  0.00    +0.000 A 
ATOM     24  C   UNL     1      46.600   3.403   6.177  0.00  0.00    +0.000 A 
ATOM     25  N   UNL     1      47.673   2.851   5.578  0.00  0.00    +0.000 NA
ATOM     26  C   UNL     1      48.126   1.716   6.131  0.00  0.00    +0.000 A 
ATOM     27  N   UNL     1      47.629   1.115   7.223  0.00  0.00    +0.000 NA
ATOM     28  C   UNL     1      46.557   1.712   7.778  0.00  0.00    +0.000 A 
ENDBRANCH  22  23
ENDBRANCH  19  22
ENDBRANCH  15  16
ENDBRANCH   1  15
TORSDOF 6
ENDMDL
MODEL 2
REMARK VINA RESULT:    -8.029      1.588      2.272
REMARK INTER + INTRA:         -11.622
REMARK INTER:                 -11.666
REMARK INTRA:                   0.044
REMARK UNBOUND:                -0.777
REMARK  Name = 
REMARK  6 active torsions:
REMARK  status: ('A' for Active; 'I' for Inactive)
REMARK    1  A    between atoms: C_2  and  O_3
REMARK    2  A    between atoms: C_2  and  C_18
REMARK    3  A    between atoms: O_3  and  C_4
REMARK    4  A    between atoms: C_4  and  C_5
REMARK    5  A    between atoms: C_8  and  C_9
REMARK    6  A    between atoms: C_9  and  C_10
REMARK                            x       y       z     vdW  Elec       q    Type
REMARK                         _______ _______ _______ _____ _____    ______ ____
ROOT
ATOM      1  O   UNL     1      46.392   4.574  15.092  0.00  0.00    +0.000 OA
ENDROOT
BRANCH   1   3
ATOM      2  O   UNL     1      47.736   2.739  14.801  0.00  0.00    +0.000 OA
ATOM      3  C   UNL     1      47.378   3.715  15.451  0.00  0.00    +0.000 C 
BRANCH   3   4
ATOM      4  C   UNL     1      47.802   3.945  16.820  0.00  0.00    +0.000 A 
ATOM      5  C   UNL     1      47.091   4.728  17.717  0.00  0.00    +0.000 A 
ATOM      6  S   UNL     1      48.045   5.194  19.065  0.00  0.00    +0.000 S 
ATOM      7  C   UNL     1      49.386   4.325  18.478  0.00  0.00    +0.000 A 
ATOM      8  N   UNL     1      50.634   4.456  19.007  0.00  0.00    +0.000 NA
ATOM      9  C   UNL     1      51.534   3.738  18.414  0.00  0.00    +0.000 A 
ATOM     10  N   UNL     1      51.289   2.833  17.412  0.00  0.00    +0.000 N 
ATOM     11  C   UNL     1      50.030   2.597  16.919  0.00  0.00    +0.000 A 
ATOM     12  O   UNL     1      49.785   1.651  16.181  0.00  0.00    +0.000 OA
ATOM     13  C   UNL     1      49.043   3.539  17.402  0.00  0.00    +0.000 A 
ATOM     14  H   UNL     1      52.016   2.222  17.071  0.00  0.00    +0.000 HD
ENDBRANCH   3   4
ENDBRANCH   1   3
BRANCH   1  15
ATOM     15  C   UNL     1      46.700   5.529  14.071  0.00  0.00    +0.000 C 
BRANCH  15  16
ATOM     16  C   UNL     1      46.150   5.148  12.717  0.00  0.00    +0.000 A 
ATOM     17  C   UNL     1      45.442   3.951  12.566  0.00  0.00    +0.000 A 
ATOM     18  C   UNL     1      44.928   3.581  11.319  0.00  0.00    +0.000 A 
ATOM     19  C   UNL     1      45.116   4.407  10.203  0.00  0.00    +0.000 A 
ATOM     20  C   UNL     1      45.770   5.631  10.370  0.00  0.00    +0.000 A 
ATOM     21  C   UNL     1      46.282   5.999  11.617  0.00  0.00    +0.000 A 
BRANCH  19  22
ATOM     22  C   UNL     1      44.607   4.002   8.838  0.00  0.00    +0.000 C 
BRANCH  22  23
ATOM     23  C   UNL     1      45.518   3.052   8.126  0.00  0.00    +0.000 A 
ATOM     24  C   UNL     1      45.672   1.735   8.515  0.00  0.00    +0.000 A 
ATOM     25  N   UNL     1      46.539   0.879   7.939  0.00  0.00    +0.000 NA
ATOM     26  C   UNL     1      47.272   1.385   6.936  0.00  0.00    +0.000 A 
ATOM     27  N   UNL     1      47.195   2.634   6.452  0.00  0.00    +0.000 NA
ATOM     28  C   UNL     1      46.312   3.443   7.067  0.00  0.00    +0.000 A 
ENDBRANCH  22  23
ENDBRANCH  19  22
ENDBRANCH  15  16
ENDBRANCH   1  15
TORSDOF 6
ENDMDL
MODEL 3
REMARK VINA RESULT:    -7.875      1.526      2.397
REMARK INTER + INTRA:         -11.414
REMARK INTER:                 -10.548
REMARK INTRA:                  -0.867
REMARK UNBOUND:                -0.777
REMARK  Name = 
REMARK  6 active torsions:
REMARK  status: ('A' for Active; 'I' for Inactive)
REMARK    1  A    between atoms: C_2  and  O_3
REMARK    2  A    between atoms: C_2  and  C_18
REMARK    3  A    between atoms: O_3  and  C_4
REMARK    4  A    between atoms: C_4  and  C_5
REMARK    5  A    between atoms: C_8  and  C_9
REMARK    6  A    between atoms: C_9  and  C_10
REMARK                            x       y       z     vdW  Elec       q    Type
REMARK                         _______ _______ _______ _____ _____    ______ ____
ROOT
ATOM      1  O   UNL     1      45.969   4.580  14.573  0.00  0.00    +0.000 OA
ENDROOT
BRANCH   1   3
ATOM      2  O   UNL     1      47.723   3.171  14.126  0.00  0.00    +0.000 OA
ATOM      3  C   UNL     1      47.199   4.054  14.797  0.00  0.00    +0.000 C 
BRANCH   3   4
ATOM      4  C   UNL     1      47.729   4.487  16.077  0.00  0.00    +0.000 A 
ATOM      5  C   UNL     1      47.570   3.767  17.251  0.00  0.00    +0.000 A 
ATOM      6  S   UNL     1      47.875   4.724  18.643  0.00  0.00    +0.000 S 
ATOM      7  C   UNL     1      48.258   6.080  17.685  0.00  0.00    +0.000 A 
ATOM      8  N   UNL     1      48.399   7.330  18.207  0.00  0.00    +0.000 NA
ATOM      9  C   UNL     1      48.662   8.241  17.324  0.00  0.00    +0.000 A 
ATOM     10  N   UNL     1      48.893   8.007  15.992  0.00  0.00    +0.000 N 
ATOM     11  C   UNL     1      48.861   6.748  15.444  0.00  0.00    +0.000 A 
ATOM     12  O   UNL     1      49.268   6.518  14.313  0.00  0.00    +0.000 OA
ATOM     13  C   UNL     1      48.352   5.744  16.354  0.00  0.00    +0.000 A 
ATOM     14  H   UNL     1      49.206   8.745  15.379  0.00  0.00    +0.000 HD
ENDBRANCH   3   4
ENDBRANCH   1   3
BRANCH   1  15
ATOM     15  C   UNL     1      45.868   5.592  13.565  0.00  0.00    +0.000 C 
BRANCH  15  16
ATOM     16  C   UNL     1      45.560   5.035  12.195  0.00  0.00    +0.000 A 
ATOM     17  C   UNL     1      45.886   5.776  11.054  0.00  0.00    +0.000 A 
ATOM     18  C   UNL     1      45.604   5.277   9.778  0.00  0.00    +0.000 A 
ATOM     19  C   UNL     1      44.992   4.026   9.626  0.00  0.00    +0.000 A 
ATOM     20  C   UNL     1      44.722   3.263  10.766  0.00  0.00    +0.000 A 
ATOM     21  C   UNL     1      45.006   3.762  12.040  0.00  0.00    +0.000 A 
BRANCH  19  22
ATOM     22  C   UNL     1      44.639   3.492   8.257  0.00  0.00    +0.000 C 
BRANCH  22  23
ATOM     23  C   UNL     1      45.789   2.829   7.566  0.00  0.00    +0.000 A 
ATOM     24  C   UNL     1      46.273   1.593   7.946  0.00  0.00    +0.000 A 
ATOM     25  N   UNL     1      47.352   1.006   7.390  0.00  0.00    +0.000 NA
ATOM     26  C   UNL     1      47.955   1.707   6.419  0.00  0.00    +0.000 A 
ATOM     27  N   UNL     1      47.567   2.901   5.946  0.00  0.00    +0.000 NA
ATOM     28  C   UNL     1      46.484   3.437   6.540  0.00  0.00    +0.000 A 
ENDBRANCH  22  23
ENDBRANCH  19  22
ENDBRANCH  15  16
ENDBRANCH   1  15
TORSDOF 6
ENDMDL
MODEL 4
REMARK VINA RESULT:    -7.447      1.922      2.764
REMARK INTER + INTRA:         -10.836
REMARK INTER:                 -10.186
REMARK INTRA:                  -0.650
REMARK UNBOUND:                -0.777
REMARK  Name = 
REMARK  6 active torsions:
REMARK  status: ('A' for Active; 'I' for Inactive)
REMARK    1  A    between atoms: C_2  and  O_3
REMARK    2  A    between atoms: C_2  and  C_18
REMARK    3  A    between atoms: O_3  and  C_4
REMARK    4  A    between atoms: C_4  and  C_5
REMARK    5  A    between atoms: C_8  and  C_9
REMARK    6  A    between atoms: C_9  and  C_10
REMARK                            x       y       z     vdW  Elec       q    Type
REMARK                         _______ _______ _______ _____ _____    ______ ____
ROOT
ATOM      1  O   UNL     1      46.905   3.796  15.569  0.00  0.00    +0.000 OA
ENDROOT
BRANCH   1   3
ATOM      2  O   UNL     1      46.769   4.487  17.752  0.00  0.00    +0.000 OA
ATOM      3  C   UNL     1      47.370   3.935  16.836  0.00  0.00    +0.000 C 
BRANCH   3   4
ATOM      4  C   UNL     1      48.772   3.570  16.924  0.00  0.00    +0.000 A 
ATOM      5  C   UNL     1      49.236   2.277  16.738  0.00  0.00    +0.000 A 
ATOM      6  S   UNL     1      50.823   2.065  17.356  0.00  0.00    +0.000 S 
ATOM      7  C   UNL     1      50.908   3.698  17.833  0.00  0.00    +0.000 A 
ATOM      8  N   UNL     1      51.897   4.177  18.636  0.00  0.00    +0.000 NA
ATOM      9  C   UNL     1      51.781   5.436  18.917  0.00  0.00    +0.000 A 
ATOM     10  N   UNL     1      50.833   6.279  18.395  0.00  0.00    +0.000 N 
ATOM     11  C   UNL     1      49.879   5.858  17.502  0.00  0.00    +0.000 A 
ATOM     12  O   UNL     1      49.173   6.643  16.883  0.00  0.00    +0.000 OA
ATOM     13  C   UNL     1      49.843   4.419  17.343  0.00  0.00    +0.000 A 
ATOM     14  H   UNL     1      50.868   7.273  18.565  0.00  0.00    +0.000 HD
ENDBRANCH   3   4
ENDBRANCH   1   3
BRANCH   1  15
ATOM     15  C   UNL     1      46.818   4.983  14.774  0.00  0.00    +0.000 C 
BRANCH  15  16
ATOM     16  C   UNL     1      46.270   4.731  13.390  0.00  0.00    +0.000 A 
ATOM     17  C   UNL     1      46.385   5.718  12.406  0.00  0.00    +0.000 A 
ATOM     18  C   UNL     1      45.880   5.502  11.119  0.00  0.00    +0.000 A 
ATOM     19  C   UNL     1      45.251   4.292  10.800  0.00  0.00    +0.000 A 
ATOM     20  C   UNL     1      45.190   3.285  11.767  0.00  0.00    +0.000 A 
ATOM     21  C   UNL     1      45.697   3.502  13.052  0.00  0.00    +0.000 A 
BRANCH  19  22
ATOM     22  C   UNL     1      44.658   4.059   9.429  0.00  0.00    +0.000 C 
BRANCH  22  23
ATOM     23  C   UNL     1      45.503   3.181   8.561  0.00  0.00    +0.000 A 
ATOM     24  C   UNL     1      45.594   1.816   8.747  0.00  0.00    +0.000 A 
ATOM     25  N   UNL     1      46.402   1.012   8.027  0.00  0.00    +0.000 NA
ATOM     26  C   UNL     1      47.142   1.625   7.091  0.00  0.00    +0.000 A 
ATOM     27  N   UNL     1      47.124   2.934   6.799  0.00  0.00    +0.000 NA
ATOM     28  C   UNL     1      46.297   3.686   7.550  0.00  0.00    +0.000 A 
ENDBRANCH  22  23
ENDBRANCH  19  22
ENDBRANCH  15  16
ENDBRANCH   1  15
TORSDOF 6
ENDMDL
MODEL 5
REMARK VINA RESULT:    -7.355      3.463      4.686
REMARK INTER + INTRA:         -10.711
REMARK INTER:                  -9.500
REMARK INTRA:                  -1.211
REMARK UNBOUND:                -0.777
REMARK  Name = 
REMARK  6 active torsions:
REMARK  status: ('A' for Active; 'I' for Inactive)
REMARK    1  A    between atoms: C_2  and  O_3
REMARK    2  A    between atoms: C_2  and  C_18
REMARK    3  A    between atoms: O_3  and  C_4
REMARK    4  A    between atoms: C_4  and  C_5
REMARK    5  A    between atoms: C_8  and  C_9
REMARK    6  A    between atoms: C_9  and  C_10
REMARK                            x       y       z     vdW  Elec       q    Type
REMARK                         _______ _______ _______ _____ _____    ______ ____
ROOT
ATOM      1  O   UNL     1      47.706   5.473  13.945  0.00  0.00    +0.000 OA
ENDROOT
BRANCH   1   3
ATOM      2  O   UNL     1      48.151   7.254  15.319  0.00  0.00    +0.000 OA
ATOM      3  C   UNL     1      48.204   6.703  14.225  0.00  0.00    +0.000 C 
BRANCH   3   4
ATOM      4  C   UNL     1      48.593   7.401  13.013  0.00  0.00    +0.000 A 
ATOM      5  C   UNL     1      49.748   7.109  12.303  0.00  0.00    +0.000 A 
ATOM      6  S   UNL     1      50.180   8.371  11.223  0.00  0.00    +0.000 S 
ATOM      7  C   UNL     1      48.813   9.285  11.669  0.00  0.00    +0.000 A 
ATOM      8  N   UNL     1      48.653  10.588  11.309  0.00  0.00    +0.000 NA
ATOM      9  C   UNL     1      47.567  11.128  11.764  0.00  0.00    +0.000 A 
ATOM     10  N   UNL     1      46.585  10.467  12.456  0.00  0.00    +0.000 N 
ATOM     11  C   UNL     1      46.660   9.129  12.751  0.00  0.00    +0.000 A 
ATOM     12  O   UNL     1      45.701   8.500  13.180  0.00  0.00    +0.000 OA
ATOM     13  C   UNL     1      47.955   8.552  12.456  0.00  0.00    +0.000 A 
ATOM     14  H   UNL     1      45.711  10.918  12.681  0.00  0.00    +0.000 HD
ENDBRANCH   3   4
ENDBRANCH   1   3
BRANCH   1  15
ATOM     15  C   UNL     1      46.283   5.352  13.854  0.00  0.00    +0.000 C 
BRANCH  15  16
ATOM     16  C   UNL     1      45.815   4.848  12.510  0.00  0.00    +0.000 A 
ATOM     17  C   UNL     1      45.217   3.587  12.410  0.00  0.00    +0.000 A 
ATOM     18  C   UNL     1      44.781   3.103  11.172  0.00  0.00    +0.000 A 
ATOM     19  C   UNL     1      44.936   3.878  10.015  0.00  0.00    +0.000 A 
ATOM     20  C   UNL     1      45.477   5.161  10.128  0.00  0.00    +0.000 A 
ATOM     21  C   UNL     1      45.912   5.644  11.366  0.00  0.00    +0.000 A 
BRANCH  19  22
ATOM     22  C   UNL     1      44.512   3.352   8.663  0.00  0.00    +0.000 C 
BRANCH  22  23
ATOM     23  C   UNL     1      45.642   2.767   7.875  0.00  0.00    +0.000 A 
ATOM     24  C   UNL     1      46.182   1.527   8.156  0.00  0.00    +0.000 A 
ATOM     25  N   UNL     1      47.245   1.008   7.511  0.00  0.00    +0.000 NA
ATOM     26  C   UNL     1      47.774   1.782   6.551  0.00  0.00    +0.000 A 
ATOM     27  N   UNL     1      47.326   2.988   6.170  0.00  0.00    +0.000 NA
ATOM     28  C   UNL     1      46.261   3.454   6.850  0.00  0.00    +0.000 A 
ENDBRANCH  22  23
ENDBRANCH  19  22
ENDBRANCH  15  16
ENDBRANCH   1  15
TORSDOF 6
ENDMDL
MODEL 6
REMARK VINA RESULT:    -7.308      2.116      3.075
REMARK INTER + INTRA:         -10.649
REMARK INTER:                  -9.884
REMARK INTRA:                  -0.764
REMARK UNBOUND:                -0.777
REMARK  Name = 
REMARK  6 active torsions:
REMARK  status: ('A' for Active; 'I' for Inactive)
REMARK    1  A    between atoms: C_2  and  O_3
REMARK    2  A    between atoms: C_2  and  C_18
REMARK    3  A    between atoms: O_3  and  C_4
REMARK    4  A    between atoms: C_4  and  C_5
REMARK    5  A    between atoms: C_8  and  C_9
REMARK    6  A    between atoms: C_9  and  C_10
REMARK                            x       y       z     vdW  Elec       q    Type
REMARK                         _______ _______ _______ _____ _____    ______ ____
ROOT
ATOM      1  O   UNL     1      48.546   5.732  15.397  0.00  0.00    +0.000 OA
ENDROOT
BRANCH   1   3
ATOM      2  O   UNL     1      50.639   6.038  16.285  0.00  0.00    +0.000 OA
ATOM      3  C   UNL     1      49.420   6.159  16.343  0.00  0.00    +0.000 C 
BRANCH   3   4
ATOM      4  C   UNL     1      48.728   6.561  17.554  0.00  0.00    +0.000 A 
ATOM      5  C   UNL     1      48.397   7.876  17.842  0.00  0.00    +0.000 A 
ATOM      6  S   UNL     1      48.028   8.101  19.503  0.00  0.00    +0.000 S 
ATOM      7  C   UNL     1      48.268   6.447  19.830  0.00  0.00    +0.000 A 
ATOM      8  N   UNL     1      48.343   5.952  21.096  0.00  0.00    +0.000 NA
ATOM      9  C   UNL     1      48.557   4.676  21.150  0.00  0.00    +0.000 A 
ATOM     10  N   UNL     1      48.605   3.836  20.066  0.00  0.00    +0.000 N 
ATOM     11  C   UNL     1      48.432   4.279  18.778  0.00  0.00    +0.000 A 
ATOM     12  O   UNL     1      48.268   3.510  17.840  0.00  0.00    +0.000 OA
ATOM     13  C   UNL     1      48.416   5.722  18.669  0.00  0.00    +0.000 A 
ATOM     14  H   UNL     1      48.660   2.836  20.183  0.00  0.00    +0.000 HD
ENDBRANCH   3   4
ENDBRANCH   1   3
BRANCH   1  15
ATOM     15  C   UNL     1      48.195   6.662  14.368  0.00  0.00    +0.000 C 
BRANCH  15  16
ATOM     16  C   UNL     1      47.191   6.109  13.386  0.00  0.00    +0.000 A 
ATOM     17  C   UNL     1      46.601   4.863  13.622  0.00  0.00    +0.000 A 
ATOM     18  C   UNL     1      45.671   4.334  12.720  0.00  0.00    +0.000 A 
ATOM     19  C   UNL     1      45.317   5.049  11.568  0.00  0.00    +0.000 A 
ATOM     20  C   UNL     1      45.862   6.320  11.366  0.00  0.00    +0.000 A 
ATOM     21  C   UNL     1      46.790   6.847  12.269  0.00  0.00    +0.000 A 
BRANCH  19  22
ATOM     22  C   UNL     1      44.349   4.473  10.560  0.00  0.00    +0.000 C 
BRANCH  22  23
ATOM     23  C   UNL     1      45.024   3.756   9.434  0.00  0.00    +0.000 A 
ATOM     24  C   UNL     1      45.197   2.386   9.420  0.00  0.00    +0.000 A 
ATOM     25  N   UNL     1      45.866   1.723   8.455  0.00  0.00    +0.000 NA
ATOM     26  C   UNL     1      46.375   2.486   7.476  0.00  0.00    +0.000 A 
ATOM     27  N   UNL     1      46.253   3.817   7.365  0.00  0.00    +0.000 NA
ATOM     28  C   UNL     1      45.575   4.424   8.358  0.00  0.00    +0.000 A 
ENDBRANCH  22  23
ENDBRANCH  19  22
ENDBRANCH  15  16
ENDBRANCH   1  15
TORSDOF 6
ENDMDL
MODEL 7
REMARK VINA RESULT:    -7.206      2.138      3.183
REMARK INTER + INTRA:         -10.511
REMARK INTER:                  -9.876
REMARK INTRA:                  -0.635
REMARK UNBOUND:                -0.777
REMARK  Name = 
REMARK  6 active torsions:
REMARK  status: ('A' for Active; 'I' for Inactive)
REMARK    1  A    between atoms: C_2  and  O_3
REMARK    2  A    between atoms: C_2  and  C_18
REMARK    3  A    between atoms: O_3  and  C_4
REMARK    4  A    between atoms: C_4  and  C_5
REMARK    5  A    between atoms: C_8  and  C_9
REMARK    6  A    between atoms: C_9  and  C_10
REMARK                            x       y       z     vdW  Elec       q    Type
REMARK                         _______ _______ _______ _____ _____    ______ ____
ROOT
ATOM      1  O   UNL     1      48.777   5.864  15.228  0.00  0.00    +0.000 OA
ENDROOT
BRANCH   1   3
ATOM      2  O   UNL     1      48.347   7.354  16.918  0.00  0.00    +0.000 OA
ATOM      3  C   UNL     1      48.862   6.322  16.502  0.00  0.00    +0.000 C 
BRANCH   3   4
ATOM      4  C   UNL     1      49.842   5.572  17.265  0.00  0.00    +0.000 A 
ATOM      5  C   UNL     1      50.953   6.152  17.859  0.00  0.00    +0.000 A 
ATOM      6  S   UNL     1      52.148   4.990  18.271  0.00  0.00    +0.000 S 
ATOM      7  C   UNL     1      51.174   3.716  17.699  0.00  0.00    +0.000 A 
ATOM      8  N   UNL     1      51.647   2.451  17.527  0.00  0.00    +0.000 NA
ATOM      9  C   UNL     1      50.771   1.621  17.057  0.00  0.00    +0.000 A 
ATOM     10  N   UNL     1      49.448   1.910  16.835  0.00  0.00    +0.000 N 
ATOM     11  C   UNL     1      48.907   3.145  17.091  0.00  0.00    +0.000 A 
ATOM     12  O   UNL     1      47.699   3.341  17.092  0.00  0.00    +0.000 OA
ATOM     13  C   UNL     1      49.902   4.150  17.402  0.00  0.00    +0.000 A 
ATOM     14  H   UNL     1      48.792   1.188  16.577  0.00  0.00    +0.000 HD
ENDBRANCH   3   4
ENDBRANCH   1   3
BRANCH   1  15
ATOM     15  C   UNL     1      48.346   6.795  14.230  0.00  0.00    +0.000 C 
BRANCH  15  16
ATOM     16  C   UNL     1      47.315   6.220  13.289  0.00  0.00    +0.000 A 
ATOM     17  C   UNL     1      46.609   5.067  13.649  0.00  0.00    +0.000 A 
ATOM     18  C   UNL     1      45.653   4.519  12.787  0.00  0.00    +0.000 A 
ATOM     19  C   UNL     1      45.389   5.121  11.550  0.00  0.00    +0.000 A 
ATOM     20  C   UNL     1      46.051   6.307  11.219  0.00  0.00    +0.000 A 
ATOM     21  C   UNL     1      47.005   6.853  12.082  0.00  0.00    +0.000 A 
BRANCH  19  22
ATOM     22  C   UNL     1      44.392   4.517  10.587  0.00  0.00    +0.000 C 
BRANCH  22  23
ATOM     23  C   UNL     1      45.036   3.782   9.454  0.00  0.00    +0.000 A 
ATOM     24  C   UNL     1      45.178   2.408   9.442  0.00  0.00    +0.000 A 
ATOM     25  N   UNL     1      45.817   1.728   8.470  0.00  0.00    +0.000 NA
ATOM     26  C   UNL     1      46.330   2.476   7.482  0.00  0.00    +0.000 A 
ATOM     27  N   UNL     1      46.237   3.809   7.368  0.00  0.00    +0.000 NA
ATOM     28  C   UNL     1      45.587   4.434   8.368  0.00  0.00    +0.000 A 
ENDBRANCH  22  23
ENDBRANCH  19  22
ENDBRANCH  15  16
ENDBRANCH   1  15
TORSDOF 6
ENDMDL
MODEL 8
REMARK VINA RESULT:    -7.076      1.957      2.565
REMARK INTER + INTRA:         -10.335
REMARK INTER:                  -9.545
REMARK INTRA:                  -0.790
REMARK UNBOUND:                -0.777
REMARK  Name = 
REMARK  6 active torsions:
REMARK  status: ('A' for Active; 'I' for Inactive)
REMARK    1  A    between atoms: C_2  and  O_3
REMARK    2  A    between atoms: C_2  and  C_18
REMARK    3  A    between atoms: O_3  and  C_4
REMARK    4  A    between atoms: C_4  and  C_5
REMARK    5  A    between atoms: C_8  and  C_9
REMARK    6  A    between atoms: C_9  and  C_10
REMARK                            x       y       z     vdW  Elec       q    Type
REMARK                         _______ _______ _______ _____ _____    ______ ____
ROOT
ATOM      1  O   UNL     1      48.274   6.220  14.083  0.00  0.00    +0.000 OA
ENDROOT
BRANCH   1   3
ATOM      2  O   UNL     1      47.976   8.450  14.525  0.00  0.00    +0.000 OA
ATOM      3  C   UNL     1      48.568   7.391  14.700  0.00  0.00    +0.000 C 
BRANCH   3   4
ATOM      4  C   UNL     1      49.829   7.306  15.414  0.00  0.00    +0.000 A 
ATOM      5  C   UNL     1      50.964   8.012  15.045  0.00  0.00    +0.000 A 
ATOM      6  S   UNL     1      52.386   7.368  15.758  0.00  0.00    +0.000 S 
ATOM      7  C   UNL     1      51.491   6.181  16.587  0.00  0.00    +0.000 A 
ATOM      8  N   UNL     1      52.079   5.129  17.221  0.00  0.00    +0.000 NA
ATOM      9  C   UNL     1      51.238   4.312  17.773  0.00  0.00    +0.000 A 
ATOM     10  N   UNL     1      49.880   4.498  17.835  0.00  0.00    +0.000 N 
ATOM     11  C   UNL     1      49.258   5.597  17.297  0.00  0.00    +0.000 A 
ATOM     12  O   UNL     1      48.087   5.863  17.532  0.00  0.00    +0.000 OA
ATOM     13  C   UNL     1      50.138   6.409  16.484  0.00  0.00    +0.000 A 
ATOM     14  H   UNL     1      49.293   3.883  18.379  0.00  0.00    +0.000 HD
ENDBRANCH   3   4
ENDBRANCH   1   3
BRANCH   1  15
ATOM     15  C   UNL     1      46.937   5.730  14.220  0.00  0.00    +0.000 C 
BRANCH  15  16
ATOM     16  C   UNL     1      46.323   5.305  12.908  0.00  0.00    +0.000 A 
ATOM     17  C   UNL     1      45.599   4.110  12.833  0.00  0.00    +0.000 A 
ATOM     18  C   UNL     1      45.027   3.699  11.624  0.00  0.00    +0.000 A 
ATOM     19  C   UNL     1      45.171   4.482  10.471  0.00  0.00    +0.000 A 
ATOM     20  C   UNL     1      45.842   5.705  10.563  0.00  0.00    +0.000 A 
ATOM     21  C   UNL     1      46.412   6.114  11.772  0.00  0.00    +0.000 A 
BRANCH  19  22
ATOM     22  C   UNL     1      44.598   4.032   9.147  0.00  0.00    +0.000 C 
BRANCH  22  23
ATOM     23  C   UNL     1      45.512   3.124   8.386  0.00  0.00    +0.000 A 
ATOM     24  C   UNL     1      46.230   3.544   7.283  0.00  0.00    +0.000 A 
ATOM     25  N   UNL     1      47.003   2.731   6.536  0.00  0.00    +0.000 NA
ATOM     26  C   UNL     1      47.041   1.448   6.927  0.00  0.00    +0.000 A 
ATOM     27  N   UNL     1      46.412   0.927   7.991  0.00  0.00    +0.000 NA
ATOM     28  C   UNL     1      45.655   1.787   8.699  0.00  0.00    +0.000 A 
ENDBRANCH  22  23
ENDBRANCH  19  22
ENDBRANCH  15  16
ENDBRANCH   1  15
TORSDOF 6
ENDMDL
MODEL 9
REMARK VINA RESULT:    -6.958      3.135      4.538
REMARK INTER + INTRA:         -10.176
REMARK INTER:                  -8.877
REMARK INTRA:                  -1.299
REMARK UNBOUND:                -0.777
REMARK  Name = 
REMARK  6 active torsions:
REMARK  status: ('A' for Active; 'I' for Inactive)
REMARK    1  A    between atoms: C_2  and  O_3
REMARK    2  A    between atoms: C_2  and  C_18
REMARK    3  A    between atoms: O_3  and  C_4
REMARK    4  A    between atoms: C_4  and  C_5
REMARK    5  A    between atoms: C_8  and  C_9
REMARK    6  A    between atoms: C_9  and  C_10
REMARK                            x       y       z     vdW  Elec       q    Type
REMARK                         _______ _______ _______ _____ _____    ______ ____
ROOT
ATOM      1  O   UNL     1      48.938   8.363  15.627  0.00  0.00    +0.000 OA
ENDROOT
BRANCH   1   3
ATOM      2  O   UNL     1      50.469   6.674  15.367  0.00  0.00    +0.000 OA
ATOM      3  C   UNL     1      49.572   7.222  15.999  0.00  0.00    +0.000 C 
BRANCH   3   4
ATOM      4  C   UNL     1      48.895   6.585  17.114  0.00  0.00    +0.000 A 
ATOM      5  C   UNL     1      48.974   7.047  18.418  0.00  0.00    +0.000 A 
ATOM      6  S   UNL     1      48.483   5.860  19.556  0.00  0.00    +0.000 S 
ATOM      7  C   UNL     1      48.128   4.749  18.316  0.00  0.00    +0.000 A 
ATOM      8  N   UNL     1      47.872   3.434  18.560  0.00  0.00    +0.000 NA
ATOM      9  C   UNL     1      47.652   2.735  17.491  0.00  0.00    +0.000 A 
ATOM     10  N   UNL     1      47.566   3.241  16.219  0.00  0.00    +0.000 N 
ATOM     11  C   UNL     1      47.717   4.577  15.942  0.00  0.00    +0.000 A 
ATOM     12  O   UNL     1      47.437   5.052  14.850  0.00  0.00    +0.000 OA
ATOM     13  C   UNL     1      48.184   5.345  17.077  0.00  0.00    +0.000 A 
ATOM     14  H   UNL     1      47.278   2.661  15.446  0.00  0.00    +0.000 HD
ENDBRANCH   3   4
ENDBRANCH   1   3
BRANCH   1  15
ATOM     15  C   UNL     1      49.019   8.731  14.247  0.00  0.00    +0.000 C 
BRANCH  15  16
ATOM     16  C   UNL     1      47.869   8.202  13.424  0.00  0.00    +0.000 A 
ATOM     17  C   UNL     1      46.583   8.722  13.610  0.00  0.00    +0.000 A 
ATOM     18  C   UNL     1      45.505   8.241  12.859  0.00  0.00    +0.000 A 
ATOM     19  C   UNL     1      45.701   7.231  11.907  0.00  0.00    +0.000 A 
ATOM     20  C   UNL     1      46.996   6.757  11.680  0.00  0.00    +0.000 A 
ATOM     21  C   UNL     1      48.072   7.240  12.431  0.00  0.00    +0.000 A 
BRANCH  19  22
ATOM     22  C   UNL     1      44.541   6.668  11.119  0.00  0.00    +0.000 C 
BRANCH  22  23
ATOM     23  C   UNL     1      44.205   5.257  11.488  0.00  0.00    +0.000 A 
ATOM     24  C   UNL     1      43.882   4.298  10.548  0.00  0.00    +0.000 A 
ATOM     25  N   UNL     1      43.505   3.041  10.857  0.00  0.00    +0.000 NA
ATOM     26  C   UNL     1      43.453   2.758  12.167  0.00  0.00    +0.000 A 
ATOM     27  N   UNL     1      43.766   3.593  13.170  0.00  0.00    +0.000 NA
ATOM     28  C   UNL     1      44.136   4.834  12.800  0.00  0.00    +0.000 A 
ENDBRANCH  22  23
ENDBRANCH  19  22
ENDBRANCH  15  16
ENDBRANCH   1  15
TORSDOF 6
ENDMDL
