MODEL 1
REMARK VINA RESULT:    -8.157      0.000      0.000
REMARK INTER + INTRA:         -10.254
REMARK INTER:                  -9.587
REMARK INTRA:                  -0.666
REMARK UNBOUND:                -0.666
REMARK  Name = 
REMARK  3 active torsions:
REMARK  status: ('A' for Active; 'I' for Inactive)
REMARK    1  A    between atoms: C_4  and  C_5
REMARK    2  A    between atoms: C_12  and  C_13
REMARK    3  A    between atoms: C_13  and  N_14
REMARK                            x       y       z     vdW  Elec       q    Type
REMARK                         _______ _______ _______ _____ _____    ______ ____
ROOT
ATOM      1  F   UNL     1      47.451   2.985  14.666  0.00  0.00    +0.000 F 
ATOM      2  C   UNL     1      46.949   3.927  13.859  0.00  0.00    +0.000 A 
ATOM      3  C   UNL     1      47.417   5.226  13.947  0.00  0.00    +0.000 A 
ATOM      4  C   UNL     1      46.957   6.210  13.058  0.00  0.00    +0.000 A 
ATOM      5  C   UNL     1      45.913   5.874  12.173  0.00  0.00    +0.000 A 
ATOM      6  C   UNL     1      45.402   4.556  12.090  0.00  0.00    +0.000 A 
ATOM      7  C   UNL     1      45.989   3.585  12.921  0.00  0.00    +0.000 A 
ENDROOT
BRANCH   4   8
ATOM      8  C   UNL     1      47.695   7.545  13.061  0.00  0.00    +0.000 C 
ATOM      9  C   UNL     1      48.482   7.821  11.772  0.00  0.00    +0.000 C 
ATOM     10  C   UNL     1      49.945   7.409  11.864  0.00  0.00    +0.000 C 
ATOM     11  N   UNL     1      50.595   8.030  13.015  0.00  0.00    +0.000 NA
ATOM     12  C   UNL     1      49.990   7.546  14.257  0.00  0.00    +0.000 C 
ATOM     13  C   UNL     1      48.497   7.853  14.341  0.00  0.00    +0.000 C 
ATOM     14  H   UNL     1      50.494   9.041  12.959  0.00  0.00    +0.000 HD
ENDBRANCH   4   8
BRANCH   6  15
ATOM     15  C   UNL     1      44.298   4.147  11.106  0.00  0.00    +0.000 C 
ATOM     16  C   UNL     1      43.259   5.161  10.671  0.00  0.00    +0.000 C 
ATOM     17  C   UNL     1      42.872   4.128  11.672  0.00  0.00    +0.000 C 
BRANCH  15  18
ATOM     18  N   UNL     1      44.643   2.980  10.294  0.00  0.00    +0.000 N 
ATOM     19  C   UNL     1      45.402   2.945   9.132  0.00  0.00    +0.000 A 
ATOM     20  C   UNL     1      45.638   4.025   8.284  0.00  0.00    +0.000 A 
ATOM     21  N   UNL     1      46.300   3.935   7.098  0.00  0.00    +0.000 NA
ATOM     22  C   UNL     1      46.721   2.697   6.778  0.00  0.00    +0.000 A 
ATOM     23  F   UNL     1      47.339   2.513   5.604  0.00  0.00    +0.000 F 
ATOM     24  C   UNL     1      46.519   1.613   7.614  0.00  0.00    +0.000 A 
ATOM     25  N   UNL     1      45.864   1.715   8.798  0.00  0.00    +0.000 NA
ATOM     26  H   UNL     1      44.701   2.073  10.749  0.00  0.00    +0.000 HD
ENDBRANCH  15  18
ENDBRANCH   6  15
TORSDOF 3
ENDMDL
MODEL 2
REMARK VINA RESULT:    -7.287      2.343      3.168
REMARK INTER + INTRA:          -9.231
REMARK INTER:                  -8.852
REMARK INTRA:                  -0.380
REMARK UNBOUND:                -0.666
REMARK  Name = 
REMARK  3 active torsions:
REMARK  status: ('A' for Active; 'I' for Inactive)
REMARK    1  A    between atoms: C_4  and  C_5
REMARK    2  A    between atoms: C_12  and  C_13
REMARK    3  A    between atoms: C_13  and  N_14
REMARK                            x       y       z     vdW  Elec       q    Type
REMARK                         _______ _______ _______ _____ _____    ______ ____
ROOT
ATOM      1  F   UNL     1      48.680   7.149  12.289  0.00  0.00    +0.000 F 
ATOM      2  C   UNL     1      47.787   6.325  12.850  0.00  0.00    +0.000 A 
ATOM      3  C   UNL     1      48.056   5.759  14.083  0.00  0.00    +0.000 A 
ATOM      4  C   UNL     1      47.098   4.954  14.721  0.00  0.00    +0.000 A 
ATOM      5  C   UNL     1      45.923   4.628  14.014  0.00  0.00    +0.000 A 
ATOM      6  C   UNL     1      45.645   5.176  12.738  0.00  0.00    +0.000 A 
ATOM      7  C   UNL     1      46.587   6.074  12.205  0.00  0.00    +0.000 A 
ENDROOT
BRANCH   4   8
ATOM      8  C   UNL     1      47.372   4.572  16.172  0.00  0.00    +0.000 C 
ATOM      9  C   UNL     1      48.383   5.489  16.875  0.00  0.00    +0.000 C 
ATOM     10  C   UNL     1      49.808   4.955  16.830  0.00  0.00    +0.000 C 
ATOM     11  N   UNL     1      49.877   3.598  17.365  0.00  0.00    +0.000 NA
ATOM     12  C   UNL     1      49.107   2.683  16.520  0.00  0.00    +0.000 C 
ATOM     13  C   UNL     1      47.635   3.074  16.423  0.00  0.00    +0.000 C 
ATOM     14  H   UNL     1      49.502   3.583  18.310  0.00  0.00    +0.000 HD
ENDBRANCH   4   8
BRANCH   6  15
ATOM     15  C   UNL     1      44.356   4.878  11.964  0.00  0.00    +0.000 C 
ATOM     16  C   UNL     1      43.369   5.993  11.679  0.00  0.00    +0.000 C 
ATOM     17  C   UNL     1      43.050   5.018  12.758  0.00  0.00    +0.000 C 
BRANCH  15  18
ATOM     18  N   UNL     1      44.435   3.672  11.139  0.00  0.00    +0.000 N 
ATOM     19  C   UNL     1      45.037   3.529   9.896  0.00  0.00    +0.000 A 
ATOM     20  C   UNL     1      45.316   4.564   9.005  0.00  0.00    +0.000 A 
ATOM     21  N   UNL     1      45.812   4.380   7.751  0.00  0.00    +0.000 NA
ATOM     22  C   UNL     1      46.017   3.094   7.407  0.00  0.00    +0.000 A 
ATOM     23  F   UNL     1      46.458   2.823   6.171  0.00  0.00    +0.000 F 
ATOM     24  C   UNL     1      45.770   2.051   8.282  0.00  0.00    +0.000 A 
ATOM     25  N   UNL     1      45.282   2.246   9.533  0.00  0.00    +0.000 NA
ATOM     26  H   UNL     1      44.422   2.767  11.601  0.00  0.00    +0.000 HD
ENDBRANCH  15  18
ENDBRANCH   6  15
TORSDOF 3
ENDMDL
MODEL 3
REMARK VINA RESULT:    -6.561      3.525      7.767
REMARK INTER + INTRA:          -8.378
REMARK INTER:                  -7.564
REMARK INTRA:                  -0.814
REMARK UNBOUND:                -0.666
REMARK  Name = 
REMARK  3 active torsions:
REMARK  status: ('A' for Active; 'I' for Inactive)
REMARK    1  A    between atoms: C_4  and  C_5
REMARK    2  A    between atoms: C_12  and  C_13
REMARK    3  A    between atoms: C_13  and  N_14
REMARK                            x       y       z     vdW  Elec       q    Type
REMARK                         _______ _______ _______ _____ _____    ______ ____
ROOT
ATOM      1  F   UNL     1      44.684  10.375  11.845  0.00  0.00    +0.000 F 
ATOM      2  C   UNL     1      45.266   9.172  11.902  0.00  0.00    +0.000 A 
ATOM      3  C   UNL     1      44.510   8.034  11.687  0.00  0.00    +0.000 A 
ATOM      4  C   UNL     1      45.119   6.768  11.667  0.00  0.00    +0.000 A 
ATOM      5  C   UNL     1      46.484   6.679  12.008  0.00  0.00    +0.000 A 
ATOM      6  C   UNL     1      47.266   7.833  12.260  0.00  0.00    +0.000 A 
ATOM      7  C   UNL     1      46.627   9.081  12.143  0.00  0.00    +0.000 A 
ENDROOT
BRANCH   4   8
ATOM      8  C   UNL     1      44.267   5.599  11.184  0.00  0.00    +0.000 C 
ATOM      9  C   UNL     1      43.002   5.366  12.023  0.00  0.00    +0.000 C 
ATOM     10  C   UNL     1      43.192   4.323  13.116  0.00  0.00    +0.000 C 
ATOM     11  N   UNL     1      43.689   3.067  12.562  0.00  0.00    +0.000 NA
ATOM     12  C   UNL     1      45.024   3.260  11.992  0.00  0.00    +0.000 C 
ATOM     13  C   UNL     1      45.040   4.301  10.876  0.00  0.00    +0.000 C 
ATOM     14  H   UNL     1      43.056   2.738  11.838  0.00  0.00    +0.000 HD
ENDBRANCH   4   8
BRANCH   6  15
ATOM     15  C   UNL     1      48.762   7.772  12.588  0.00  0.00    +0.000 C 
ATOM     16  C   UNL     1      49.661   8.941  12.238  0.00  0.00    +0.000 C 
ATOM     17  C   UNL     1      49.710   7.722  11.383  0.00  0.00    +0.000 C 
BRANCH  15  18
ATOM     18  N   UNL     1      49.088   6.825  13.655  0.00  0.00    +0.000 N 
ATOM     19  C   UNL     1      48.872   6.969  15.019  0.00  0.00    +0.000 A 
ATOM     20  C   UNL     1      48.692   8.178  15.687  0.00  0.00    +0.000 A 
ATOM     21  N   UNL     1      48.585   8.295  17.040  0.00  0.00    +0.000 NA
ATOM     22  C   UNL     1      48.674   7.133  17.716  0.00  0.00    +0.000 A 
ATOM     23  F   UNL     1      48.627   7.166  19.055  0.00  0.00    +0.000 F 
ATOM     24  C   UNL     1      48.830   5.919  17.073  0.00  0.00    +0.000 A 
ATOM     25  N   UNL     1      48.928   5.813  15.723  0.00  0.00    +0.000 NA
ATOM     26  H   UNL     1      49.112   5.833  13.432  0.00  0.00    +0.000 HD
ENDBRANCH  15  18
ENDBRANCH   6  15
TORSDOF 3
ENDMDL
MODEL 4
REMARK VINA RESULT:    -6.450      4.304      7.848
REMARK INTER + INTRA:          -8.248
REMARK INTER:                  -7.807
REMARK INTRA:                  -0.441
REMARK UNBOUND:                -0.666
REMARK  Name = 
REMARK  3 active torsions:
REMARK  status: ('A' for Active; 'I' for Inactive)
REMARK    1  A    between atoms: C_4  and  C_5
REMARK    2  A    between atoms: C_12  and  C_13
REMARK    3  A    between atoms: C_13  and  N_14
REMARK                            x       y       z     vdW  Elec       q    Type
REMARK                         _______ _______ _______ _____ _____    ______ ____
ROOT
ATOM      1  F   UNL     1      49.500   7.934  14.010  0.00  0.00    +0.000 F 
ATOM      2  C   UNL     1      48.674   6.913  14.270  0.00  0.00    +0.000 A 
ATOM      3  C   UNL     1      47.671   6.597  13.372  0.00  0.00    +0.000 A 
ATOM      4  C   UNL     1      46.844   5.483  13.592  0.00  0.00    +0.000 A 
ATOM      5  C   UNL     1      46.974   4.787  14.811  0.00  0.00    +0.000 A 
ATOM      6  C   UNL     1      47.977   5.116  15.754  0.00  0.00    +0.000 A 
ATOM      7  C   UNL     1      48.854   6.164  15.421  0.00  0.00    +0.000 A 
ENDROOT
BRANCH   4   8
ATOM      8  C   UNL     1      45.932   5.062  12.444  0.00  0.00    +0.000 C 
ATOM      9  C   UNL     1      45.752   6.141  11.367  0.00  0.00    +0.000 C 
ATOM     10  C   UNL     1      44.510   6.997  11.579  0.00  0.00    +0.000 C 
ATOM     11  N   UNL     1      43.314   6.166  11.690  0.00  0.00    +0.000 NA
ATOM     12  C   UNL     1      43.395   5.322  12.883  0.00  0.00    +0.000 C 
ATOM     13  C   UNL     1      44.608   4.395  12.864  0.00  0.00    +0.000 C 
ATOM     14  H   UNL     1      43.227   5.579  10.865  0.00  0.00    +0.000 HD
ENDBRANCH   4   8
BRANCH   6  15
ATOM     15  C   UNL     1      48.173   4.349  17.068  0.00  0.00    +0.000 C 
ATOM     16  C   UNL     1      47.200   3.255  17.457  0.00  0.00    +0.000 C 
ATOM     17  C   UNL     1      47.099   4.575  18.141  0.00  0.00    +0.000 C 
BRANCH  15  18
ATOM     18  N   UNL     1      49.547   4.391  17.569  0.00  0.00    +0.000 N 
ATOM     19  C   UNL     1      50.512   3.395  17.496  0.00  0.00    +0.000 A 
ATOM     20  C   UNL     1      50.261   2.036  17.315  0.00  0.00    +0.000 A 
ATOM     21  N   UNL     1      51.221   1.071  17.351  0.00  0.00    +0.000 NA
ATOM     22  C   UNL     1      52.468   1.523  17.588  0.00  0.00    +0.000 A 
ATOM     23  F   UNL     1      53.464   0.632  17.687  0.00  0.00    +0.000 F 
ATOM     24  C   UNL     1      52.744   2.869  17.748  0.00  0.00    +0.000 A 
ATOM     25  N   UNL     1      51.780   3.823  17.703  0.00  0.00    +0.000 NA
ATOM     26  H   UNL     1      50.014   5.292  17.630  0.00  0.00    +0.000 HD
ENDBRANCH  15  18
ENDBRANCH   6  15
TORSDOF 3
ENDMDL
MODEL 5
REMARK VINA RESULT:    -6.012      3.740      6.249
REMARK INTER + INTRA:          -7.733
REMARK INTER:                  -6.920
REMARK INTRA:                  -0.812
REMARK UNBOUND:                -0.666
REMARK  Name = 
REMARK  3 active torsions:
REMARK  status: ('A' for Active; 'I' for Inactive)
REMARK    1  A    between atoms: C_4  and  C_5
REMARK    2  A    between atoms: C_12  and  C_13
REMARK    3  A    between atoms: C_13  and  N_14
REMARK                            x       y       z     vdW  Elec       q    Type
REMARK                         _______ _______ _______ _____ _____    ______ ____
ROOT
ATOM      1  F   UNL     1      47.848  10.319  17.166  0.00  0.00    +0.000 F 
ATOM      2  C   UNL     1      48.248   9.174  16.602  0.00  0.00    +0.000 A 
ATOM      3  C   UNL     1      48.874   8.212  17.374  0.00  0.00    +0.000 A 
ATOM      4  C   UNL     1      49.232   6.974  16.816  0.00  0.00    +0.000 A 
ATOM      5  C   UNL     1      49.064   6.794  15.428  0.00  0.00    +0.000 A 
ATOM      6  C   UNL     1      48.452   7.781  14.618  0.00  0.00    +0.000 A 
ATOM      7  C   UNL     1      48.002   8.950  15.258  0.00  0.00    +0.000 A 
ENDROOT
BRANCH   4   8
ATOM      8  C   UNL     1      49.690   5.886  17.782  0.00  0.00    +0.000 C 
ATOM      9  C   UNL     1      49.342   4.463  17.324  0.00  0.00    +0.000 C 
ATOM     10  C   UNL     1      48.035   3.947  17.911  0.00  0.00    +0.000 C 
ATOM     11  N   UNL     1      48.043   4.038  19.369  0.00  0.00    +0.000 NA
ATOM     12  C   UNL     1      48.115   5.439  19.786  0.00  0.00    +0.000 C 
ATOM     13  C   UNL     1      49.366   6.143  19.267  0.00  0.00    +0.000 C 
ATOM     14  H   UNL     1      48.844   3.533  19.739  0.00  0.00    +0.000 HD
ENDBRANCH   4   8
BRANCH   6  15
ATOM     15  C   UNL     1      48.214   7.598  13.114  0.00  0.00    +0.000 C 
ATOM     16  C   UNL     1      49.332   7.087  12.228  0.00  0.00    +0.000 C 
ATOM     17  C   UNL     1      49.001   8.539  12.193  0.00  0.00    +0.000 C 
BRANCH  15  18
ATOM     18  N   UNL     1      46.802   7.447  12.760  0.00  0.00    +0.000 N 
ATOM     19  C   UNL     1      45.998   6.326  12.922  0.00  0.00    +0.000 A 
ATOM     20  C   UNL     1      46.453   5.016  13.061  0.00  0.00    +0.000 A 
ATOM     21  N   UNL     1      45.637   3.927  13.114  0.00  0.00    +0.000 NA
ATOM     22  C   UNL     1      44.322   4.200  13.014  0.00  0.00    +0.000 A 
ATOM     23  F   UNL     1      43.454   3.179  13.010  0.00  0.00    +0.000 F 
ATOM     24  C   UNL     1      43.847   5.493  12.900  0.00  0.00    +0.000 A 
ATOM     25  N   UNL     1      44.668   6.573  12.855  0.00  0.00    +0.000 NA
ATOM     26  H   UNL     1      46.211   8.274  12.759  0.00  0.00    +0.000 HD
ENDBRANCH  15  18
ENDBRANCH   6  15
TORSDOF 3
ENDMDL
MODEL 6
REMARK VINA RESULT:    -5.944      2.468      6.815
REMARK INTER + INTRA:          -7.653
REMARK INTER:                  -7.292
REMARK INTRA:                  -0.362
REMARK UNBOUND:                -0.666
REMARK  Name = 
REMARK  3 active torsions:
REMARK  status: ('A' for Active; 'I' for Inactive)
REMARK    1  A    between atoms: C_4  and  C_5
REMARK    2  A    between atoms: C_12  and  C_13
REMARK    3  A    between atoms: C_13  and  N_14
REMARK                            x       y       z     vdW  Elec       q    Type
REMARK                         _______ _______ _______ _____ _____    ______ ____
ROOT
ATOM      1  F   UNL     1      44.392   3.811  13.714  0.00  0.00    +0.000 F 
ATOM      2  C   UNL     1      44.853   4.505  12.667  0.00  0.00    +0.000 A 
ATOM      3  C   UNL     1      44.812   3.945  11.403  0.00  0.00    +0.000 A 
ATOM      4  C   UNL     1      45.220   4.687  10.282  0.00  0.00    +0.000 A 
ATOM      5  C   UNL     1      45.798   5.954  10.496  0.00  0.00    +0.000 A 
ATOM      6  C   UNL     1      45.875   6.530  11.788  0.00  0.00    +0.000 A 
ATOM      7  C   UNL     1      45.336   5.789  12.855  0.00  0.00    +0.000 A 
ENDROOT
BRANCH   4   8
ATOM      8  C   UNL     1      44.917   4.092   8.911  0.00  0.00    +0.000 C 
ATOM      9  C   UNL     1      44.512   2.612   8.953  0.00  0.00    +0.000 C 
ATOM     10  C   UNL     1      45.681   1.664   8.719  0.00  0.00    +0.000 C 
ATOM     11  N   UNL     1      46.371   1.981   7.472  0.00  0.00    +0.000 NA
ATOM     12  C   UNL     1      46.977   3.311   7.554  0.00  0.00    +0.000 C 
ATOM     13  C   UNL     1      45.948   4.409   7.810  0.00  0.00    +0.000 C 
ATOM     14  H   UNL     1      45.710   1.956   6.699  0.00  0.00    +0.000 HD
ENDBRANCH   4   8
BRANCH   6  15
ATOM     15  C   UNL     1      46.456   7.925  12.048  0.00  0.00    +0.000 C 
ATOM     16  C   UNL     1      45.945   8.753  13.210  0.00  0.00    +0.000 C 
ATOM     17  C   UNL     1      45.494   9.101  11.834  0.00  0.00    +0.000 C 
BRANCH  15  18
ATOM     18  N   UNL     1      47.787   8.120  11.472  0.00  0.00    +0.000 N 
ATOM     19  C   UNL     1      49.004   8.173  12.139  0.00  0.00    +0.000 A 
ATOM     20  C   UNL     1      49.176   8.466  13.490  0.00  0.00    +0.000 A 
ATOM     21  N   UNL     1      50.389   8.612  14.092  0.00  0.00    +0.000 NA
ATOM     22  C   UNL     1      51.448   8.460  13.273  0.00  0.00    +0.000 A 
ATOM     23  F   UNL     1      52.677   8.636  13.776  0.00  0.00    +0.000 F 
ATOM     24  C   UNL     1      51.302   8.146  11.934  0.00  0.00    +0.000 A 
ATOM     25  N   UNL     1      50.088   7.996  11.346  0.00  0.00    +0.000 NA
ATOM     26  H   UNL     1      47.952   7.814  10.517  0.00  0.00    +0.000 HD
ENDBRANCH  15  18
ENDBRANCH   6  15
TORSDOF 3
ENDMDL
MODEL 7
REMARK VINA RESULT:    -5.860      3.495      5.286
REMARK INTER + INTRA:          -7.554
REMARK INTER:                  -7.406
REMARK INTRA:                  -0.148
REMARK UNBOUND:                -0.666
REMARK  Name = 
REMARK  3 active torsions:
REMARK  status: ('A' for Active; 'I' for Inactive)
REMARK    1  A    between atoms: C_4  and  C_5
REMARK    2  A    between atoms: C_12  and  C_13
REMARK    3  A    between atoms: C_13  and  N_14
REMARK                            x       y       z     vdW  Elec       q    Type
REMARK                         _______ _______ _______ _____ _____    ______ ____
ROOT
ATOM      1  F   UNL     1      51.865   8.354  13.869  0.00  0.00    +0.000 F 
ATOM      2  C   UNL     1      50.786   7.744  14.373  0.00  0.00    +0.000 A 
ATOM      3  C   UNL     1      50.881   7.066  15.575  0.00  0.00    +0.000 A 
ATOM      4  C   UNL     1      49.742   6.485  16.156  0.00  0.00    +0.000 A 
ATOM      5  C   UNL     1      48.540   6.491  15.419  0.00  0.00    +0.000 A 
ATOM      6  C   UNL     1      48.434   7.155  14.173  0.00  0.00    +0.000 A 
ATOM      7  C   UNL     1      49.577   7.825  13.701  0.00  0.00    +0.000 A 
ENDROOT
BRANCH   4   8
ATOM      8  C   UNL     1      49.880   5.974  17.586  0.00  0.00    +0.000 C 
ATOM      9  C   UNL     1      50.726   4.699  17.710  0.00  0.00    +0.000 C 
ATOM     10  C   UNL     1      49.893   3.425  17.705  0.00  0.00    +0.000 C 
ATOM     11  N   UNL     1      48.862   3.468  18.738  0.00  0.00    +0.000 NA
ATOM     12  C   UNL     1      47.908   4.541  18.453  0.00  0.00    +0.000 C 
ATOM     13  C   UNL     1      48.570   5.915  18.396  0.00  0.00    +0.000 C 
ATOM     14  H   UNL     1      49.293   3.629  19.645  0.00  0.00    +0.000 HD
ENDBRANCH   4   8
BRANCH   6  15
ATOM     15  C   UNL     1      47.130   7.219  13.369  0.00  0.00    +0.000 C 
ATOM     16  C   UNL     1      47.049   8.083  12.126  0.00  0.00    +0.000 C 
ATOM     17  C   UNL     1      46.403   8.570  13.377  0.00  0.00    +0.000 C 
BRANCH  15  18
ATOM     18  N   UNL     1      46.258   6.062  13.577  0.00  0.00    +0.000 N 
ATOM     19  C   UNL     1      45.762   5.186  12.622  0.00  0.00    +0.000 A 
ATOM     20  C   UNL     1      45.645   5.453  11.259  0.00  0.00    +0.000 A 
ATOM     21  N   UNL     1      45.059   4.611  10.363  0.00  0.00    +0.000 NA
ATOM     22  C   UNL     1      44.576   3.470  10.892  0.00  0.00    +0.000 A 
ATOM     23  F   UNL     1      43.941   2.609  10.085  0.00  0.00    +0.000 F 
ATOM     24  C   UNL     1      44.701   3.173  12.237  0.00  0.00    +0.000 A 
ATOM     25  N   UNL     1      45.293   4.016  13.120  0.00  0.00    +0.000 NA
ATOM     26  H   UNL     1      46.296   5.581  14.472  0.00  0.00    +0.000 HD
ENDBRANCH  15  18
ENDBRANCH   6  15
TORSDOF 3
ENDMDL
MODEL 8
REMARK VINA RESULT:    -5.816      2.777      6.940
REMARK INTER + INTRA:          -7.503
REMARK INTER:                  -7.384
REMARK INTRA:                  -0.119
REMARK UNBOUND:                -0.666
REMARK  Name = 
REMARK  3 active torsions:
REMARK  status: ('A' for Active; 'I' for Inactive)
REMARK    1  A    between atoms: C_4  and  C_5
REMARK    2  A    between atoms: C_12  and  C_13
REMARK    3  A    between atoms: C_13  and  N_14
REMARK                            x       y       z     vdW  Elec       q    Type
REMARK                         _______ _______ _______ _____ _____    ______ ____
ROOT
ATOM      1  F   UNL     1      47.319   4.493  15.115  0.00  0.00    +0.000 F 
ATOM      2  C   UNL     1      47.029   5.188  14.009  0.00  0.00    +0.000 A 
ATOM      3  C   UNL     1      46.068   4.713  13.134  0.00  0.00    +0.000 A 
ATOM      4  C   UNL     1      45.697   5.467  12.009  0.00  0.00    +0.000 A 
ATOM      5  C   UNL     1      46.423   6.641  11.723  0.00  0.00    +0.000 A 
ATOM      6  C   UNL     1      47.430   7.125  12.594  0.00  0.00    +0.000 A 
ATOM      7  C   UNL     1      47.671   6.391  13.769  0.00  0.00    +0.000 A 
ENDROOT
BRANCH   4   8
ATOM      8  C   UNL     1      44.470   4.996  11.236  0.00  0.00    +0.000 C 
ATOM      9  C   UNL     1      43.418   4.296  12.108  0.00  0.00    +0.000 C 
ATOM     10  C   UNL     1      43.562   2.780  12.119  0.00  0.00    +0.000 C 
ATOM     11  N   UNL     1      43.553   2.243  10.760  0.00  0.00    +0.000 NA
ATOM     12  C   UNL     1      44.721   2.726  10.020  0.00  0.00    +0.000 C 
ATOM     13  C   UNL     1      44.764   4.248   9.921  0.00  0.00    +0.000 C 
ATOM     14  H   UNL     1      42.705   2.535  10.283  0.00  0.00    +0.000 HD
ENDBRANCH   4   8
BRANCH   6  15
ATOM     15  C   UNL     1      48.205   8.422  12.335  0.00  0.00    +0.000 C 
ATOM     16  C   UNL     1      48.187   9.533  13.365  0.00  0.00    +0.000 C 
ATOM     17  C   UNL     1      47.354   9.684  12.140  0.00  0.00    +0.000 C 
BRANCH  15  18
ATOM     18  N   UNL     1      49.291   8.270  11.366  0.00  0.00    +0.000 N 
ATOM     19  C   UNL     1      50.653   8.172  11.620  0.00  0.00    +0.000 A 
ATOM     20  C   UNL     1      51.294   8.606  12.778  0.00  0.00    +0.000 A 
ATOM     21  N   UNL     1      52.644   8.591  12.955  0.00  0.00    +0.000 NA
ATOM     22  C   UNL     1      53.347   8.122  11.905  0.00  0.00    +0.000 A 
ATOM     23  F   UNL     1      54.684   8.119  11.979  0.00  0.00    +0.000 F 
ATOM     24  C   UNL     1      52.730   7.664  10.755  0.00  0.00    +0.000 A 
ATOM     25  N   UNL     1      51.383   7.678  10.592  0.00  0.00    +0.000 NA
ATOM     26  H   UNL     1      49.091   7.810  10.481  0.00  0.00    +0.000 HD
ENDBRANCH  15  18
ENDBRANCH   6  15
TORSDOF 3
ENDMDL
MODEL 9
REMARK VINA RESULT:    -5.716      3.114      8.084
REMARK INTER + INTRA:          -7.384
REMARK INTER:                  -7.166
REMARK INTRA:                  -0.218
REMARK UNBOUND:                -0.666
REMARK  Name = 
REMARK  3 active torsions:
REMARK  status: ('A' for Active; 'I' for Inactive)
REMARK    1  A    between atoms: C_4  and  C_5
REMARK    2  A    between atoms: C_12  and  C_13
REMARK    3  A    between atoms: C_13  and  N_14
REMARK                            x       y       z     vdW  Elec       q    Type
REMARK                         _______ _______ _______ _____ _____    ______ ____
ROOT
ATOM      1  F   UNL     1      46.910   4.362  15.341  0.00  0.00    +0.000 F 
ATOM      2  C   UNL     1      46.995   5.070  14.209  0.00  0.00    +0.000 A 
ATOM      3  C   UNL     1      46.087   4.845  13.190  0.00  0.00    +0.000 A 
ATOM      4  C   UNL     1      46.115   5.631  12.026  0.00  0.00    +0.000 A 
ATOM      5  C   UNL     1      47.171   6.552  11.868  0.00  0.00    +0.000 A 
ATOM      6  C   UNL     1      48.126   6.773  12.890  0.00  0.00    +0.000 A 
ATOM      7  C   UNL     1      47.972   6.043  14.082  0.00  0.00    +0.000 A 
ENDROOT
BRANCH   4   8
ATOM      8  C   UNL     1      44.939   5.486  11.066  0.00  0.00    +0.000 C 
ATOM      9  C   UNL     1      43.645   6.142  11.567  0.00  0.00    +0.000 C 
ATOM     10  C   UNL     1      42.723   5.171  12.291  0.00  0.00    +0.000 C 
ATOM     11  N   UNL     1      42.429   4.007  11.459  0.00  0.00    +0.000 NA
ATOM     12  C   UNL     1      43.653   3.245  11.208  0.00  0.00    +0.000 C 
ATOM     13  C   UNL     1      44.722   4.070  10.496  0.00  0.00    +0.000 C 
ATOM     14  H   UNL     1      42.031   4.311  10.575  0.00  0.00    +0.000 HD
ENDBRANCH   4   8
BRANCH   6  15
ATOM     15  C   UNL     1      49.259   7.799  12.767  0.00  0.00    +0.000 C 
ATOM     16  C   UNL     1      49.161   8.915  11.746  0.00  0.00    +0.000 C 
ATOM     17  C   UNL     1      50.057   7.760  11.457  0.00  0.00    +0.000 C 
BRANCH  15  18
ATOM     18  N   UNL     1      50.080   7.909  13.973  0.00  0.00    +0.000 N 
ATOM     19  C   UNL     1      49.818   8.651  15.117  0.00  0.00    +0.000 A 
ATOM     20  C   UNL     1      48.957   9.744  15.196  0.00  0.00    +0.000 A 
ATOM     21  N   UNL     1      48.801  10.514  16.307  0.00  0.00    +0.000 NA
ATOM     22  C   UNL     1      49.558  10.149  17.360  0.00  0.00    +0.000 A 
ATOM     23  F   UNL     1      49.499  10.885  18.478  0.00  0.00    +0.000 F 
ATOM     24  C   UNL     1      50.402   9.054  17.313  0.00  0.00    +0.000 A 
ATOM     25  N   UNL     1      50.546   8.289  16.202  0.00  0.00    +0.000 NA
ATOM     26  H   UNL     1      50.685   7.131  14.220  0.00  0.00    +0.000 HD
ENDBRANCH  15  18
ENDBRANCH   6  15
TORSDOF 3
ENDMDL
