MODEL 1
REMARK VINA RESULT:    -7.797      0.000      0.000
REMARK INTER + INTRA:         -10.263
REMARK INTER:                  -9.620
REMARK INTRA:                  -0.643
REMARK UNBOUND:                -0.643
REMARK  Name = 
REMARK  4 active torsions:
REMARK  status: ('A' for Active; 'I' for Inactive)
REMARK    1  A    between atoms: C_2  and  C_4
REMARK    2  A    between atoms: C_9  and  N_10
REMARK    3  A    between atoms: N_10  and  C_11
REMARK    4  A    between atoms: C_11  and  C_12
REMARK                            x       y       z     vdW  Elec       q    Type
REMARK                         _______ _______ _______ _____ _____    ______ ____
ROOT
ATOM      1  N   UNL     1      45.380   5.888   9.930  0.00  0.00    +0.000 N 
ATOM      2  H   UNL     1      44.897   6.557   9.335  0.00  0.00    +0.000 HD
ENDROOT
BRANCH   1   8
ATOM      3  C   UNL     1      46.278   3.113   7.583  0.00  0.00    +0.000 A 
ATOM      4  C   UNL     1      45.509   2.075   8.105  0.00  0.00    +0.000 A 
ATOM      5  C   UNL     1      44.738   2.321   9.231  0.00  0.00    +0.000 A 
ATOM      6  F   UNL     1      43.980   1.334   9.731  0.00  0.00    +0.000 F 
ATOM      7  C   UNL     1      44.724   3.573   9.845  0.00  0.00    +0.000 A 
ATOM      8  C   UNL     1      45.508   4.624   9.351  0.00  0.00    +0.000 A 
ATOM      9  C   UNL     1      46.272   4.374   8.203  0.00  0.00    +0.000 A 
BRANCH   3  11
ATOM     10  N   UNL     1      48.465   2.747   6.577  0.00  0.00    +0.000 N 
ATOM     11  C   UNL     1      47.126   2.936   6.379  0.00  0.00    +0.000 C 
ATOM     12  O   UNL     1      46.642   2.918   5.255  0.00  0.00    +0.000 OA
ATOM     13  H   UNL     1      49.007   2.512   5.756  0.00  0.00    +0.000 HD
ATOM     14  H   UNL     1      48.849   2.502   7.477  0.00  0.00    +0.000 HD
ENDBRANCH   3  11
ENDBRANCH   1   8
BRANCH   1  15
ATOM     15  C   UNL     1      45.056   6.020  11.344  0.00  0.00    +0.000 C 
BRANCH  15  16
ATOM     16  C   UNL     1      46.320   6.138  12.154  0.00  0.00    +0.000 A 
ATOM     17  C   UNL     1      47.439   6.801  11.661  0.00  0.00    +0.000 A 
ATOM     18  C   UNL     1      48.552   6.888  12.476  0.00  0.00    +0.000 A 
ATOM     19  N   UNL     1      48.615   6.383  13.730  0.00  0.00    +0.000 NA
ATOM     20  C   UNL     1      47.541   5.727  14.216  0.00  0.00    +0.000 A 
ATOM     21  N   UNL     1      47.580   5.217  15.501  0.00  0.00    +0.000 N 
ATOM     22  C   UNL     1      48.423   5.865  16.500  0.00  0.00    +0.000 C 
ATOM     23  C   UNL     1      49.535   4.938  16.981  0.00  0.00    +0.000 C 
ATOM     24  C   UNL     1      48.984   3.577  17.399  0.00  0.00    +0.000 C 
ATOM     25  C   UNL     1      48.188   2.958  16.256  0.00  0.00    +0.000 C 
ATOM     26  C   UNL     1      47.064   3.884  15.791  0.00  0.00    +0.000 C 
ATOM     27  C   UNL     1      46.384   5.603  13.446  0.00  0.00    +0.000 A 
ENDBRANCH  15  16
ENDBRANCH   1  15
TORSDOF 4
ENDMDL
MODEL 2
REMARK VINA RESULT:    -7.509      1.887      3.280
REMARK INTER + INTRA:          -9.908
REMARK INTER:                  -9.240
REMARK INTRA:                  -0.668
REMARK UNBOUND:                -0.643
REMARK  Name = 
REMARK  4 active torsions:
REMARK  status: ('A' for Active; 'I' for Inactive)
REMARK    1  A    between atoms: C_2  and  C_4
REMARK    2  A    between atoms: C_9  and  N_10
REMARK    3  A    between atoms: N_10  and  C_11
REMARK    4  A    between atoms: C_11  and  C_12
REMARK                            x       y       z     vdW  Elec       q    Type
REMARK                         _______ _______ _______ _____ _____    ______ ____
ROOT
ATOM      1  N   UNL     1      45.180   5.546   9.526  0.00  0.00    +0.000 N 
ATOM      2  H   UNL     1      44.736   6.144   8.833  0.00  0.00    +0.000 HD
ENDROOT
BRANCH   1   8
ATOM      3  C   UNL     1      46.523   2.685   7.520  0.00  0.00    +0.000 A 
ATOM      4  C   UNL     1      45.737   1.641   8.003  0.00  0.00    +0.000 A 
ATOM      5  C   UNL     1      44.805   1.913   8.993  0.00  0.00    +0.000 A 
ATOM      6  F   UNL     1      44.031   0.920   9.452  0.00  0.00    +0.000 F 
ATOM      7  C   UNL     1      44.649   3.199   9.512  0.00  0.00    +0.000 A 
ATOM      8  C   UNL     1      45.446   4.258   9.058  0.00  0.00    +0.000 A 
ATOM      9  C   UNL     1      46.373   3.980   8.046  0.00  0.00    +0.000 A 
BRANCH   3  11
ATOM     10  N   UNL     1      47.404   3.215   5.313  0.00  0.00    +0.000 N 
ATOM     11  C   UNL     1      47.538   2.481   6.458  0.00  0.00    +0.000 C 
ATOM     12  O   UNL     1      48.481   1.717   6.616  0.00  0.00    +0.000 OA
ATOM     13  H   UNL     1      48.168   3.150   4.652  0.00  0.00    +0.000 HD
ATOM     14  H   UNL     1      46.804   4.023   5.256  0.00  0.00    +0.000 HD
ENDBRANCH   3  11
ENDBRANCH   1   8
BRANCH   1  15
ATOM     15  C   UNL     1      44.683   5.750  10.880  0.00  0.00    +0.000 C 
BRANCH  15  16
ATOM     16  C   UNL     1      45.835   5.835  11.845  0.00  0.00    +0.000 A 
ATOM     17  C   UNL     1      46.029   4.873  12.832  0.00  0.00    +0.000 A 
ATOM     18  C   UNL     1      47.125   5.009  13.663  0.00  0.00    +0.000 A 
ATOM     19  N   UNL     1      48.030   6.011  13.567  0.00  0.00    +0.000 NA
ATOM     20  C   UNL     1      47.847   6.957  12.623  0.00  0.00    +0.000 A 
ATOM     21  N   UNL     1      48.769   7.980  12.499  0.00  0.00    +0.000 N 
ATOM     22  C   UNL     1      50.155   7.742  12.887  0.00  0.00    +0.000 C 
ATOM     23  C   UNL     1      50.567   8.622  14.064  0.00  0.00    +0.000 C 
ATOM     24  C   UNL     1      50.219  10.087  13.812  0.00  0.00    +0.000 C 
ATOM     25  C   UNL     1      48.735  10.229  13.493  0.00  0.00    +0.000 C 
ATOM     26  C   UNL     1      48.334   9.358  12.303  0.00  0.00    +0.000 C 
ATOM     27  C   UNL     1      46.762   6.880  11.749  0.00  0.00    +0.000 A 
ENDBRANCH  15  16
ENDBRANCH   1  15
TORSDOF 4
ENDMDL
MODEL 3
REMARK VINA RESULT:    -7.370      2.331      3.077
REMARK INTER + INTRA:          -9.736
REMARK INTER:                  -9.030
REMARK INTRA:                  -0.706
REMARK UNBOUND:                -0.643
REMARK  Name = 
REMARK  4 active torsions:
REMARK  status: ('A' for Active; 'I' for Inactive)
REMARK    1  A    between atoms: C_2  and  C_4
REMARK    2  A    between atoms: C_9  and  N_10
REMARK    3  A    between atoms: N_10  and  C_11
REMARK    4  A    between atoms: C_11  and  C_12
REMARK                            x       y       z     vdW  Elec       q    Type
REMARK                         _______ _______ _______ _____ _____    ______ ____
ROOT
ATOM      1  N   UNL     1      46.132   6.595  10.475  0.00  0.00    +0.000 N 
ATOM      2  H   UNL     1      46.161   7.246   9.693  0.00  0.00    +0.000 HD
ENDROOT
BRANCH   1   8
ATOM      3  C   UNL     1      44.220   3.395  10.811  0.00  0.00    +0.000 A 
ATOM      4  C   UNL     1      44.379   2.864   9.533  0.00  0.00    +0.000 A 
ATOM      5  C   UNL     1      45.094   3.593   8.595  0.00  0.00    +0.000 A 
ATOM      6  F   UNL     1      45.270   3.083   7.368  0.00  0.00    +0.000 F 
ATOM      7  C   UNL     1      45.644   4.837   8.905  0.00  0.00    +0.000 A 
ATOM      8  C   UNL     1      45.474   5.401  10.176  0.00  0.00    +0.000 A 
ATOM      9  C   UNL     1      44.765   4.651  11.125  0.00  0.00    +0.000 A 
BRANCH   3  11
ATOM     10  N   UNL     1      43.547   3.185  13.142  0.00  0.00    +0.000 N 
ATOM     11  C   UNL     1      43.474   2.678  11.874  0.00  0.00    +0.000 C 
ATOM     12  O   UNL     1      42.788   1.696  11.621  0.00  0.00    +0.000 OA
ATOM     13  H   UNL     1      42.940   2.754  13.828  0.00  0.00    +0.000 HD
ATOM     14  H   UNL     1      43.881   4.117  13.333  0.00  0.00    +0.000 HD
ENDBRANCH   3  11
ENDBRANCH   1   8
BRANCH   1  15
ATOM     15  C   UNL     1      45.940   7.238  11.767  0.00  0.00    +0.000 C 
BRANCH  15  16
ATOM     16  C   UNL     1      47.143   7.006  12.643  0.00  0.00    +0.000 A 
ATOM     17  C   UNL     1      48.395   7.508  12.305  0.00  0.00    +0.000 A 
ATOM     18  C   UNL     1      49.444   7.274  13.175  0.00  0.00    +0.000 A 
ATOM     19  N   UNL     1      49.325   6.598  14.342  0.00  0.00    +0.000 NA
ATOM     20  C   UNL     1      48.119   6.095  14.676  0.00  0.00    +0.000 A 
ATOM     21  N   UNL     1      47.972   5.416  15.871  0.00  0.00    +0.000 N 
ATOM     22  C   UNL     1      48.843   5.751  16.993  0.00  0.00    +0.000 C 
ATOM     23  C   UNL     1      49.735   4.576  17.382  0.00  0.00    +0.000 C 
ATOM     24  C   UNL     1      48.921   3.298  17.568  0.00  0.00    +0.000 C 
ATOM     25  C   UNL     1      48.112   3.001  16.311  0.00  0.00    +0.000 C 
ATOM     26  C   UNL     1      47.208   4.176  15.937  0.00  0.00    +0.000 C 
ATOM     27  C   UNL     1      47.016   6.296  13.843  0.00  0.00    +0.000 A 
ENDBRANCH  15  16
ENDBRANCH   1  15
TORSDOF 4
ENDMDL
MODEL 4
REMARK VINA RESULT:    -7.302      4.095      7.460
REMARK INTER + INTRA:          -9.652
REMARK INTER:                  -9.227
REMARK INTRA:                  -0.426
REMARK UNBOUND:                -0.643
REMARK  Name = 
REMARK  4 active torsions:
REMARK  status: ('A' for Active; 'I' for Inactive)
REMARK    1  A    between atoms: C_2  and  C_4
REMARK    2  A    between atoms: C_9  and  N_10
REMARK    3  A    between atoms: N_10  and  C_11
REMARK    4  A    between atoms: C_11  and  C_12
REMARK                            x       y       z     vdW  Elec       q    Type
REMARK                         _______ _______ _______ _____ _____    ______ ____
ROOT
ATOM      1  N   UNL     1      43.070   7.279  11.005  0.00  0.00    +0.000 N 
ATOM      2  H   UNL     1      43.061   7.057  10.012  0.00  0.00    +0.000 HD
ENDROOT
BRANCH   1   8
ATOM      3  C   UNL     1      46.120   8.617  12.714  0.00  0.00    +0.000 A 
ATOM      4  C   UNL     1      46.110   9.936  12.265  0.00  0.00    +0.000 A 
ATOM      5  C   UNL     1      45.107  10.333  11.393  0.00  0.00    +0.000 A 
ATOM      6  F   UNL     1      45.076  11.604  10.970  0.00  0.00    +0.000 F 
ATOM      7  C   UNL     1      44.125   9.442  10.959  0.00  0.00    +0.000 A 
ATOM      8  C   UNL     1      44.132   8.105  11.378  0.00  0.00    +0.000 A 
ATOM      9  C   UNL     1      45.138   7.715  12.272  0.00  0.00    +0.000 A 
BRANCH   3  11
ATOM     10  N   UNL     1      47.393   8.853  14.776  0.00  0.00    +0.000 N 
ATOM     11  C   UNL     1      47.153   8.113  13.652  0.00  0.00    +0.000 C 
ATOM     12  O   UNL     1      47.737   7.057  13.449  0.00  0.00    +0.000 OA
ATOM     13  H   UNL     1      48.013   8.434  15.459  0.00  0.00    +0.000 HD
ATOM     14  H   UNL     1      46.763   9.572  15.096  0.00  0.00    +0.000 HD
ENDBRANCH   3  11
ENDBRANCH   1   8
BRANCH   1  15
ATOM     15  C   UNL     1      42.667   6.170  11.857  0.00  0.00    +0.000 C 
BRANCH  15  16
ATOM     16  C   UNL     1      43.579   4.992  11.638  0.00  0.00    +0.000 A 
ATOM     17  C   UNL     1      44.178   4.329  12.705  0.00  0.00    +0.000 A 
ATOM     18  C   UNL     1      44.982   3.241  12.422  0.00  0.00    +0.000 A 
ATOM     19  N   UNL     1      45.212   2.771  11.174  0.00  0.00    +0.000 NA
ATOM     20  C   UNL     1      44.647   3.412  10.129  0.00  0.00    +0.000 A 
ATOM     21  N   UNL     1      44.855   2.938   8.848  0.00  0.00    +0.000 N 
ATOM     22  C   UNL     1      45.110   1.515   8.646  0.00  0.00    +0.000 C 
ATOM     23  C   UNL     1      46.506   1.270   8.079  0.00  0.00    +0.000 C 
ATOM     24  C   UNL     1      46.771   2.144   6.856  0.00  0.00    +0.000 C 
ATOM     25  C   UNL     1      46.552   3.613   7.201  0.00  0.00    +0.000 C 
ATOM     26  C   UNL     1      45.146   3.854   7.750  0.00  0.00    +0.000 C 
ATOM     27  C   UNL     1      43.822   4.517  10.344  0.00  0.00    +0.000 A 
ENDBRANCH  15  16
ENDBRANCH   1  15
TORSDOF 4
ENDMDL
MODEL 5
REMARK VINA RESULT:    -7.186      2.198      3.001
REMARK INTER + INTRA:          -9.509
REMARK INTER:                  -8.916
REMARK INTRA:                  -0.593
REMARK UNBOUND:                -0.643
REMARK  Name = 
REMARK  4 active torsions:
REMARK  status: ('A' for Active; 'I' for Inactive)
REMARK    1  A    between atoms: C_2  and  C_4
REMARK    2  A    between atoms: C_9  and  N_10
REMARK    3  A    between atoms: N_10  and  C_11
REMARK    4  A    between atoms: C_11  and  C_12
REMARK                            x       y       z     vdW  Elec       q    Type
REMARK                         _______ _______ _______ _____ _____    ______ ____
ROOT
ATOM      1  N   UNL     1      46.533   7.427  12.223  0.00  0.00    +0.000 N 
ATOM      2  H   UNL     1      46.281   7.803  13.135  0.00  0.00    +0.000 HD
ENDROOT
BRANCH   1   8
ATOM      3  C   UNL     1      44.832   4.883  10.068  0.00  0.00    +0.000 A 
ATOM      4  C   UNL     1      43.692   4.624  10.826  0.00  0.00    +0.000 A 
ATOM      5  C   UNL     1      43.536   5.282  12.036  0.00  0.00    +0.000 A 
ATOM      6  F   UNL     1      42.434   5.054  12.765  0.00  0.00    +0.000 F 
ATOM      7  C   UNL     1      44.492   6.183  12.504  0.00  0.00    +0.000 A 
ATOM      8  C   UNL     1      45.658   6.439  11.770  0.00  0.00    +0.000 A 
ATOM      9  C   UNL     1      45.802   5.784  10.540  0.00  0.00    +0.000 A 
BRANCH   3  11
ATOM     10  N   UNL     1      44.300   3.143   8.450  0.00  0.00    +0.000 N 
ATOM     11  C   UNL     1      45.074   4.227   8.760  0.00  0.00    +0.000 C 
ATOM     12  O   UNL     1      45.903   4.661   7.971  0.00  0.00    +0.000 OA
ATOM     13  H   UNL     1      44.397   2.783   7.509  0.00  0.00    +0.000 HD
ATOM     14  H   UNL     1      43.452   2.923   8.949  0.00  0.00    +0.000 HD
ENDBRANCH   3  11
ENDBRANCH   1   8
BRANCH   1  15
ATOM     15  C   UNL     1      47.969   7.286  12.025  0.00  0.00    +0.000 C 
BRANCH  15  16
ATOM     16  C   UNL     1      48.653   7.064  13.348  0.00  0.00    +0.000 A 
ATOM     17  C   UNL     1      49.858   7.687  13.656  0.00  0.00    +0.000 A 
ATOM     18  C   UNL     1      50.409   7.452  14.902  0.00  0.00    +0.000 A 
ATOM     19  N   UNL     1      49.843   6.666  15.846  0.00  0.00    +0.000 NA
ATOM     20  C   UNL     1      48.680   6.046  15.556  0.00  0.00    +0.000 A 
ATOM     21  N   UNL     1      48.076   5.251  16.513  0.00  0.00    +0.000 N 
ATOM     22  C   UNL     1      48.293   5.546  17.925  0.00  0.00    +0.000 C 
ATOM     23  C   UNL     1      49.028   4.409  18.630  0.00  0.00    +0.000 C 
ATOM     24  C   UNL     1      48.364   3.063  18.355  0.00  0.00    +0.000 C 
ATOM     25  C   UNL     1      48.259   2.823  16.854  0.00  0.00    +0.000 C 
ATOM     26  C   UNL     1      47.506   3.957  16.158  0.00  0.00    +0.000 C 
ATOM     27  C   UNL     1      48.068   6.240  14.317  0.00  0.00    +0.000 A 
ENDBRANCH  15  16
ENDBRANCH   1  15
TORSDOF 4
ENDMDL
MODEL 6
REMARK VINA RESULT:    -6.956      2.224      2.814
REMARK INTER + INTRA:          -9.226
REMARK INTER:                  -8.510
REMARK INTRA:                  -0.716
REMARK UNBOUND:                -0.643
REMARK  Name = 
REMARK  4 active torsions:
REMARK  status: ('A' for Active; 'I' for Inactive)
REMARK    1  A    between atoms: C_2  and  C_4
REMARK    2  A    between atoms: C_9  and  N_10
REMARK    3  A    between atoms: N_10  and  C_11
REMARK    4  A    between atoms: C_11  and  C_12
REMARK                            x       y       z     vdW  Elec       q    Type
REMARK                         _______ _______ _______ _____ _____    ______ ____
ROOT
ATOM      1  N   UNL     1      44.939   6.845  12.985  0.00  0.00    +0.000 N 
ATOM      2  H   UNL     1      45.026   6.708  13.990  0.00  0.00    +0.000 HD
ENDROOT
BRANCH   1   8
ATOM      3  C   UNL     1      44.778   4.345  10.203  0.00  0.00    +0.000 A 
ATOM      4  C   UNL     1      44.224   3.254  10.869  0.00  0.00    +0.000 A 
ATOM      5  C   UNL     1      43.944   3.374  12.222  0.00  0.00    +0.000 A 
ATOM      6  F   UNL     1      43.393   2.336  12.868  0.00  0.00    +0.000 F 
ATOM      7  C   UNL     1      44.211   4.552  12.919  0.00  0.00    +0.000 A 
ATOM      8  C   UNL     1      44.791   5.652  12.275  0.00  0.00    +0.000 A 
ATOM      9  C   UNL     1      45.055   5.531  10.904  0.00  0.00    +0.000 A 
BRANCH   3  11
ATOM     10  N   UNL     1      44.341   3.486   7.967  0.00  0.00    +0.000 N 
ATOM     11  C   UNL     1      45.102   4.303   8.756  0.00  0.00    +0.000 C 
ATOM     12  O   UNL     1      45.986   5.002   8.280  0.00  0.00    +0.000 OA
ATOM     13  H   UNL     1      44.499   3.560   6.970  0.00  0.00    +0.000 HD
ATOM     14  H   UNL     1      43.459   3.105   8.274  0.00  0.00    +0.000 HD
ENDBRANCH   3  11
ENDBRANCH   1   8
BRANCH   1  15
ATOM     15  C   UNL     1      45.782   7.912  12.464  0.00  0.00    +0.000 C 
BRANCH  15  16
ATOM     16  C   UNL     1      47.225   7.639  12.799  0.00  0.00    +0.000 A 
ATOM     17  C   UNL     1      48.214   7.660  11.820  0.00  0.00    +0.000 A 
ATOM     18  C   UNL     1      49.519   7.425  12.212  0.00  0.00    +0.000 A 
ATOM     19  N   UNL     1      49.896   7.191  13.491  0.00  0.00    +0.000 NA
ATOM     20  C   UNL     1      48.946   7.156  14.448  0.00  0.00    +0.000 A 
ATOM     21  N   UNL     1      49.313   6.934  15.762  0.00  0.00    +0.000 N 
ATOM     22  C   UNL     1      50.639   7.345  16.211  0.00  0.00    +0.000 C 
ATOM     23  C   UNL     1      51.483   6.147  16.636  0.00  0.00    +0.000 C 
ATOM     24  C   UNL     1      50.727   5.253  17.616  0.00  0.00    +0.000 C 
ATOM     25  C   UNL     1      49.395   4.820  17.015  0.00  0.00    +0.000 C 
ATOM     26  C   UNL     1      48.547   6.025  16.608  0.00  0.00    +0.000 C 
ATOM     27  C   UNL     1      47.608   7.386  14.121  0.00  0.00    +0.000 A 
ENDBRANCH  15  16
ENDBRANCH   1  15
TORSDOF 4
ENDMDL
MODEL 7
REMARK VINA RESULT:    -6.694      3.319      5.466
REMARK INTER + INTRA:          -8.902
REMARK INTER:                  -8.476
REMARK INTRA:                  -0.426
REMARK UNBOUND:                -0.643
REMARK  Name = 
REMARK  4 active torsions:
REMARK  status: ('A' for Active; 'I' for Inactive)
REMARK    1  A    between atoms: C_2  and  C_4
REMARK    2  A    between atoms: C_9  and  N_10
REMARK    3  A    between atoms: N_10  and  C_11
REMARK    4  A    between atoms: C_11  and  C_12
REMARK                            x       y       z     vdW  Elec       q    Type
REMARK                         _______ _______ _______ _____ _____    ______ ____
ROOT
ATOM      1  N   UNL     1      46.968   3.602  14.527  0.00  0.00    +0.000 N 
ATOM      2  H   UNL     1      47.784   3.064  14.246  0.00  0.00    +0.000 HD
ENDROOT
BRANCH   1   8
ATOM      3  C   UNL     1      44.967   4.657  11.544  0.00  0.00    +0.000 A 
ATOM      4  C   UNL     1      45.556   5.888  11.261  0.00  0.00    +0.000 A 
ATOM      5  C   UNL     1      46.579   6.339  12.082  0.00  0.00    +0.000 A 
ATOM      6  F   UNL     1      47.165   7.513  11.808  0.00  0.00    +0.000 F 
ATOM      7  C   UNL     1      47.019   5.593  13.175  0.00  0.00    +0.000 A 
ATOM      8  C   UNL     1      46.424   4.364  13.492  0.00  0.00    +0.000 A 
ATOM      9  C   UNL     1      45.402   3.906  12.649  0.00  0.00    +0.000 A 
BRANCH   3  11
ATOM     10  N   UNL     1      43.839   4.459   9.396  0.00  0.00    +0.000 N 
ATOM     11  C   UNL     1      43.871   4.099  10.714  0.00  0.00    +0.000 C 
ATOM     12  O   UNL     1      43.054   3.316  11.180  0.00  0.00    +0.000 OA
ATOM     13  H   UNL     1      43.158   3.978   8.821  0.00  0.00    +0.000 HD
ATOM     14  H   UNL     1      44.626   4.883   8.931  0.00  0.00    +0.000 HD
ENDBRANCH   3  11
ENDBRANCH   1   8
BRANCH   1  15
ATOM     15  C   UNL     1      47.062   4.150  15.873  0.00  0.00    +0.000 C 
BRANCH  15  16
ATOM     16  C   UNL     1      48.301   3.634  16.555  0.00  0.00    +0.000 A 
ATOM     17  C   UNL     1      48.816   2.373  16.269  0.00  0.00    +0.000 A 
ATOM     18  C   UNL     1      49.972   1.983  16.918  0.00  0.00    +0.000 A 
ATOM     19  N   UNL     1      50.643   2.756  17.803  0.00  0.00    +0.000 NA
ATOM     20  C   UNL     1      50.149   3.976  18.099  0.00  0.00    +0.000 A 
ATOM     21  N   UNL     1      50.828   4.788  18.988  0.00  0.00    +0.000 N 
ATOM     22  C   UNL     1      52.275   4.651  19.116  0.00  0.00    +0.000 C 
ATOM     23  C   UNL     1      52.672   4.184  20.513  0.00  0.00    +0.000 C 
ATOM     24  C   UNL     1      52.016   5.039  21.594  0.00  0.00    +0.000 C 
ATOM     25  C   UNL     1      50.503   5.048  21.411  0.00  0.00    +0.000 C 
ATOM     26  C   UNL     1      50.111   5.534  20.016  0.00  0.00    +0.000 C 
ATOM     27  C   UNL     1      48.985   4.434  17.478  0.00  0.00    +0.000 A 
ENDBRANCH  15  16
ENDBRANCH   1  15
TORSDOF 4
ENDMDL
MODEL 8
REMARK VINA RESULT:    -6.641      4.226      7.885
REMARK INTER + INTRA:          -8.837
REMARK INTER:                  -8.220
REMARK INTRA:                  -0.617
REMARK UNBOUND:                -0.643
REMARK  Name = 
REMARK  4 active torsions:
REMARK  status: ('A' for Active; 'I' for Inactive)
REMARK    1  A    between atoms: C_2  and  C_4
REMARK    2  A    between atoms: C_9  and  N_10
REMARK    3  A    between atoms: N_10  and  C_11
REMARK    4  A    between atoms: C_11  and  C_12
REMARK                            x       y       z     vdW  Elec       q    Type
REMARK                         _______ _______ _______ _____ _____    ______ ____
ROOT
ATOM      1  N   UNL     1      48.279   6.692  16.302  0.00  0.00    +0.000 N 
ATOM      2  H   UNL     1      47.959   7.516  16.806  0.00  0.00    +0.000 HD
ENDROOT
BRANCH   1   8
ATOM      3  C   UNL     1      49.342   3.321  17.533  0.00  0.00    +0.000 A 
ATOM      4  C   UNL     1      49.043   3.435  18.889  0.00  0.00    +0.000 A 
ATOM      5  C   UNL     1      48.521   4.633  19.355  0.00  0.00    +0.000 A 
ATOM      6  F   UNL     1      48.212   4.748  20.654  0.00  0.00    +0.000 F 
ATOM      7  C   UNL     1      48.300   5.713  18.500  0.00  0.00    +0.000 A 
ATOM      8  C   UNL     1      48.618   5.627  17.138  0.00  0.00    +0.000 A 
ATOM      9  C   UNL     1      49.128   4.409  16.670  0.00  0.00    +0.000 A 
BRANCH   3  11
ATOM     10  N   UNL     1      50.848   1.413  17.678  0.00  0.00    +0.000 N 
ATOM     11  C   UNL     1      49.897   2.074  16.952  0.00  0.00    +0.000 C 
ATOM     12  O   UNL     1      49.491   1.632  15.885  0.00  0.00    +0.000 OA
ATOM     13  H   UNL     1      51.128   0.507  17.323  0.00  0.00    +0.000 HD
ATOM     14  H   UNL     1      51.012   1.604  18.655  0.00  0.00    +0.000 HD
ENDBRANCH   3  11
ENDBRANCH   1   8
BRANCH   1  15
ATOM     15  C   UNL     1      49.093   6.999  15.135  0.00  0.00    +0.000 C 
BRANCH  15  16
ATOM     16  C   UNL     1      48.228   7.064  13.904  0.00  0.00    +0.000 A 
ATOM     17  C   UNL     1      48.359   8.094  12.977  0.00  0.00    +0.000 A 
ATOM     18  C   UNL     1      47.545   8.068  11.860  0.00  0.00    +0.000 A 
ATOM     19  N   UNL     1      46.639   7.096  11.604  0.00  0.00    +0.000 NA
ATOM     20  C   UNL     1      46.493   6.098  12.500  0.00  0.00    +0.000 A 
ATOM     21  N   UNL     1      45.584   5.087  12.250  0.00  0.00    +0.000 N 
ATOM     22  C   UNL     1      45.267   4.740  10.869  0.00  0.00    +0.000 C 
ATOM     23  C   UNL     1      43.802   5.016  10.543  0.00  0.00    +0.000 C 
ATOM     24  C   UNL     1      42.874   4.397  11.585  0.00  0.00    +0.000 C 
ATOM     25  C   UNL     1      43.244   4.888  12.979  0.00  0.00    +0.000 C 
ATOM     26  C   UNL     1      44.708   4.591  13.305  0.00  0.00    +0.000 C 
ATOM     27  C   UNL     1      47.284   6.062  13.650  0.00  0.00    +0.000 A 
ENDBRANCH  15  16
ENDBRANCH   1  15
TORSDOF 4
ENDMDL
MODEL 9
REMARK VINA RESULT:    -6.598      4.464      7.134
REMARK INTER + INTRA:          -8.784
REMARK INTER:                  -8.079
REMARK INTRA:                  -0.706
REMARK UNBOUND:                -0.643
REMARK  Name = 
REMARK  4 active torsions:
REMARK  status: ('A' for Active; 'I' for Inactive)
REMARK    1  A    between atoms: C_2  and  C_4
REMARK    2  A    between atoms: C_9  and  N_10
REMARK    3  A    between atoms: N_10  and  C_11
REMARK    4  A    between atoms: C_11  and  C_12
REMARK                            x       y       z     vdW  Elec       q    Type
REMARK                         _______ _______ _______ _____ _____    ______ ____
ROOT
ATOM      1  N   UNL     1      46.461   7.314  12.089  0.00  0.00    +0.000 N 
ATOM      2  H   UNL     1      47.007   7.611  11.284  0.00  0.00    +0.000 HD
ENDROOT
BRANCH   1   8
ATOM      3  C   UNL     1      44.638   4.567  10.316  0.00  0.00    +0.000 A 
ATOM      4  C   UNL     1      43.633   4.286  11.240  0.00  0.00    +0.000 A 
ATOM      5  C   UNL     1      43.607   4.998  12.430  0.00  0.00    +0.000 A 
ATOM      6  F   UNL     1      42.635   4.749  13.318  0.00  0.00    +0.000 F 
ATOM      7  C   UNL     1      44.561   5.975  12.715  0.00  0.00    +0.000 A 
ATOM      8  C   UNL     1      45.594   6.256  11.811  0.00  0.00    +0.000 A 
ATOM      9  C   UNL     1      45.605   5.545  10.603  0.00  0.00    +0.000 A 
BRANCH   3  11
ATOM     10  N   UNL     1      44.226   2.589   8.958  0.00  0.00    +0.000 N 
ATOM     11  C   UNL     1      44.734   3.856   9.018  0.00  0.00    +0.000 C 
ATOM     12  O   UNL     1      45.211   4.397   8.029  0.00  0.00    +0.000 OA
ATOM     13  H   UNL     1      44.195   2.166   8.039  0.00  0.00    +0.000 HD
ATOM     14  H   UNL     1      43.608   2.220   9.664  0.00  0.00    +0.000 HD
ENDBRANCH   3  11
ENDBRANCH   1   8
BRANCH   1  15
ATOM     15  C   UNL     1      46.030   8.413  12.942  0.00  0.00    +0.000 C 
BRANCH  15  16
ATOM     16  C   UNL     1      45.647   9.601  12.099  0.00  0.00    +0.000 A 
ATOM     17  C   UNL     1      46.503  10.686  11.942  0.00  0.00    +0.000 A 
ATOM     18  C   UNL     1      46.088  11.726  11.131  0.00  0.00    +0.000 A 
ATOM     19  N   UNL     1      44.908  11.748  10.469  0.00  0.00    +0.000 NA
ATOM     20  C   UNL     1      44.063  10.707  10.622  0.00  0.00    +0.000 A 
ATOM     21  N   UNL     1      42.860  10.702   9.941  0.00  0.00    +0.000 N 
ATOM     22  C   UNL     1      42.758  11.410   8.669  0.00  0.00    +0.000 C 
ATOM     23  C   UNL     1      41.766  12.567   8.749  0.00  0.00    +0.000 C 
ATOM     24  C   UNL     1      40.431  12.116   9.336  0.00  0.00    +0.000 C 
ATOM     25  C   UNL     1      40.647  11.463  10.696  0.00  0.00    +0.000 C 
ATOM     26  C   UNL     1      41.628  10.293  10.605  0.00  0.00    +0.000 C 
ATOM     27  C   UNL     1      44.420   9.623  11.425  0.00  0.00    +0.000 A 
ENDBRANCH  15  16
ENDBRANCH   1  15
TORSDOF 4
ENDMDL
