MODEL 1
REMARK VINA RESULT:    -6.772      0.000      0.000
REMARK INTER + INTRA:          -9.519
REMARK INTER:                  -8.751
REMARK INTRA:                  -0.768
REMARK UNBOUND:                -0.768
REMARK  Name = 
REMARK  7 active torsions:
REMARK  status: ('A' for Active; 'I' for Inactive)
REMARK    1  A    between atoms: C_1  and  N_2
REMARK    2  A    between atoms: N_2  and  C_3
REMARK    3  A    between atoms: N_2  and  C_4
REMARK    4  A    between atoms: C_4  and  C_5
REMARK    5  A    between atoms: C_8  and  C_9
REMARK    6  A    between atoms: C_9  and  N_10
REMARK    7  A    between atoms: C_11  and  C_13
REMARK                            x       y       z     vdW  Elec       q    Type
REMARK                         _______ _______ _______ _____ _____    ______ ____
ROOT
ATOM      1  N   UNL     1      46.847   6.723  14.030  0.00  0.00    +0.000 N 
ATOM      2  C   UNL     1      48.171   6.357  14.080  0.00  0.00    +0.000 C 
ATOM      3  O   UNL     1      48.844   6.179  13.067  0.00  0.00    +0.000 OA
ATOM      4  H   UNL     1      46.283   6.549  14.857  0.00  0.00    +0.000 HD
ENDROOT
BRANCH   2   5
ATOM      5  C   UNL     1      48.772   6.264  15.416  0.00  0.00    +0.000 A 
ATOM      6  C   UNL     1      49.796   7.135  15.764  0.00  0.00    +0.000 A 
ATOM      7  S   UNL     1      50.346   6.938  17.366  0.00  0.00    +0.000 S 
ATOM      8  C   UNL     1      49.275   5.644  17.633  0.00  0.00    +0.000 A 
ATOM      9  N   UNL     1      49.249   4.992  18.825  0.00  0.00    +0.000 NA
ATOM     10  C   UNL     1      48.415   4.008  18.879  0.00  0.00    +0.000 A 
ATOM     11  N   UNL     1      47.602   3.618  17.846  0.00  0.00    +0.000 N 
ATOM     12  C   UNL     1      47.565   4.271  16.636  0.00  0.00    +0.000 A 
ATOM     13  O   UNL     1      46.787   3.933  15.748  0.00  0.00    +0.000 OA
ATOM     14  C   UNL     1      48.494   5.377  16.520  0.00  0.00    +0.000 A 
ATOM     15  H   UNL     1      46.966   2.840  17.954  0.00  0.00    +0.000 HD
ENDBRANCH   2   5
BRANCH   1  16
ATOM     16  C   UNL     1      46.139   6.833  12.772  0.00  0.00    +0.000 C 
BRANCH  16  20
ATOM     17  C   UNL     1      43.654   3.887  10.704  0.00  0.00    +0.000 C 
ATOM     18  C   UNL     1      44.556   3.373  11.833  0.00  0.00    +0.000 C 
ATOM     19  C   UNL     1      45.606   4.388  12.282  0.00  0.00    +0.000 C 
ATOM     20  C   UNL     1      45.028   5.776  12.613  0.00  0.00    +0.000 C 
ATOM     21  C   UNL     1      44.029   6.267  11.552  0.00  0.00    +0.000 C 
ATOM     22  C   UNL     1      43.008   5.209  11.147  0.00  0.00    +0.000 C 
BRANCH  17  23
ATOM     23  C   UNL     1      44.379   4.040   9.338  0.00  0.00    +0.000 C 
BRANCH  23  25
ATOM     24  C   UNL     1      44.757   1.671   8.855  0.00  0.00    +0.000 C 
ATOM     25  N   UNL     1      45.368   2.991   9.020  0.00  0.00    +0.000 NA
ATOM     26  C   UNL     1      46.084   3.337   7.785  0.00  0.00    +0.000 C 
ENDBRANCH  23  25
ENDBRANCH  17  23
ENDBRANCH  16  20
ENDBRANCH   1  16
TORSDOF 5
ENDMDL
MODEL 2
REMARK VINA RESULT:    -6.518      2.846      7.517
REMARK INTER + INTRA:          -9.191
REMARK INTER:                  -8.469
REMARK INTRA:                  -0.721
REMARK UNBOUND:                -0.768
REMARK  Name = 
REMARK  7 active torsions:
REMARK  status: ('A' for Active; 'I' for Inactive)
REMARK    1  A    between atoms: C_1  and  N_2
REMARK    2  A    between atoms: N_2  and  C_3
REMARK    3  A    between atoms: N_2  and  C_4
REMARK    4  A    between atoms: C_4  and  C_5
REMARK    5  A    between atoms: C_8  and  C_9
REMARK    6  A    between atoms: C_9  and  N_10
REMARK    7  A    between atoms: C_11  and  C_13
REMARK                            x       y       z     vdW  Elec       q    Type
REMARK                         _______ _______ _______ _____ _____    ______ ____
ROOT
ATOM      1  N   UNL     1      47.679   6.516  14.836  0.00  0.00    +0.000 N 
ATOM      2  C   UNL     1      47.741   6.267  13.486  0.00  0.00    +0.000 C 
ATOM      3  O   UNL     1      48.806   6.127  12.889  0.00  0.00    +0.000 OA
ATOM      4  H   UNL     1      46.822   6.922  15.197  0.00  0.00    +0.000 HD
ENDROOT
BRANCH   2   5
ATOM      5  C   UNL     1      46.457   6.095  12.795  0.00  0.00    +0.000 A 
ATOM      6  C   UNL     1      45.817   7.207  12.263  0.00  0.00    +0.000 A 
ATOM      7  S   UNL     1      44.368   6.834  11.443  0.00  0.00    +0.000 S 
ATOM      8  C   UNL     1      44.517   5.182  11.819  0.00  0.00    +0.000 A 
ATOM      9  N   UNL     1      43.574   4.287  11.422  0.00  0.00    +0.000 NA
ATOM     10  C   UNL     1      43.793   3.074  11.805  0.00  0.00    +0.000 A 
ATOM     11  N   UNL     1      44.873   2.674  12.549  0.00  0.00    +0.000 N 
ATOM     12  C   UNL     1      45.872   3.535  12.939  0.00  0.00    +0.000 A 
ATOM     13  O   UNL     1      46.856   3.139  13.557  0.00  0.00    +0.000 OA
ATOM     14  C   UNL     1      45.666   4.914  12.544  0.00  0.00    +0.000 A 
ATOM     15  H   UNL     1      44.989   1.706  12.812  0.00  0.00    +0.000 HD
ENDBRANCH   2   5
BRANCH   1  16
ATOM     16  C   UNL     1      48.877   6.719  15.623  0.00  0.00    +0.000 C 
BRANCH  16  20
ATOM     17  C   UNL     1      50.000   3.545  18.414  0.00  0.00    +0.000 C 
ATOM     18  C   UNL     1      50.383   4.981  18.796  0.00  0.00    +0.000 C 
ATOM     19  C   UNL     1      50.243   5.973  17.642  0.00  0.00    +0.000 C 
ATOM     20  C   UNL     1      48.872   5.925  16.944  0.00  0.00    +0.000 C 
ATOM     21  C   UNL     1      48.407   4.488  16.654  0.00  0.00    +0.000 C 
ATOM     22  C   UNL     1      48.573   3.547  17.843  0.00  0.00    +0.000 C 
BRANCH  17  23
ATOM     23  C   UNL     1      51.000   2.862  17.442  0.00  0.00    +0.000 C 
BRANCH  23  25
ATOM     24  C   UNL     1      52.450   0.893  17.530  0.00  0.00    +0.000 C 
ATOM     25  N   UNL     1      52.170   2.223  18.075  0.00  0.00    +0.000 NA
ATOM     26  C   UNL     1      53.360   3.066  17.893  0.00  0.00    +0.000 C 
ENDBRANCH  23  25
ENDBRANCH  17  23
ENDBRANCH  16  20
ENDBRANCH   1  16
TORSDOF 5
ENDMDL
MODEL 3
REMARK VINA RESULT:    -6.448      2.886      8.138
REMARK INTER + INTRA:          -9.101
REMARK INTER:                  -8.419
REMARK INTRA:                  -0.682
REMARK UNBOUND:                -0.768
REMARK  Name = 
REMARK  7 active torsions:
REMARK  status: ('A' for Active; 'I' for Inactive)
REMARK    1  A    between atoms: C_1  and  N_2
REMARK    2  A    between atoms: N_2  and  C_3
REMARK    3  A    between atoms: N_2  and  C_4
REMARK    4  A    between atoms: C_4  and  C_5
REMARK    5  A    between atoms: C_8  and  C_9
REMARK    6  A    between atoms: C_9  and  N_10
REMARK    7  A    between atoms: C_11  and  C_13
REMARK                            x       y       z     vdW  Elec       q    Type
REMARK                         _______ _______ _______ _____ _____    ______ ____
ROOT
ATOM      1  N   UNL     1      46.900   4.426  15.620  0.00  0.00    +0.000 N 
ATOM      2  C   UNL     1      46.790   4.191  14.270  0.00  0.00    +0.000 C 
ATOM      3  O   UNL     1      47.159   3.140  13.751  0.00  0.00    +0.000 OA
ATOM      4  H   UNL     1      46.876   5.393  15.929  0.00  0.00    +0.000 HD
ENDROOT
BRANCH   2   5
ATOM      5  C   UNL     1      46.130   5.237  13.478  0.00  0.00    +0.000 A 
ATOM      6  C   UNL     1      46.788   6.440  13.257  0.00  0.00    +0.000 A 
ATOM      7  S   UNL     1      45.916   7.525  12.272  0.00  0.00    +0.000 S 
ATOM      8  C   UNL     1      44.604   6.447  12.153  0.00  0.00    +0.000 A 
ATOM      9  N   UNL     1      43.489   6.778  11.450  0.00  0.00    +0.000 NA
ATOM     10  C   UNL     1      42.558   5.885  11.472  0.00  0.00    +0.000 A 
ATOM     11  N   UNL     1      42.643   4.687  12.133  0.00  0.00    +0.000 N 
ATOM     12  C   UNL     1      43.765   4.292  12.823  0.00  0.00    +0.000 A 
ATOM     13  O   UNL     1      43.833   3.189  13.359  0.00  0.00    +0.000 OA
ATOM     14  C   UNL     1      44.836   5.267  12.840  0.00  0.00    +0.000 A 
ATOM     15  H   UNL     1      41.878   4.027  12.106  0.00  0.00    +0.000 HD
ENDBRANCH   2   5
BRANCH   1  16
ATOM     16  C   UNL     1      47.545   3.477  16.502  0.00  0.00    +0.000 C 
BRANCH  16  20
ATOM     17  C   UNL     1      49.428   6.177  19.382  0.00  0.00    +0.000 C 
ATOM     18  C   UNL     1      49.454   4.678  19.707  0.00  0.00    +0.000 C 
ATOM     19  C   UNL     1      48.515   3.850  18.830  0.00  0.00    +0.000 C 
ATOM     20  C   UNL     1      48.692   4.101  17.321  0.00  0.00    +0.000 C 
ATOM     21  C   UNL     1      48.788   5.597  16.979  0.00  0.00    +0.000 C 
ATOM     22  C   UNL     1      49.738   6.367  17.889  0.00  0.00    +0.000 C 
BRANCH  17  23
ATOM     23  C   UNL     1      48.105   6.886  19.782  0.00  0.00    +0.000 C 
BRANCH  23  25
ATOM     24  C   UNL     1      47.378   9.041  18.877  0.00  0.00    +0.000 C 
ATOM     25  N   UNL     1      48.178   8.356  19.895  0.00  0.00    +0.000 NA
ATOM     26  C   UNL     1      47.713   8.779  21.223  0.00  0.00    +0.000 C 
ENDBRANCH  23  25
ENDBRANCH  17  23
ENDBRANCH  16  20
ENDBRANCH   1  16
TORSDOF 5
ENDMDL
MODEL 4
REMARK VINA RESULT:    -6.444      2.862      7.614
REMARK INTER + INTRA:          -9.096
REMARK INTER:                  -8.283
REMARK INTRA:                  -0.813
REMARK UNBOUND:                -0.768
REMARK  Name = 
REMARK  7 active torsions:
REMARK  status: ('A' for Active; 'I' for Inactive)
REMARK    1  A    between atoms: C_1  and  N_2
REMARK    2  A    between atoms: N_2  and  C_3
REMARK    3  A    between atoms: N_2  and  C_4
REMARK    4  A    between atoms: C_4  and  C_5
REMARK    5  A    between atoms: C_8  and  C_9
REMARK    6  A    between atoms: C_9  and  N_10
REMARK    7  A    between atoms: C_11  and  C_13
REMARK                            x       y       z     vdW  Elec       q    Type
REMARK                         _______ _______ _______ _____ _____    ______ ____
ROOT
ATOM      1  N   UNL     1      46.860   4.416  15.742  0.00  0.00    +0.000 N 
ATOM      2  C   UNL     1      46.847   4.195  14.386  0.00  0.00    +0.000 C 
ATOM      3  O   UNL     1      47.227   3.139  13.886  0.00  0.00    +0.000 OA
ATOM      4  H   UNL     1      46.837   5.380  16.059  0.00  0.00    +0.000 HD
ENDROOT
BRANCH   2   5
ATOM      5  C   UNL     1      46.277   5.264  13.557  0.00  0.00    +0.000 A 
ATOM      6  C   UNL     1      46.999   6.435  13.366  0.00  0.00    +0.000 A 
ATOM      7  S   UNL     1      46.229   7.553  12.333  0.00  0.00    +0.000 S 
ATOM      8  C   UNL     1      44.879   6.534  12.149  0.00  0.00    +0.000 A 
ATOM      9  N   UNL     1      43.818   6.911  11.388  0.00  0.00    +0.000 NA
ATOM     10  C   UNL     1      42.847   6.060  11.364  0.00  0.00    +0.000 A 
ATOM     11  N   UNL     1      42.844   4.863  12.033  0.00  0.00    +0.000 N 
ATOM     12  C   UNL     1      43.909   4.422  12.783  0.00  0.00    +0.000 A 
ATOM     13  O   UNL     1      43.900   3.321  13.325  0.00  0.00    +0.000 OA
ATOM     14  C   UNL     1      45.021   5.349  12.852  0.00  0.00    +0.000 A 
ATOM     15  H   UNL     1      42.053   4.238  11.968  0.00  0.00    +0.000 HD
ENDBRANCH   2   5
BRANCH   1  16
ATOM     16  C   UNL     1      47.411   3.442  16.661  0.00  0.00    +0.000 C 
BRANCH  16  20
ATOM     17  C   UNL     1      50.842   5.714  18.145  0.00  0.00    +0.000 C 
ATOM     18  C   UNL     1      49.446   6.273  18.450  0.00  0.00    +0.000 C 
ATOM     19  C   UNL     1      48.335   5.608  17.641  0.00  0.00    +0.000 C 
ATOM     20  C   UNL     1      48.350   4.069  17.711  0.00  0.00    +0.000 C 
ATOM     21  C   UNL     1      49.760   3.485  17.524  0.00  0.00    +0.000 C 
ATOM     22  C   UNL     1      50.823   4.192  18.358  0.00  0.00    +0.000 C 
BRANCH  17  23
ATOM     23  C   UNL     1      51.375   6.083  16.734  0.00  0.00    +0.000 C 
BRANCH  23  25
ATOM     24  C   UNL     1      52.368   8.249  16.176  0.00  0.00    +0.000 C 
ATOM     25  N   UNL     1      51.132   7.474  16.304  0.00  0.00    +0.000 NA
ATOM     26  C   UNL     1      50.433   7.484  15.012  0.00  0.00    +0.000 C 
ENDBRANCH  23  25
ENDBRANCH  17  23
ENDBRANCH  16  20
ENDBRANCH   1  16
TORSDOF 5
ENDMDL
MODEL 5
REMARK VINA RESULT:    -6.296      2.653      7.985
REMARK INTER + INTRA:          -8.904
REMARK INTER:                  -8.146
REMARK INTRA:                  -0.757
REMARK UNBOUND:                -0.768
REMARK  Name = 
REMARK  7 active torsions:
REMARK  status: ('A' for Active; 'I' for Inactive)
REMARK    1  A    between atoms: C_1  and  N_2
REMARK    2  A    between atoms: N_2  and  C_3
REMARK    3  A    between atoms: N_2  and  C_4
REMARK    4  A    between atoms: C_4  and  C_5
REMARK    5  A    between atoms: C_8  and  C_9
REMARK    6  A    between atoms: C_9  and  N_10
REMARK    7  A    between atoms: C_11  and  C_13
REMARK                            x       y       z     vdW  Elec       q    Type
REMARK                         _______ _______ _______ _____ _____    ______ ____
ROOT
ATOM      1  N   UNL     1      47.724   6.758  14.780  0.00  0.00    +0.000 N 
ATOM      2  C   UNL     1      47.781   6.355  13.467  0.00  0.00    +0.000 C 
ATOM      3  O   UNL     1      48.840   6.087  12.905  0.00  0.00    +0.000 OA
ATOM      4  H   UNL     1      46.890   7.252  15.081  0.00  0.00    +0.000 HD
ENDROOT
BRANCH   2   5
ATOM      5  C   UNL     1      46.494   6.182  12.782  0.00  0.00    +0.000 A 
ATOM      6  C   UNL     1      45.857   7.290  12.239  0.00  0.00    +0.000 A 
ATOM      7  S   UNL     1      44.405   6.915  11.428  0.00  0.00    +0.000 S 
ATOM      8  C   UNL     1      44.547   5.266  11.822  0.00  0.00    +0.000 A 
ATOM      9  N   UNL     1      43.599   4.371  11.438  0.00  0.00    +0.000 NA
ATOM     10  C   UNL     1      43.813   3.161  11.834  0.00  0.00    +0.000 A 
ATOM     11  N   UNL     1      44.894   2.765  12.579  0.00  0.00    +0.000 N 
ATOM     12  C   UNL     1      45.898   3.626  12.957  0.00  0.00    +0.000 A 
ATOM     13  O   UNL     1      46.881   3.232  13.577  0.00  0.00    +0.000 OA
ATOM     14  C   UNL     1      45.697   5.002  12.547  0.00  0.00    +0.000 A 
ATOM     15  H   UNL     1      45.006   1.799  12.853  0.00  0.00    +0.000 HD
ENDBRANCH   2   5
BRANCH   1  16
ATOM     16  C   UNL     1      48.926   6.979  15.556  0.00  0.00    +0.000 C 
BRANCH  16  20
ATOM     17  C   UNL     1      48.726   4.651  19.253  0.00  0.00    +0.000 C 
ATOM     18  C   UNL     1      48.173   3.994  17.982  0.00  0.00    +0.000 C 
ATOM     19  C   UNL     1      47.990   4.974  16.823  0.00  0.00    +0.000 C 
ATOM     20  C   UNL     1      49.242   5.818  16.520  0.00  0.00    +0.000 C 
ATOM     21  C   UNL     1      49.888   6.393  17.791  0.00  0.00    +0.000 C 
ATOM     22  C   UNL     1      50.041   5.368  18.909  0.00  0.00    +0.000 C 
BRANCH  17  23
ATOM     23  C   UNL     1      47.725   5.607  19.957  0.00  0.00    +0.000 C 
BRANCH  23  25
ATOM     24  C   UNL     1      47.435   7.501  21.479  0.00  0.00    +0.000 C 
ATOM     25  N   UNL     1      48.255   6.340  21.124  0.00  0.00    +0.000 NA
ATOM     26  C   UNL     1      48.333   5.444  22.285  0.00  0.00    +0.000 C 
ENDBRANCH  23  25
ENDBRANCH  17  23
ENDBRANCH  16  20
ENDBRANCH   1  16
TORSDOF 5
ENDMDL
MODEL 6
REMARK VINA RESULT:    -6.193      2.977      8.286
REMARK INTER + INTRA:          -8.772
REMARK INTER:                  -8.125
REMARK INTRA:                  -0.647
REMARK UNBOUND:                -0.768
REMARK  Name = 
REMARK  7 active torsions:
REMARK  status: ('A' for Active; 'I' for Inactive)
REMARK    1  A    between atoms: C_1  and  N_2
REMARK    2  A    between atoms: N_2  and  C_3
REMARK    3  A    between atoms: N_2  and  C_4
REMARK    4  A    between atoms: C_4  and  C_5
REMARK    5  A    between atoms: C_8  and  C_9
REMARK    6  A    between atoms: C_9  and  N_10
REMARK    7  A    between atoms: C_11  and  C_13
REMARK                            x       y       z     vdW  Elec       q    Type
REMARK                         _______ _______ _______ _____ _____    ______ ____
ROOT
ATOM      1  N   UNL     1      47.069   4.659  15.618  0.00  0.00    +0.000 N 
ATOM      2  C   UNL     1      46.872   4.348  14.293  0.00  0.00    +0.000 C 
ATOM      3  O   UNL     1      47.154   3.247  13.826  0.00  0.00    +0.000 OA
ATOM      4  H   UNL     1      47.116   5.642  15.865  0.00  0.00    +0.000 HD
ENDROOT
BRANCH   2   5
ATOM      5  C   UNL     1      46.229   5.380  13.470  0.00  0.00    +0.000 A 
ATOM      6  C   UNL     1      46.896   6.574  13.232  0.00  0.00    +0.000 A 
ATOM      7  S   UNL     1      46.043   7.642  12.213  0.00  0.00    +0.000 S 
ATOM      8  C   UNL     1      44.728   6.569  12.099  0.00  0.00    +0.000 A 
ATOM      9  N   UNL     1      43.624   6.891  11.375  0.00  0.00    +0.000 NA
ATOM     10  C   UNL     1      42.687   6.003  11.403  0.00  0.00    +0.000 A 
ATOM     11  N   UNL     1      42.757   4.819  12.092  0.00  0.00    +0.000 N 
ATOM     12  C   UNL     1      43.867   4.434  12.805  0.00  0.00    +0.000 A 
ATOM     13  O   UNL     1      43.922   3.343  13.366  0.00  0.00    +0.000 OA
ATOM     14  C   UNL     1      44.944   5.403  12.815  0.00  0.00    +0.000 A 
ATOM     15  H   UNL     1      41.989   4.163  12.069  0.00  0.00    +0.000 HD
ENDBRANCH   2   5
BRANCH   1  16
ATOM     16  C   UNL     1      47.708   3.730  16.525  0.00  0.00    +0.000 C 
BRANCH  16  20
ATOM     17  C   UNL     1      48.519   5.925  20.220  0.00  0.00    +0.000 C 
ATOM     18  C   UNL     1      47.135   6.112  19.584  0.00  0.00    +0.000 C 
ATOM     19  C   UNL     1      47.046   5.574  18.156  0.00  0.00    +0.000 C 
ATOM     20  C   UNL     1      47.542   4.124  18.006  0.00  0.00    +0.000 C 
ATOM     21  C   UNL     1      48.873   3.877  18.736  0.00  0.00    +0.000 C 
ATOM     22  C   UNL     1      48.899   4.438  20.154  0.00  0.00    +0.000 C 
BRANCH  17  23
ATOM     23  C   UNL     1      49.624   6.823  19.600  0.00  0.00    +0.000 C 
BRANCH  23  25
ATOM     24  C   UNL     1      51.905   6.363  18.843  0.00  0.00    +0.000 C 
ATOM     25  N   UNL     1      51.008   6.494  19.994  0.00  0.00    +0.000 NA
ATOM     26  C   UNL     1      51.535   7.534  20.887  0.00  0.00    +0.000 C 
ENDBRANCH  23  25
ENDBRANCH  17  23
ENDBRANCH  16  20
ENDBRANCH   1  16
TORSDOF 5
ENDMDL
MODEL 7
REMARK VINA RESULT:    -6.003      2.785      8.424
REMARK INTER + INTRA:          -8.526
REMARK INTER:                  -7.889
REMARK INTRA:                  -0.637
REMARK UNBOUND:                -0.768
REMARK  Name = 
REMARK  7 active torsions:
REMARK  status: ('A' for Active; 'I' for Inactive)
REMARK    1  A    between atoms: C_1  and  N_2
REMARK    2  A    between atoms: N_2  and  C_3
REMARK    3  A    between atoms: N_2  and  C_4
REMARK    4  A    between atoms: C_4  and  C_5
REMARK    5  A    between atoms: C_8  and  C_9
REMARK    6  A    between atoms: C_9  and  N_10
REMARK    7  A    between atoms: C_11  and  C_13
REMARK                            x       y       z     vdW  Elec       q    Type
REMARK                         _______ _______ _______ _____ _____    ______ ____
ROOT
ATOM      1  N   UNL     1      47.707   6.190  15.013  0.00  0.00    +0.000 N 
ATOM      2  C   UNL     1      47.835   6.279  13.647  0.00  0.00    +0.000 C 
ATOM      3  O   UNL     1      48.925   6.412  13.095  0.00  0.00    +0.000 OA
ATOM      4  H   UNL     1      46.796   6.396  15.411  0.00  0.00    +0.000 HD
ENDROOT
BRANCH   2   5
ATOM      5  C   UNL     1      46.602   6.129  12.865  0.00  0.00    +0.000 A 
ATOM      6  C   UNL     1      46.023   7.251  12.286  0.00  0.00    +0.000 A 
ATOM      7  S   UNL     1      44.631   6.903  11.364  0.00  0.00    +0.000 S 
ATOM      8  C   UNL     1      44.722   5.249  11.752  0.00  0.00    +0.000 A 
ATOM      9  N   UNL     1      43.794   4.370  11.289  0.00  0.00    +0.000 NA
ATOM     10  C   UNL     1      43.962   3.154  11.689  0.00  0.00    +0.000 A 
ATOM     11  N   UNL     1      44.978   2.737  12.510  0.00  0.00    +0.000 N 
ATOM     12  C   UNL     1      45.961   3.581  12.971  0.00  0.00    +0.000 A 
ATOM     13  O   UNL     1      46.889   3.168  13.659  0.00  0.00    +0.000 OA
ATOM     14  C   UNL     1      45.810   4.962  12.560  0.00  0.00    +0.000 A 
ATOM     15  H   UNL     1      45.056   1.767  12.783  0.00  0.00    +0.000 HD
ENDBRANCH   2   5
BRANCH   1  16
ATOM     16  C   UNL     1      48.848   6.338  15.891  0.00  0.00    +0.000 C 
BRANCH  16  20
ATOM     17  C   UNL     1      49.876   5.077  19.950  0.00  0.00    +0.000 C 
ATOM     18  C   UNL     1      48.811   6.172  19.806  0.00  0.00    +0.000 C 
ATOM     19  C   UNL     1      48.742   6.769  18.401  0.00  0.00    +0.000 C 
ATOM     20  C   UNL     1      48.621   5.718  17.283  0.00  0.00    +0.000 C 
ATOM     21  C   UNL     1      49.599   4.545  17.468  0.00  0.00    +0.000 C 
ATOM     22  C   UNL     1      49.622   3.994  18.889  0.00  0.00    +0.000 C 
BRANCH  17  23
ATOM     23  C   UNL     1      51.335   5.603  19.887  0.00  0.00    +0.000 C 
BRANCH  23  25
ATOM     24  C   UNL     1      51.443   4.844  22.211  0.00  0.00    +0.000 C 
ATOM     25  N   UNL     1      52.204   5.217  21.016  0.00  0.00    +0.000 NA
ATOM     26  C   UNL     1      53.056   4.085  20.628  0.00  0.00    +0.000 C 
ENDBRANCH  23  25
ENDBRANCH  17  23
ENDBRANCH  16  20
ENDBRANCH   1  16
TORSDOF 5
ENDMDL
MODEL 8
REMARK VINA RESULT:    -5.896      2.252      3.193
REMARK INTER + INTRA:          -8.387
REMARK INTER:                  -7.684
REMARK INTRA:                  -0.703
REMARK UNBOUND:                -0.768
REMARK  Name = 
REMARK  7 active torsions:
REMARK  status: ('A' for Active; 'I' for Inactive)
REMARK    1  A    between atoms: C_1  and  N_2
REMARK    2  A    between atoms: N_2  and  C_3
REMARK    3  A    between atoms: N_2  and  C_4
REMARK    4  A    between atoms: C_4  and  C_5
REMARK    5  A    between atoms: C_8  and  C_9
REMARK    6  A    between atoms: C_9  and  N_10
REMARK    7  A    between atoms: C_11  and  C_13
REMARK                            x       y       z     vdW  Elec       q    Type
REMARK                         _______ _______ _______ _____ _____    ______ ____
ROOT
ATOM      1  N   UNL     1      48.628   7.616  14.239  0.00  0.00    +0.000 N 
ATOM      2  C   UNL     1      48.740   7.820  15.594  0.00  0.00    +0.000 C 
ATOM      3  O   UNL     1      48.492   8.902  16.120  0.00  0.00    +0.000 OA
ATOM      4  H   UNL     1      49.133   6.829  13.842  0.00  0.00    +0.000 HD
ENDROOT
BRANCH   2   5
ATOM      5  C   UNL     1      49.099   6.648  16.402  0.00  0.00    +0.000 A 
ATOM      6  C   UNL     1      50.126   6.750  17.331  0.00  0.00    +0.000 A 
ATOM      7  S   UNL     1      50.381   5.323  18.229  0.00  0.00    +0.000 S 
ATOM      8  C   UNL     1      49.165   4.501  17.369  0.00  0.00    +0.000 A 
ATOM      9  N   UNL     1      48.880   3.199  17.635  0.00  0.00    +0.000 NA
ATOM     10  C   UNL     1      47.961   2.688  16.885  0.00  0.00    +0.000 A 
ATOM     11  N   UNL     1      47.300   3.365  15.893  0.00  0.00    +0.000 N 
ATOM     12  C   UNL     1      47.526   4.693  15.615  0.00  0.00    +0.000 A 
ATOM     13  O   UNL     1      46.879   5.288  14.758  0.00  0.00    +0.000 OA
ATOM     14  C   UNL     1      48.559   5.310  16.422  0.00  0.00    +0.000 A 
ATOM     15  H   UNL     1      46.585   2.908  15.344  0.00  0.00    +0.000 HD
ENDBRANCH   2   5
BRANCH   1  16
ATOM     16  C   UNL     1      48.296   8.697  13.336  0.00  0.00    +0.000 C 
BRANCH  16  20
ATOM     17  C   UNL     1      44.879   6.617  11.569  0.00  0.00    +0.000 C 
ATOM     18  C   UNL     1      44.817   8.149  11.617  0.00  0.00    +0.000 C 
ATOM     19  C   UNL     1      45.882   8.771  12.520  0.00  0.00    +0.000 C 
ATOM     20  C   UNL     1      47.311   8.276  12.228  0.00  0.00    +0.000 C 
ATOM     21  C   UNL     1      47.383   6.749  12.058  0.00  0.00    +0.000 C 
ATOM     22  C   UNL     1      46.294   6.190  11.147  0.00  0.00    +0.000 C 
BRANCH  17  23
ATOM     23  C   UNL     1      44.448   5.926  12.891  0.00  0.00    +0.000 C 
BRANCH  23  25
ATOM     24  C   UNL     1      42.325   5.480  11.758  0.00  0.00    +0.000 C 
ATOM     25  N   UNL     1      43.264   5.049  12.796  0.00  0.00    +0.000 NA
ATOM     26  C   UNL     1      43.684   3.671  12.510  0.00  0.00    +0.000 C 
ENDBRANCH  23  25
ENDBRANCH  17  23
ENDBRANCH  16  20
ENDBRANCH   1  16
TORSDOF 5
ENDMDL
MODEL 9
REMARK VINA RESULT:    -5.843      3.266      7.739
REMARK INTER + INTRA:          -8.319
REMARK INTER:                  -7.179
REMARK INTRA:                  -1.140
REMARK UNBOUND:                -0.768
REMARK  Name = 
REMARK  7 active torsions:
REMARK  status: ('A' for Active; 'I' for Inactive)
REMARK    1  A    between atoms: C_1  and  N_2
REMARK    2  A    between atoms: N_2  and  C_3
REMARK    3  A    between atoms: N_2  and  C_4
REMARK    4  A    between atoms: C_4  and  C_5
REMARK    5  A    between atoms: C_8  and  C_9
REMARK    6  A    between atoms: C_9  and  N_10
REMARK    7  A    between atoms: C_11  and  C_13
REMARK                            x       y       z     vdW  Elec       q    Type
REMARK                         _______ _______ _______ _____ _____    ______ ____
ROOT
ATOM      1  N   UNL     1      46.964   4.416  15.938  0.00  0.00    +0.000 N 
ATOM      2  C   UNL     1      46.998   4.173  14.585  0.00  0.00    +0.000 C 
ATOM      3  O   UNL     1      47.288   3.072  14.121  0.00  0.00    +0.000 OA
ATOM      4  H   UNL     1      47.030   5.383  16.240  0.00  0.00    +0.000 HD
ENDROOT
BRANCH   2   5
ATOM      5  C   UNL     1      46.591   5.281  13.713  0.00  0.00    +0.000 A 
ATOM      6  C   UNL     1      45.410   5.180  12.990  0.00  0.00    +0.000 A 
ATOM      7  S   UNL     1      45.049   6.571  12.071  0.00  0.00    +0.000 S 
ATOM      8  C   UNL     1      46.487   7.335  12.564  0.00  0.00    +0.000 A 
ATOM      9  N   UNL     1      46.810   8.575  12.111  0.00  0.00    +0.000 NA
ATOM     10  C   UNL     1      47.945   9.021  12.535  0.00  0.00    +0.000 A 
ATOM     11  N   UNL     1      48.786   8.337  13.374  0.00  0.00    +0.000 N 
ATOM     12  C   UNL     1      48.484   7.098  13.889  0.00  0.00    +0.000 A 
ATOM     13  O   UNL     1      49.232   6.534  14.682  0.00  0.00    +0.000 OA
ATOM     14  C   UNL     1      47.224   6.547  13.432  0.00  0.00    +0.000 A 
ATOM     15  H   UNL     1      49.660   8.746  13.674  0.00  0.00    +0.000 HD
ENDBRANCH   2   5
BRANCH   1  16
ATOM     16  C   UNL     1      47.358   3.407  16.898  0.00  0.00    +0.000 C 
BRANCH  16  20
ATOM     17  C   UNL     1      49.547   6.353  19.276  0.00  0.00    +0.000 C 
ATOM     18  C   UNL     1      48.099   6.059  19.687  0.00  0.00    +0.000 C 
ATOM     19  C   UNL     1      47.317   5.273  18.634  0.00  0.00    +0.000 C 
ATOM     20  C   UNL     1      48.034   3.999  18.150  0.00  0.00    +0.000 C 
ATOM     21  C   UNL     1      49.521   4.239  17.843  0.00  0.00    +0.000 C 
ATOM     22  C   UNL     1      50.244   5.028  18.930  0.00  0.00    +0.000 C 
BRANCH  17  23
ATOM     23  C   UNL     1      49.679   7.383  18.121  0.00  0.00    +0.000 C 
BRANCH  23  25
ATOM     24  C   UNL     1      49.871   9.743  18.738  0.00  0.00    +0.000 C 
ATOM     25  N   UNL     1      48.973   8.663  18.324  0.00  0.00    +0.000 NA
ATOM     26  C   UNL     1      48.295   9.062  17.083  0.00  0.00    +0.000 C 
ENDBRANCH  23  25
ENDBRANCH  17  23
ENDBRANCH  16  20
ENDBRANCH   1  16
TORSDOF 5
ENDMDL
