MODEL 1
REMARK VINA RESULT:    -8.128      0.000      0.000
REMARK INTER + INTRA:         -13.001
REMARK INTER:                 -11.691
REMARK INTRA:                  -1.310
REMARK UNBOUND:                -1.310
REMARK  Name = 
REMARK  9 active torsions:
REMARK  status: ('A' for Active; 'I' for Inactive)
REMARK    1  A    between atoms: C_1  and  C_2
REMARK    2  A    between atoms: C_2  and  N_3
REMARK    3  A    between atoms: C_2  and  C_25
REMARK    4  A    between atoms: N_3  and  C_4
REMARK    5  A    between atoms: C_4  and  C_5
REMARK    6  A    between atoms: C_8  and  C_9
REMARK    7  A    between atoms: C_9  and  N_10
REMARK    8  A    between atoms: C_11  and  C_13
REMARK    9  A    between atoms: C_20  and  O_21
REMARK                            x       y       z     vdW  Elec       q    Type
REMARK                         _______ _______ _______ _____ _____    ______ ____
ROOT
ATOM      1  C   UNL     1      44.687   5.799  11.176  0.00  0.00    +0.000 A 
ATOM      2  C   UNL     1      46.014   5.424  11.422  0.00  0.00    +0.000 A 
ATOM      3  C   UNL     1      46.865   6.239  12.177  0.00  0.00    +0.000 A 
ATOM      4  C   UNL     1      46.407   7.453  12.705  0.00  0.00    +0.000 A 
ATOM      5  C   UNL     1      45.091   7.851  12.430  0.00  0.00    +0.000 A 
ATOM      6  C   UNL     1      44.240   7.030  11.681  0.00  0.00    +0.000 A 
ENDROOT
BRANCH   1   7
ATOM      7  C   UNL     1      43.764   4.922  10.355  0.00  0.00    +0.000 C 
BRANCH   7   8
ATOM      8  N   UNL     1      44.315   4.622   9.029  0.00  0.00    +0.000 NA
ATOM      9  H   UNL     1      43.689   5.014   8.325  0.00  0.00    +0.000 HD
BRANCH   8  11
ATOM     10  C   UNL     1      44.437   2.321  10.039  0.00  0.00    +0.000 C 
ATOM     11  C   UNL     1      44.407   3.170   8.760  0.00  0.00    +0.000 C 
BRANCH  11  12
ATOM     12  C   UNL     1      45.651   2.821   7.939  0.00  0.00    +0.000 A 
ATOM     13  C   UNL     1      46.247   1.564   8.055  0.00  0.00    +0.000 A 
ATOM     14  C   UNL     1      47.257   1.206   7.167  0.00  0.00    +0.000 A 
ATOM     15  C   UNL     1      47.673   2.120   6.210  0.00  0.00    +0.000 A 
ATOM     16  C   UNL     1      47.069   3.366   6.190  0.00  0.00    +0.000 A 
ATOM     17  N   UNL     1      46.070   3.736   7.025  0.00  0.00    +0.000 NA
ENDBRANCH  11  12
ENDBRANCH   8  11
ENDBRANCH   7   8
ENDBRANCH   1   7
BRANCH   4  18
ATOM     18  C   UNL     1      47.308   8.329  13.536  0.00  0.00    +0.000 C 
BRANCH  18  19
ATOM     19  N   UNL     1      47.774   7.643  14.711  0.00  0.00    +0.000 N 
ATOM     20  C   UNL     1      49.059   7.186  14.807  0.00  0.00    +0.000 C 
ATOM     21  O   UNL     1      49.894   7.384  13.925  0.00  0.00    +0.000 OA
ATOM     22  H   UNL     1      47.084   7.256  15.346  0.00  0.00    +0.000 HD
BRANCH  20  23
ATOM     23  C   UNL     1      49.415   6.505  16.060  0.00  0.00    +0.000 A 
ATOM     24  C   UNL     1      50.528   6.925  16.770  0.00  0.00    +0.000 A 
ATOM     25  S   UNL     1      50.771   6.074  18.223  0.00  0.00    +0.000 S 
ATOM     26  C   UNL     1      49.429   5.078  17.920  0.00  0.00    +0.000 A 
ATOM     27  N   UNL     1      49.115   4.099  18.800  0.00  0.00    +0.000 NA
ATOM     28  C   UNL     1      48.048   3.361  18.455  0.00  0.00    +0.000 A 
ATOM     29  C   UNL     1      47.288   3.537  17.321  0.00  0.00    +0.000 A 
ATOM     30  C   UNL     1      47.650   4.564  16.449  0.00  0.00    +0.000 A 
ATOM     31  C   UNL     1      48.765   5.388  16.737  0.00  0.00    +0.000 A 
BRANCH  30  32
ATOM     32  O   UNL     1      46.910   4.759  15.304  0.00  0.00    +0.000 OA
ATOM     33  H   UNL     1      45.999   4.447  15.452  0.00  0.00    +0.000 HD
ENDBRANCH  30  32
ENDBRANCH  20  23
ENDBRANCH  18  19
ENDBRANCH   4  18
TORSDOF 8
ENDMDL
MODEL 2
REMARK VINA RESULT:    -7.742      1.809      2.223
REMARK INTER + INTRA:         -12.446
REMARK INTER:                 -11.266
REMARK INTRA:                  -1.181
REMARK UNBOUND:                -1.310
REMARK  Name = 
REMARK  9 active torsions:
REMARK  status: ('A' for Active; 'I' for Inactive)
REMARK    1  A    between atoms: C_1  and  C_2
REMARK    2  A    between atoms: C_2  and  N_3
REMARK    3  A    between atoms: C_2  and  C_25
REMARK    4  A    between atoms: N_3  and  C_4
REMARK    5  A    between atoms: C_4  and  C_5
REMARK    6  A    between atoms: C_8  and  C_9
REMARK    7  A    between atoms: C_9  and  N_10
REMARK    8  A    between atoms: C_11  and  C_13
REMARK    9  A    between atoms: C_20  and  O_21
REMARK                            x       y       z     vdW  Elec       q    Type
REMARK                         _______ _______ _______ _____ _____    ______ ____
ROOT
ATOM      1  C   UNL     1      45.007   5.702  11.326  0.00  0.00    +0.000 A 
ATOM      2  C   UNL     1      45.047   7.101  11.380  0.00  0.00    +0.000 A 
ATOM      3  C   UNL     1      45.971   7.763  12.197  0.00  0.00    +0.000 A 
ATOM      4  C   UNL     1      46.878   7.040  12.981  0.00  0.00    +0.000 A 
ATOM      5  C   UNL     1      46.817   5.639  12.959  0.00  0.00    +0.000 A 
ATOM      6  C   UNL     1      45.897   4.979  12.136  0.00  0.00    +0.000 A 
ENDROOT
BRANCH   1   7
ATOM      7  C   UNL     1      44.005   4.981  10.448  0.00  0.00    +0.000 C 
BRANCH   7   8
ATOM      8  N   UNL     1      44.523   4.740   9.096  0.00  0.00    +0.000 NA
ATOM      9  H   UNL     1      43.933   5.245   8.432  0.00  0.00    +0.000 HD
BRANCH   8  11
ATOM     10  C   UNL     1      44.383   2.366   9.915  0.00  0.00    +0.000 C 
ATOM     11  C   UNL     1      44.477   3.312   8.710  0.00  0.00    +0.000 C 
BRANCH  11  12
ATOM     12  C   UNL     1      45.704   2.906   7.891  0.00  0.00    +0.000 A 
ATOM     13  C   UNL     1      46.314   1.666   8.095  0.00  0.00    +0.000 A 
ATOM     14  C   UNL     1      47.306   1.243   7.216  0.00  0.00    +0.000 A 
ATOM     15  C   UNL     1      47.691   2.078   6.177  0.00  0.00    +0.000 A 
ATOM     16  C   UNL     1      47.077   3.314   6.070  0.00  0.00    +0.000 A 
ATOM     17  N   UNL     1      46.094   3.745   6.895  0.00  0.00    +0.000 NA
ENDBRANCH  11  12
ENDBRANCH   8  11
ENDBRANCH   7   8
ENDBRANCH   1   7
BRANCH   4  18
ATOM     18  C   UNL     1      47.890   7.742  13.849  0.00  0.00    +0.000 C 
BRANCH  18  19
ATOM     19  N   UNL     1      47.919   7.192  15.178  0.00  0.00    +0.000 N 
ATOM     20  C   UNL     1      49.074   6.704  15.722  0.00  0.00    +0.000 C 
ATOM     21  O   UNL     1      50.152   6.758  15.133  0.00  0.00    +0.000 OA
ATOM     22  H   UNL     1      47.040   6.915  15.600  0.00  0.00    +0.000 HD
BRANCH  20  23
ATOM     23  C   UNL     1      48.973   6.173  17.089  0.00  0.00    +0.000 A 
ATOM     24  C   UNL     1      49.428   4.891  17.356  0.00  0.00    +0.000 A 
ATOM     25  S   UNL     1      49.294   4.447  18.992  0.00  0.00    +0.000 S 
ATOM     26  C   UNL     1      48.571   5.933  19.386  0.00  0.00    +0.000 A 
ATOM     27  N   UNL     1      48.182   6.167  20.661  0.00  0.00    +0.000 NA
ATOM     28  C   UNL     1      47.607   7.363  20.859  0.00  0.00    +0.000 A 
ATOM     29  C   UNL     1      47.406   8.321  19.891  0.00  0.00    +0.000 A 
ATOM     30  C   UNL     1      47.830   8.034  18.593  0.00  0.00    +0.000 A 
ATOM     31  C   UNL     1      48.444   6.792  18.299  0.00  0.00    +0.000 A 
BRANCH  30  32
ATOM     32  O   UNL     1      47.636   8.973  17.605  0.00  0.00    +0.000 OA
ATOM     33  H   UNL     1      48.461   9.470  17.466  0.00  0.00    +0.000 HD
ENDBRANCH  30  32
ENDBRANCH  20  23
ENDBRANCH  18  19
ENDBRANCH   4  18
TORSDOF 8
ENDMDL
MODEL 3
REMARK VINA RESULT:    -7.472      2.124      2.377
REMARK INTER + INTRA:         -12.058
REMARK INTER:                 -10.956
REMARK INTRA:                  -1.102
REMARK UNBOUND:                -1.310
REMARK  Name = 
REMARK  9 active torsions:
REMARK  status: ('A' for Active; 'I' for Inactive)
REMARK    1  A    between atoms: C_1  and  C_2
REMARK    2  A    between atoms: C_2  and  N_3
REMARK    3  A    between atoms: C_2  and  C_25
REMARK    4  A    between atoms: N_3  and  C_4
REMARK    5  A    between atoms: C_4  and  C_5
REMARK    6  A    between atoms: C_8  and  C_9
REMARK    7  A    between atoms: C_9  and  N_10
REMARK    8  A    between atoms: C_11  and  C_13
REMARK    9  A    between atoms: C_20  and  O_21
REMARK                            x       y       z     vdW  Elec       q    Type
REMARK                         _______ _______ _______ _____ _____    ______ ____
ROOT
ATOM      1  C   UNL     1      45.157   6.168  12.200  0.00  0.00    +0.000 A 
ATOM      2  C   UNL     1      46.133   5.249  12.606  0.00  0.00    +0.000 A 
ATOM      3  C   UNL     1      47.281   5.672  13.285  0.00  0.00    +0.000 A 
ATOM      4  C   UNL     1      47.481   7.028  13.575  0.00  0.00    +0.000 A 
ATOM      5  C   UNL     1      46.525   7.955  13.138  0.00  0.00    +0.000 A 
ATOM      6  C   UNL     1      45.374   7.529  12.465  0.00  0.00    +0.000 A 
ENDROOT
BRANCH   1   7
ATOM      7  C   UNL     1      43.915   5.715  11.460  0.00  0.00    +0.000 C 
BRANCH   7   8
ATOM      8  N   UNL     1      44.187   5.408  10.052  0.00  0.00    +0.000 NA
ATOM      9  H   UNL     1      43.556   5.966   9.474  0.00  0.00    +0.000 HD
BRANCH   8  11
ATOM     10  C   UNL     1      43.719   3.106  10.950  0.00  0.00    +0.000 C 
ATOM     11  C   UNL     1      43.936   3.990   9.714  0.00  0.00    +0.000 C 
BRANCH  11  12
ATOM     12  C   UNL     1      45.086   3.386   8.904  0.00  0.00    +0.000 A 
ATOM     13  C   UNL     1      45.336   2.013   8.943  0.00  0.00    +0.000 A 
ATOM     14  C   UNL     1      46.262   1.465   8.060  0.00  0.00    +0.000 A 
ATOM     15  C   UNL     1      46.940   2.301   7.184  0.00  0.00    +0.000 A 
ATOM     16  C   UNL     1      46.675   3.658   7.241  0.00  0.00    +0.000 A 
ATOM     17  N   UNL     1      45.766   4.219   8.072  0.00  0.00    +0.000 NA
ENDBRANCH  11  12
ENDBRANCH   8  11
ENDBRANCH   7   8
ENDBRANCH   1   7
BRANCH   4  18
ATOM     18  C   UNL     1      48.703   7.492  14.323  0.00  0.00    +0.000 C 
BRANCH  18  19
ATOM     19  N   UNL     1      48.423   7.690  15.720  0.00  0.00    +0.000 N 
ATOM     20  C   UNL     1      48.806   6.774  16.661  0.00  0.00    +0.000 C 
ATOM     21  O   UNL     1      49.453   5.768  16.373  0.00  0.00    +0.000 OA
ATOM     22  H   UNL     1      47.708   8.362  15.975  0.00  0.00    +0.000 HD
BRANCH  20  23
ATOM     23  C   UNL     1      48.466   7.093  18.055  0.00  0.00    +0.000 A 
ATOM     24  C   UNL     1      48.084   8.384  18.383  0.00  0.00    +0.000 A 
ATOM     25  S   UNL     1      47.669   8.577  20.021  0.00  0.00    +0.000 S 
ATOM     26  C   UNL     1      48.042   6.953  20.356  0.00  0.00    +0.000 A 
ATOM     27  N   UNL     1      47.920   6.490  21.621  0.00  0.00    +0.000 NA
ATOM     28  C   UNL     1      48.256   5.200  21.778  0.00  0.00    +0.000 A 
ATOM     29  C   UNL     1      48.688   4.361  20.775  0.00  0.00    +0.000 A 
ATOM     30  C   UNL     1      48.791   4.885  19.487  0.00  0.00    +0.000 A 
ATOM     31  C   UNL     1      48.458   6.239  19.236  0.00  0.00    +0.000 A 
BRANCH  30  32
ATOM     32  O   UNL     1      49.225   4.069  18.467  0.00  0.00    +0.000 OA
ATOM     33  H   UNL     1      48.589   3.342  18.342  0.00  0.00    +0.000 HD
ENDBRANCH  30  32
ENDBRANCH  20  23
ENDBRANCH  18  19
ENDBRANCH   4  18
TORSDOF 8
ENDMDL
MODEL 4
REMARK VINA RESULT:    -7.137      1.719      1.953
REMARK INTER + INTRA:         -11.576
REMARK INTER:                 -10.580
REMARK INTRA:                  -0.996
REMARK UNBOUND:                -1.310
REMARK  Name = 
REMARK  9 active torsions:
REMARK  status: ('A' for Active; 'I' for Inactive)
REMARK    1  A    between atoms: C_1  and  C_2
REMARK    2  A    between atoms: C_2  and  N_3
REMARK    3  A    between atoms: C_2  and  C_25
REMARK    4  A    between atoms: N_3  and  C_4
REMARK    5  A    between atoms: C_4  and  C_5
REMARK    6  A    between atoms: C_8  and  C_9
REMARK    7  A    between atoms: C_9  and  N_10
REMARK    8  A    between atoms: C_11  and  C_13
REMARK    9  A    between atoms: C_20  and  O_21
REMARK                            x       y       z     vdW  Elec       q    Type
REMARK                         _______ _______ _______ _____ _____    ______ ____
ROOT
ATOM      1  C   UNL     1      45.406   5.986  11.678  0.00  0.00    +0.000 A 
ATOM      2  C   UNL     1      46.409   5.501  12.526  0.00  0.00    +0.000 A 
ATOM      3  C   UNL     1      47.181   6.373  13.302  0.00  0.00    +0.000 A 
ATOM      4  C   UNL     1      46.966   7.756  13.248  0.00  0.00    +0.000 A 
ATOM      5  C   UNL     1      45.989   8.250  12.372  0.00  0.00    +0.000 A 
ATOM      6  C   UNL     1      45.213   7.375  11.603  0.00  0.00    +0.000 A 
ENDROOT
BRANCH   1   7
ATOM      7  C   UNL     1      44.572   5.045  10.833  0.00  0.00    +0.000 C 
BRANCH   7   8
ATOM      8  N   UNL     1      45.076   4.938   9.459  0.00  0.00    +0.000 NA
ATOM      9  H   UNL     1      44.669   5.695   8.907  0.00  0.00    +0.000 HD
BRANCH   8  11
ATOM     10  C   UNL     1      44.298   2.570   9.799  0.00  0.00    +0.000 C 
ATOM     11  C   UNL     1      44.685   3.671   8.802  0.00  0.00    +0.000 C 
BRANCH  11  12
ATOM     12  C   UNL     1      45.804   3.124   7.912  0.00  0.00    +0.000 A 
ATOM     13  C   UNL     1      46.276   1.821   8.089  0.00  0.00    +0.000 A 
ATOM     14  C   UNL     1      47.157   1.285   7.154  0.00  0.00    +0.000 A 
ATOM     15  C   UNL     1      47.571   2.068   6.087  0.00  0.00    +0.000 A 
ATOM     16  C   UNL     1      47.099   3.367   6.008  0.00  0.00    +0.000 A 
ATOM     17  N   UNL     1      46.226   3.911   6.888  0.00  0.00    +0.000 NA
ENDBRANCH  11  12
ENDBRANCH   8  11
ENDBRANCH   7   8
ENDBRANCH   1   7
BRANCH   4  18
ATOM     18  C   UNL     1      47.776   8.704  14.094  0.00  0.00    +0.000 C 
BRANCH  18  19
ATOM     19  N   UNL     1      47.990   8.180  15.416  0.00  0.00    +0.000 N 
ATOM     20  C   UNL     1      48.426   8.977  16.437  0.00  0.00    +0.000 C 
ATOM     21  O   UNL     1      48.605  10.186  16.296  0.00  0.00    +0.000 OA
ATOM     22  H   UNL     1      48.084   7.176  15.524  0.00  0.00    +0.000 HD
BRANCH  20  23
ATOM     23  C   UNL     1      48.602   8.324  17.742  0.00  0.00    +0.000 A 
ATOM     24  C   UNL     1      48.230   8.997  18.895  0.00  0.00    +0.000 A 
ATOM     25  S   UNL     1      48.443   8.086  20.315  0.00  0.00    +0.000 S 
ATOM     26  C   UNL     1      49.093   6.783  19.440  0.00  0.00    +0.000 A 
ATOM     27  N   UNL     1      49.509   5.679  20.101  0.00  0.00    +0.000 NA
ATOM     28  C   UNL     1      50.021   4.718  19.315  0.00  0.00    +0.000 A 
ATOM     29  C   UNL     1      50.136   4.785  17.945  0.00  0.00    +0.000 A 
ATOM     30  C   UNL     1      49.687   5.943  17.310  0.00  0.00    +0.000 A 
ATOM     31  C   UNL     1      49.134   7.005  18.067  0.00  0.00    +0.000 A 
BRANCH  30  32
ATOM     32  O   UNL     1      49.794   6.037  15.941  0.00  0.00    +0.000 OA
ATOM     33  H   UNL     1      49.118   6.653  15.606  0.00  0.00    +0.000 HD
ENDBRANCH  30  32
ENDBRANCH  20  23
ENDBRANCH  18  19
ENDBRANCH   4  18
TORSDOF 8
ENDMDL
MODEL 5
REMARK VINA RESULT:    -7.043      2.829      8.551
REMARK INTER + INTRA:         -11.441
REMARK INTER:                  -9.794
REMARK INTRA:                  -1.647
REMARK UNBOUND:                -1.310
REMARK  Name = 
REMARK  9 active torsions:
REMARK  status: ('A' for Active; 'I' for Inactive)
REMARK    1  A    between atoms: C_1  and  C_2
REMARK    2  A    between atoms: C_2  and  N_3
REMARK    3  A    between atoms: C_2  and  C_25
REMARK    4  A    between atoms: N_3  and  C_4
REMARK    5  A    between atoms: C_4  and  C_5
REMARK    6  A    between atoms: C_8  and  C_9
REMARK    7  A    between atoms: C_9  and  N_10
REMARK    8  A    between atoms: C_11  and  C_13
REMARK    9  A    between atoms: C_20  and  O_21
REMARK                            x       y       z     vdW  Elec       q    Type
REMARK                         _______ _______ _______ _____ _____    ______ ____
ROOT
ATOM      1  C   UNL     1      49.073   7.933  16.127  0.00  0.00    +0.000 A 
ATOM      2  C   UNL     1      48.220   8.937  15.652  0.00  0.00    +0.000 A 
ATOM      3  C   UNL     1      47.737   8.908  14.339  0.00  0.00    +0.000 A 
ATOM      4  C   UNL     1      48.097   7.871  13.468  0.00  0.00    +0.000 A 
ATOM      5  C   UNL     1      48.981   6.885  13.928  0.00  0.00    +0.000 A 
ATOM      6  C   UNL     1      49.457   6.911  15.244  0.00  0.00    +0.000 A 
ENDROOT
BRANCH   1   7
ATOM      7  C   UNL     1      49.603   7.963  17.547  0.00  0.00    +0.000 C 
BRANCH   7   8
ATOM      8  N   UNL     1      48.563   7.658  18.535  0.00  0.00    +0.000 NA
ATOM      9  H   UNL     1      48.562   8.398  19.239  0.00  0.00    +0.000 HD
BRANCH   8  11
ATOM     10  C   UNL     1      50.208   6.305  19.873  0.00  0.00    +0.000 C 
ATOM     11  C   UNL     1      48.807   6.387  19.252  0.00  0.00    +0.000 C 
BRANCH  11  12
ATOM     12  C   UNL     1      48.632   5.174  18.334  0.00  0.00    +0.000 A 
ATOM     13  C   UNL     1      49.705   4.318  18.077  0.00  0.00    +0.000 A 
ATOM     14  C   UNL     1      49.477   3.127  17.395  0.00  0.00    +0.000 A 
ATOM     15  C   UNL     1      48.195   2.833  16.956  0.00  0.00    +0.000 A 
ATOM     16  C   UNL     1      47.192   3.755  17.202  0.00  0.00    +0.000 A 
ATOM     17  N   UNL     1      47.377   4.911  17.881  0.00  0.00    +0.000 NA
ENDBRANCH  11  12
ENDBRANCH   8  11
ENDBRANCH   7   8
ENDBRANCH   1   7
BRANCH   4  18
ATOM     18  C   UNL     1      47.567   7.819  12.059  0.00  0.00    +0.000 C 
BRANCH  18  19
ATOM     19  N   UNL     1      46.885   6.580  11.797  0.00  0.00    +0.000 N 
ATOM     20  C   UNL     1      45.531   6.465  11.948  0.00  0.00    +0.000 C 
ATOM     21  O   UNL     1      44.821   7.421  12.259  0.00  0.00    +0.000 OA
ATOM     22  H   UNL     1      47.433   5.727  11.770  0.00  0.00    +0.000 HD
BRANCH  20  23
ATOM     23  C   UNL     1      44.952   5.148  11.645  0.00  0.00    +0.000 A 
ATOM     24  C   UNL     1      44.311   4.441  12.649  0.00  0.00    +0.000 A 
ATOM     25  S   UNL     1      43.648   2.964  12.126  0.00  0.00    +0.000 S 
ATOM     26  C   UNL     1      44.247   3.198  10.553  0.00  0.00    +0.000 A 
ATOM     27  N   UNL     1      44.035   2.248   9.613  0.00  0.00    +0.000 NA
ATOM     28  C   UNL     1      44.565   2.525   8.411  0.00  0.00    +0.000 A 
ATOM     29  C   UNL     1      45.269   3.664   8.093  0.00  0.00    +0.000 A 
ATOM     30  C   UNL     1      45.455   4.616   9.096  0.00  0.00    +0.000 A 
ATOM     31  C   UNL     1      44.930   4.399  10.394  0.00  0.00    +0.000 A 
BRANCH  30  32
ATOM     32  O   UNL     1      46.160   5.762   8.806  0.00  0.00    +0.000 OA
ATOM     33  H   UNL     1      46.611   5.656   7.950  0.00  0.00    +0.000 HD
ENDBRANCH  30  32
ENDBRANCH  20  23
ENDBRANCH  18  19
ENDBRANCH   4  18
TORSDOF 8
ENDMDL
MODEL 6
REMARK VINA RESULT:    -6.719      3.518      4.113
REMARK INTER + INTRA:         -10.974
REMARK INTER:                  -9.952
REMARK INTRA:                  -1.022
REMARK UNBOUND:                -1.310
REMARK  Name = 
REMARK  9 active torsions:
REMARK  status: ('A' for Active; 'I' for Inactive)
REMARK    1  A    between atoms: C_1  and  C_2
REMARK    2  A    between atoms: C_2  and  N_3
REMARK    3  A    between atoms: C_2  and  C_25
REMARK    4  A    between atoms: N_3  and  C_4
REMARK    5  A    between atoms: C_4  and  C_5
REMARK    6  A    between atoms: C_8  and  C_9
REMARK    7  A    between atoms: C_9  and  N_10
REMARK    8  A    between atoms: C_11  and  C_13
REMARK    9  A    between atoms: C_20  and  O_21
REMARK                            x       y       z     vdW  Elec       q    Type
REMARK                         _______ _______ _______ _____ _____    ______ ____
ROOT
ATOM      1  C   UNL     1      46.443   6.372  12.268  0.00  0.00    +0.000 A 
ATOM      2  C   UNL     1      47.672   6.188  12.915  0.00  0.00    +0.000 A 
ATOM      3  C   UNL     1      48.218   7.192  13.722  0.00  0.00    +0.000 A 
ATOM      4  C   UNL     1      47.545   8.408  13.902  0.00  0.00    +0.000 A 
ATOM      5  C   UNL     1      46.334   8.611  13.227  0.00  0.00    +0.000 A 
ATOM      6  C   UNL     1      45.786   7.602  12.426  0.00  0.00    +0.000 A 
ENDROOT
BRANCH   1   7
ATOM      7  C   UNL     1      45.851   5.289  11.389  0.00  0.00    +0.000 C 
BRANCH   7   8
ATOM      8  N   UNL     1      44.640   5.737  10.694  0.00  0.00    +0.000 NA
ATOM      9  H   UNL     1      44.054   6.242  11.362  0.00  0.00    +0.000 HD
BRANCH   8  11
ATOM     10  C   UNL     1      43.261   3.718  11.285  0.00  0.00    +0.000 C 
ATOM     11  C   UNL     1      43.827   4.615  10.175  0.00  0.00    +0.000 C 
BRANCH  11  12
ATOM     12  C   UNL     1      44.629   3.726   9.220  0.00  0.00    +0.000 A 
ATOM     13  C   UNL     1      45.381   4.292   8.188  0.00  0.00    +0.000 A 
ATOM     14  C   UNL     1      46.244   3.485   7.455  0.00  0.00    +0.000 A 
ATOM     15  C   UNL     1      46.312   2.129   7.742  0.00  0.00    +0.000 A 
ATOM     16  C   UNL     1      45.498   1.633   8.745  0.00  0.00    +0.000 A 
ATOM     17  N   UNL     1      44.664   2.395   9.490  0.00  0.00    +0.000 NA
ENDBRANCH  11  12
ENDBRANCH   8  11
ENDBRANCH   7   8
ENDBRANCH   1   7
BRANCH   4  18
ATOM     18  C   UNL     1      48.114   9.488  14.785  0.00  0.00    +0.000 C 
BRANCH  18  19
ATOM     19  N   UNL     1      47.736   9.299  16.160  0.00  0.00    +0.000 N 
ATOM     20  C   UNL     1      48.641   8.882  17.096  0.00  0.00    +0.000 C 
ATOM     21  O   UNL     1      49.828   8.701  16.828  0.00  0.00    +0.000 OA
ATOM     22  H   UNL     1      46.750   9.206  16.378  0.00  0.00    +0.000 HD
BRANCH  20  23
ATOM     23  C   UNL     1      48.133   8.730  18.468  0.00  0.00    +0.000 A 
ATOM     24  C   UNL     1      48.296   7.520  19.123  0.00  0.00    +0.000 A 
ATOM     25  S   UNL     1      47.706   7.524  20.718  0.00  0.00    +0.000 S 
ATOM     26  C   UNL     1      47.163   9.127  20.565  0.00  0.00    +0.000 A 
ATOM     27  N   UNL     1      46.527   9.716  21.603  0.00  0.00    +0.000 NA
ATOM     28  C   UNL     1      46.125  10.975  21.369  0.00  0.00    +0.000 A 
ATOM     29  C   UNL     1      46.319  11.670  20.196  0.00  0.00    +0.000 A 
ATOM     30  C   UNL     1      46.986  11.020  19.158  0.00  0.00    +0.000 A 
ATOM     31  C   UNL     1      47.441   9.688  19.322  0.00  0.00    +0.000 A 
BRANCH  30  32
ATOM     32  O   UNL     1      47.188  11.689  17.972  0.00  0.00    +0.000 OA
ATOM     33  H   UNL     1      46.360  12.123  17.701  0.00  0.00    +0.000 HD
ENDBRANCH  30  32
ENDBRANCH  20  23
ENDBRANCH  18  19
ENDBRANCH   4  18
TORSDOF 8
ENDMDL
MODEL 7
REMARK VINA RESULT:    -6.698      3.410      3.772
REMARK INTER + INTRA:         -10.945
REMARK INTER:                  -9.863
REMARK INTRA:                  -1.082
REMARK UNBOUND:                -1.310
REMARK  Name = 
REMARK  9 active torsions:
REMARK  status: ('A' for Active; 'I' for Inactive)
REMARK    1  A    between atoms: C_1  and  C_2
REMARK    2  A    between atoms: C_2  and  N_3
REMARK    3  A    between atoms: C_2  and  C_25
REMARK    4  A    between atoms: N_3  and  C_4
REMARK    5  A    between atoms: C_4  and  C_5
REMARK    6  A    between atoms: C_8  and  C_9
REMARK    7  A    between atoms: C_9  and  N_10
REMARK    8  A    between atoms: C_11  and  C_13
REMARK    9  A    between atoms: C_20  and  O_21
REMARK                            x       y       z     vdW  Elec       q    Type
REMARK                         _______ _______ _______ _____ _____    ______ ____
ROOT
ATOM      1  C   UNL     1      46.362   6.312  12.630  0.00  0.00    +0.000 A 
ATOM      2  C   UNL     1      47.604   6.067  13.230  0.00  0.00    +0.000 A 
ATOM      3  C   UNL     1      48.316   7.097  13.853  0.00  0.00    +0.000 A 
ATOM      4  C   UNL     1      47.803   8.400  13.891  0.00  0.00    +0.000 A 
ATOM      5  C   UNL     1      46.579   8.658  13.259  0.00  0.00    +0.000 A 
ATOM      6  C   UNL     1      45.864   7.624  12.642  0.00  0.00    +0.000 A 
ENDROOT
BRANCH   1   7
ATOM      7  C   UNL     1      45.589   5.201  11.949  0.00  0.00    +0.000 C 
BRANCH   7   8
ATOM      8  N   UNL     1      44.722   5.701  10.877  0.00  0.00    +0.000 NA
ATOM      9  H   UNL     1      43.991   6.277  11.298  0.00  0.00    +0.000 HD
BRANCH   8  11
ATOM     10  C   UNL     1      43.331   3.613  11.056  0.00  0.00    +0.000 C 
ATOM     11  C   UNL     1      44.040   4.618  10.136  0.00  0.00    +0.000 C 
BRANCH  11  12
ATOM     12  C   UNL     1      45.013   3.834   9.252  0.00  0.00    +0.000 A 
ATOM     13  C   UNL     1      45.102   2.444   9.354  0.00  0.00    +0.000 A 
ATOM     14  C   UNL     1      45.852   1.740   8.417  0.00  0.00    +0.000 A 
ATOM     15  C   UNL     1      46.522   2.437   7.423  0.00  0.00    +0.000 A 
ATOM     16  C   UNL     1      46.427   3.819   7.417  0.00  0.00    +0.000 A 
ATOM     17  N   UNL     1      45.689   4.531   8.300  0.00  0.00    +0.000 NA
ENDBRANCH  11  12
ENDBRANCH   8  11
ENDBRANCH   7   8
ENDBRANCH   1   7
BRANCH   4  18
ATOM     18  C   UNL     1      48.553   9.513  14.577  0.00  0.00    +0.000 C 
BRANCH  18  19
ATOM     19  N   UNL     1      47.966   9.837  15.850  0.00  0.00    +0.000 N 
ATOM     20  C   UNL     1      48.665   9.687  17.016  0.00  0.00    +0.000 C 
ATOM     21  O   UNL     1      49.839   9.323  17.035  0.00  0.00    +0.000 OA
ATOM     22  H   UNL     1      46.957   9.911  15.908  0.00  0.00    +0.000 HD
BRANCH  20  23
ATOM     23  C   UNL     1      47.957  10.057  18.250  0.00  0.00    +0.000 A 
ATOM     24  C   UNL     1      47.373  11.310  18.349  0.00  0.00    +0.000 A 
ATOM     25  S   UNL     1      46.546  11.562  19.814  0.00  0.00    +0.000 S 
ATOM     26  C   UNL     1      46.990  10.025  20.385  0.00  0.00    +0.000 A 
ATOM     27  N   UNL     1      46.606   9.639  21.624  0.00  0.00    +0.000 NA
ATOM     28  C   UNL     1      47.025   8.415  21.981  0.00  0.00    +0.000 A 
ATOM     29  C   UNL     1      47.777   7.569  21.199  0.00  0.00    +0.000 A 
ATOM     30  C   UNL     1      48.142   8.011  19.927  0.00  0.00    +0.000 A 
ATOM     31  C   UNL     1      47.743   9.292  19.473  0.00  0.00    +0.000 A 
BRANCH  30  32
ATOM     32  O   UNL     1      48.899   7.187  19.126  0.00  0.00    +0.000 OA
ATOM     33  H   UNL     1      49.560   6.725  19.671  0.00  0.00    +0.000 HD
ENDBRANCH  30  32
ENDBRANCH  20  23
ENDBRANCH  18  19
ENDBRANCH   4  18
TORSDOF 8
ENDMDL
MODEL 8
REMARK VINA RESULT:    -6.652      3.025      8.618
REMARK INTER + INTRA:         -10.878
REMARK INTER:                  -9.319
REMARK INTRA:                  -1.559
REMARK UNBOUND:                -1.310
REMARK  Name = 
REMARK  9 active torsions:
REMARK  status: ('A' for Active; 'I' for Inactive)
REMARK    1  A    between atoms: C_1  and  C_2
REMARK    2  A    between atoms: C_2  and  N_3
REMARK    3  A    between atoms: C_2  and  C_25
REMARK    4  A    between atoms: N_3  and  C_4
REMARK    5  A    between atoms: C_4  and  C_5
REMARK    6  A    between atoms: C_8  and  C_9
REMARK    7  A    between atoms: C_9  and  N_10
REMARK    8  A    between atoms: C_11  and  C_13
REMARK    9  A    between atoms: C_20  and  O_21
REMARK                            x       y       z     vdW  Elec       q    Type
REMARK                         _______ _______ _______ _____ _____    ______ ____
ROOT
ATOM      1  C   UNL     1      50.409   8.312  14.324  0.00  0.00    +0.000 A 
ATOM      2  C   UNL     1      49.497   9.072  15.067  0.00  0.00    +0.000 A 
ATOM      3  C   UNL     1      48.137   9.090  14.736  0.00  0.00    +0.000 A 
ATOM      4  C   UNL     1      47.656   8.345  13.652  0.00  0.00    +0.000 A 
ATOM      5  C   UNL     1      48.571   7.613  12.882  0.00  0.00    +0.000 A 
ATOM      6  C   UNL     1      49.929   7.591  13.219  0.00  0.00    +0.000 A 
ENDROOT
BRANCH   1   7
ATOM      7  C   UNL     1      51.883   8.294  14.675  0.00  0.00    +0.000 C 
BRANCH   7   8
ATOM      8  N   UNL     1      52.289   7.034  15.306  0.00  0.00    +0.000 NA
ATOM      9  H   UNL     1      51.768   6.273  14.868  0.00  0.00    +0.000 HD
BRANCH   8  11
ATOM     10  C   UNL     1      53.232   6.916  17.635  0.00  0.00    +0.000 C 
ATOM     11  C   UNL     1      51.978   6.989  16.752  0.00  0.00    +0.000 C 
BRANCH  11  12
ATOM     12  C   UNL     1      51.088   5.795  17.105  0.00  0.00    +0.000 A 
ATOM     13  C   UNL     1      49.704   5.866  16.931  0.00  0.00    +0.000 A 
ATOM     14  C   UNL     1      48.940   4.712  17.080  0.00  0.00    +0.000 A 
ATOM     15  C   UNL     1      49.566   3.526  17.431  0.00  0.00    +0.000 A 
ATOM     16  C   UNL     1      50.935   3.545  17.637  0.00  0.00    +0.000 A 
ATOM     17  N   UNL     1      51.709   4.645  17.479  0.00  0.00    +0.000 NA
ENDBRANCH  11  12
ENDBRANCH   8  11
ENDBRANCH   7   8
ENDBRANCH   1   7
BRANCH   4  18
ATOM     18  C   UNL     1      46.191   8.341  13.299  0.00  0.00    +0.000 C 
BRANCH  18  19
ATOM     19  N   UNL     1      45.724   7.013  13.002  0.00  0.00    +0.000 N 
ATOM     20  C   UNL     1      44.991   6.750  11.879  0.00  0.00    +0.000 C 
ATOM     21  O   UNL     1      44.739   7.614  11.041  0.00  0.00    +0.000 OA
ATOM     22  H   UNL     1      45.700   6.334  13.755  0.00  0.00    +0.000 HD
BRANCH  20  23
ATOM     23  C   UNL     1      44.576   5.352  11.686  0.00  0.00    +0.000 A 
ATOM     24  C   UNL     1      43.946   4.681  12.722  0.00  0.00    +0.000 A 
ATOM     25  S   UNL     1      43.481   3.095  12.322  0.00  0.00    +0.000 S 
ATOM     26  C   UNL     1      44.158   3.236  10.770  0.00  0.00    +0.000 A 
ATOM     27  N   UNL     1      44.113   2.179   9.926  0.00  0.00    +0.000 NA
ATOM     28  C   UNL     1      44.692   2.392   8.734  0.00  0.00    +0.000 A 
ATOM     29  C   UNL     1      45.292   3.566   8.337  0.00  0.00    +0.000 A 
ATOM     30  C   UNL     1      45.307   4.628   9.242  0.00  0.00    +0.000 A 
ATOM     31  C   UNL     1      44.720   4.484  10.523  0.00  0.00    +0.000 A 
BRANCH  30  32
ATOM     32  O   UNL     1      45.906   5.811   8.872  0.00  0.00    +0.000 OA
ATOM     33  H   UNL     1      46.162   5.764   7.934  0.00  0.00    +0.000 HD
ENDBRANCH  30  32
ENDBRANCH  20  23
ENDBRANCH  18  19
ENDBRANCH   4  18
TORSDOF 8
ENDMDL
MODEL 9
REMARK VINA RESULT:    -6.637      2.045      2.283
REMARK INTER + INTRA:         -10.857
REMARK INTER:                 -10.338
REMARK INTRA:                  -0.519
REMARK UNBOUND:                -1.310
REMARK  Name = 
REMARK  9 active torsions:
REMARK  status: ('A' for Active; 'I' for Inactive)
REMARK    1  A    between atoms: C_1  and  C_2
REMARK    2  A    between atoms: C_2  and  N_3
REMARK    3  A    between atoms: C_2  and  C_25
REMARK    4  A    between atoms: N_3  and  C_4
REMARK    5  A    between atoms: C_4  and  C_5
REMARK    6  A    between atoms: C_8  and  C_9
REMARK    7  A    between atoms: C_9  and  N_10
REMARK    8  A    between atoms: C_11  and  C_13
REMARK    9  A    between atoms: C_20  and  O_21
REMARK                            x       y       z     vdW  Elec       q    Type
REMARK                         _______ _______ _______ _____ _____    ______ ____
ROOT
ATOM      1  C   UNL     1      44.559   4.268  11.963  0.00  0.00    +0.000 A 
ATOM      2  C   UNL     1      45.745   4.047  12.675  0.00  0.00    +0.000 A 
ATOM      3  C   UNL     1      46.512   5.118  13.145  0.00  0.00    +0.000 A 
ATOM      4  C   UNL     1      46.110   6.440  12.913  0.00  0.00    +0.000 A 
ATOM      5  C   UNL     1      44.944   6.667  12.169  0.00  0.00    +0.000 A 
ATOM      6  C   UNL     1      44.174   5.593  11.706  0.00  0.00    +0.000 A 
ENDROOT
BRANCH   1   7
ATOM      7  C   UNL     1      43.728   3.110  11.448  0.00  0.00    +0.000 C 
BRANCH   7   8
ATOM      8  N   UNL     1      44.380   2.408  10.338  0.00  0.00    +0.000 NA
ATOM      9  H   UNL     1      45.115   1.812  10.722  0.00  0.00    +0.000 HD
BRANCH   8  11
ATOM     10  C   UNL     1      44.038   4.250   8.660  0.00  0.00    +0.000 C 
ATOM     11  C   UNL     1      45.032   3.328   9.380  0.00  0.00    +0.000 C 
BRANCH  11  12
ATOM     12  C   UNL     1      45.823   2.569   8.312  0.00  0.00    +0.000 A 
ATOM     13  C   UNL     1      46.450   3.258   7.271  0.00  0.00    +0.000 A 
ATOM     14  C   UNL     1      47.313   2.570   6.423  0.00  0.00    +0.000 A 
ATOM     15  C   UNL     1      47.505   1.209   6.611  0.00  0.00    +0.000 A 
ATOM     16  C   UNL     1      46.809   0.586   7.633  0.00  0.00    +0.000 A 
ATOM     17  N   UNL     1      45.979   1.230   8.487  0.00  0.00    +0.000 NA
ENDBRANCH  11  12
ENDBRANCH   8  11
ENDBRANCH   7   8
ENDBRANCH   1   7
BRANCH   4  18
ATOM     18  C   UNL     1      46.918   7.602  13.432  0.00  0.00    +0.000 C 
BRANCH  18  19
ATOM     19  N   UNL     1      47.951   7.166  14.334  0.00  0.00    +0.000 N 
ATOM     20  C   UNL     1      48.460   7.999  15.290  0.00  0.00    +0.000 C 
ATOM     21  O   UNL     1      48.029   9.138  15.467  0.00  0.00    +0.000 OA
ATOM     22  H   UNL     1      48.490   6.344  14.084  0.00  0.00    +0.000 HD
BRANCH  20  23
ATOM     23  C   UNL     1      49.508   7.434  16.153  0.00  0.00    +0.000 A 
ATOM     24  C   UNL     1      50.739   7.111  15.605  0.00  0.00    +0.000 A 
ATOM     25  S   UNL     1      51.858   6.522  16.742  0.00  0.00    +0.000 S 
ATOM     26  C   UNL     1      50.714   6.627  17.994  0.00  0.00    +0.000 A 
ATOM     27  N   UNL     1      51.056   6.231  19.242  0.00  0.00    +0.000 NA
ATOM     28  C   UNL     1      50.073   6.340  20.150  0.00  0.00    +0.000 A 
ATOM     29  C   UNL     1      48.804   6.813  19.900  0.00  0.00    +0.000 A 
ATOM     30  C   UNL     1      48.504   7.214  18.598  0.00  0.00    +0.000 A 
ATOM     31  C   UNL     1      49.485   7.130  17.579  0.00  0.00    +0.000 A 
BRANCH  30  32
ATOM     32  O   UNL     1      47.242   7.687  18.320  0.00  0.00    +0.000 OA
ATOM     33  H   UNL     1      46.803   7.085  17.693  0.00  0.00    +0.000 HD
ENDBRANCH  30  32
ENDBRANCH  20  23
ENDBRANCH  18  19
ENDBRANCH   4  18
TORSDOF 8
ENDMDL
