MODEL 1
REMARK VINA RESULT:    -8.579      0.000      0.000
REMARK INTER + INTRA:         -14.131
REMARK INTER:                 -12.591
REMARK INTRA:                  -1.540
REMARK UNBOUND:                -1.540
REMARK  Name = 
REMARK  9 active torsions:
REMARK  status: ('A' for Active; 'I' for Inactive)
REMARK    1  A    between atoms: C_1  and  C_2
REMARK    2  A    between atoms: C_2  and  C_3
REMARK    3  A    between atoms: C_2  and  C_14
REMARK    4  A    between atoms: C_3  and  O_4
REMARK    5  A    between atoms: O_4  and  C_5
REMARK    6  A    between atoms: C_8  and  C_9
REMARK    7  A    between atoms: C_18  and  C_19
REMARK    8  A    between atoms: C_24  and  O_25
REMARK    9  A    between atoms: O_25  and  C_26
REMARK                            x       y       z     vdW  Elec       q    Type
REMARK                         _______ _______ _______ _____ _____    ______ ____
ROOT
ATOM      1  C   UNL     1      45.800   4.867  12.624  0.00  0.00    +0.000 A 
ATOM      2  C   UNL     1      46.200   4.288  13.836  0.00  0.00    +0.000 A 
ATOM      3  C   UNL     1      47.180   4.893  14.612  0.00  0.00    +0.000 A 
ATOM      4  C   UNL     1      47.790   6.070  14.180  0.00  0.00    +0.000 A 
ATOM      5  C   UNL     1      47.461   6.667  12.946  0.00  0.00    +0.000 A 
ATOM      6  C   UNL     1      46.447   6.043  12.194  0.00  0.00    +0.000 A 
ENDROOT
BRANCH   5   7
ATOM      7  C   UNL     1      48.245   7.820  12.410  0.00  0.00    +0.000 A 
ATOM      8  C   UNL     1      49.577   7.590  11.993  0.00  0.00    +0.000 A 
ATOM      9  C   UNL     1      50.353   8.583  11.396  0.00  0.00    +0.000 A 
ATOM     10  C   UNL     1      49.796   9.824  11.141  0.00  0.00    +0.000 A 
ATOM     11  C   UNL     1      48.484  10.089  11.532  0.00  0.00    +0.000 A 
ATOM     12  C   UNL     1      47.730   9.132  12.228  0.00  0.00    +0.000 A 
BRANCH  12  13
ATOM     13  O   UNL     1      46.491   9.394  12.746  0.00  0.00    +0.000 OA
BRANCH  13  14
ATOM     14  C   UNL     1      45.408   9.684  11.874  0.00  0.00    +0.000 C 
ATOM     15  F   UNL     1      45.670  10.659  10.978  0.00  0.00    +0.000 F 
ATOM     16  F   UNL     1      45.047   8.563  11.210  0.00  0.00    +0.000 F 
ATOM     17  F   UNL     1      44.352  10.087  12.616  0.00  0.00    +0.000 F 
ENDBRANCH  13  14
ENDBRANCH  12  13
ENDBRANCH   5   7
BRANCH   1  19
ATOM     18  C   UNL     1      43.705   3.509  12.580  0.00  0.00    +0.000 C 
ATOM     19  C   UNL     1      44.748   4.232  11.723  0.00  0.00    +0.000 C 
BRANCH  19  20
ATOM     20  C   UNL     1      44.087   5.244  10.774  0.00  0.00    +0.000 C 
BRANCH  20  21
ATOM     21  O   UNL     1      43.610   4.603   9.584  0.00  0.00    +0.000 OA
BRANCH  21  22
ATOM     22  C   UNL     1      44.632   3.946   8.925  0.00  0.00    +0.000 A 
ATOM     23  C   UNL     1      44.685   2.568   9.039  0.00  0.00    +0.000 A 
ATOM     24  C   UNL     1      45.706   1.891   8.369  0.00  0.00    +0.000 A 
ATOM     25  C   UNL     1      46.638   2.608   7.609  0.00  0.00    +0.000 A 
ATOM     26  C   UNL     1      46.498   3.984   7.566  0.00  0.00    +0.000 A 
ATOM     27  N   UNL     1      45.519   4.667   8.204  0.00  0.00    +0.000 NA
BRANCH  25  28
ATOM     28  C   UNL     1      47.716   1.886   6.899  0.00  0.00    +0.000 C 
ATOM     29  N   UNL     1      48.679   2.598   6.240  0.00  0.00    +0.000 N 
ATOM     30  O   UNL     1      47.752   0.665   6.880  0.00  0.00    +0.000 OA
ATOM     31  H   UNL     1      48.745   3.604   6.169  0.00  0.00    +0.000 HD
ATOM     32  H   UNL     1      49.391   2.046   5.767  0.00  0.00    +0.000 HD
ENDBRANCH  25  28
ENDBRANCH  21  22
ENDBRANCH  20  21
ENDBRANCH  19  20
ENDBRANCH   1  19
TORSDOF 8
ENDMDL
MODEL 2
REMARK VINA RESULT:    -8.550      3.302      4.566
REMARK INTER + INTRA:         -14.088
REMARK INTER:                 -12.416
REMARK INTRA:                  -1.672
REMARK UNBOUND:                -1.540
REMARK  Name = 
REMARK  9 active torsions:
REMARK  status: ('A' for Active; 'I' for Inactive)
REMARK    1  A    between atoms: C_1  and  C_2
REMARK    2  A    between atoms: C_2  and  C_3
REMARK    3  A    between atoms: C_2  and  C_14
REMARK    4  A    between atoms: C_3  and  O_4
REMARK    5  A    between atoms: O_4  and  C_5
REMARK    6  A    between atoms: C_8  and  C_9
REMARK    7  A    between atoms: C_18  and  C_19
REMARK    8  A    between atoms: C_24  and  O_25
REMARK    9  A    between atoms: O_25  and  C_26
REMARK                            x       y       z     vdW  Elec       q    Type
REMARK                         _______ _______ _______ _____ _____    ______ ____
ROOT
ATOM      1  C   UNL     1      46.987   6.051  12.497  0.00  0.00    +0.000 A 
ATOM      2  C   UNL     1      47.713   6.886  11.636  0.00  0.00    +0.000 A 
ATOM      3  C   UNL     1      48.782   7.631  12.118  0.00  0.00    +0.000 A 
ATOM      4  C   UNL     1      49.128   7.570  13.467  0.00  0.00    +0.000 A 
ATOM      5  C   UNL     1      48.401   6.785  14.386  0.00  0.00    +0.000 A 
ATOM      6  C   UNL     1      47.338   6.024  13.862  0.00  0.00    +0.000 A 
ENDROOT
BRANCH   5   7
ATOM      7  C   UNL     1      48.663   6.868  15.854  0.00  0.00    +0.000 A 
ATOM      8  C   UNL     1      48.744   8.148  16.449  0.00  0.00    +0.000 A 
ATOM      9  C   UNL     1      48.895   8.322  17.825  0.00  0.00    +0.000 A 
ATOM     10  C   UNL     1      48.906   7.214  18.656  0.00  0.00    +0.000 A 
ATOM     11  C   UNL     1      48.822   5.935  18.108  0.00  0.00    +0.000 A 
ATOM     12  C   UNL     1      48.778   5.746  16.718  0.00  0.00    +0.000 A 
BRANCH  12  13
ATOM     13  O   UNL     1      48.830   4.510  16.133  0.00  0.00    +0.000 OA
BRANCH  13  14
ATOM     14  C   UNL     1      47.804   3.562  16.393  0.00  0.00    +0.000 C 
ATOM     15  F   UNL     1      48.018   2.808  17.493  0.00  0.00    +0.000 F 
ATOM     16  F   UNL     1      46.618   4.199  16.522  0.00  0.00    +0.000 F 
ATOM     17  F   UNL     1      47.714   2.723  15.337  0.00  0.00    +0.000 F 
ENDBRANCH  13  14
ENDBRANCH  12  13
ENDBRANCH   5   7
BRANCH   1  19
ATOM     18  C   UNL     1      44.828   5.009  13.195  0.00  0.00    +0.000 C 
ATOM     19  C   UNL     1      45.792   5.234  12.025  0.00  0.00    +0.000 C 
BRANCH  19  20
ATOM     20  C   UNL     1      45.073   5.869  10.824  0.00  0.00    +0.000 C 
BRANCH  20  21
ATOM     21  O   UNL     1      44.283   4.900  10.121  0.00  0.00    +0.000 OA
BRANCH  21  22
ATOM     22  C   UNL     1      45.065   4.132   9.279  0.00  0.00    +0.000 A 
ATOM     23  C   UNL     1      45.011   2.758   9.432  0.00  0.00    +0.000 A 
ATOM     24  C   UNL     1      45.787   1.970   8.580  0.00  0.00    +0.000 A 
ATOM     25  C   UNL     1      46.589   2.576   7.606  0.00  0.00    +0.000 A 
ATOM     26  C   UNL     1      46.575   3.957   7.541  0.00  0.00    +0.000 A 
ATOM     27  N   UNL     1      45.833   4.747   8.353  0.00  0.00    +0.000 NA
BRANCH  25  28
ATOM     28  C   UNL     1      47.408   1.736   6.704  0.00  0.00    +0.000 C 
ATOM     29  N   UNL     1      48.452   2.301   6.026  0.00  0.00    +0.000 N 
ATOM     30  O   UNL     1      47.157   0.551   6.545  0.00  0.00    +0.000 OA
ATOM     31  H   UNL     1      48.744   3.267   6.062  0.00  0.00    +0.000 HD
ATOM     32  H   UNL     1      48.974   1.674   5.418  0.00  0.00    +0.000 HD
ENDBRANCH  25  28
ENDBRANCH  21  22
ENDBRANCH  20  21
ENDBRANCH  19  20
ENDBRANCH   1  19
TORSDOF 8
ENDMDL
MODEL 3
REMARK VINA RESULT:    -8.297      2.271      2.972
REMARK INTER + INTRA:         -13.718
REMARK INTER:                 -12.191
REMARK INTRA:                  -1.526
REMARK UNBOUND:                -1.540
REMARK  Name = 
REMARK  9 active torsions:
REMARK  status: ('A' for Active; 'I' for Inactive)
REMARK    1  A    between atoms: C_1  and  C_2
REMARK    2  A    between atoms: C_2  and  C_3
REMARK    3  A    between atoms: C_2  and  C_14
REMARK    4  A    between atoms: C_3  and  O_4
REMARK    5  A    between atoms: O_4  and  C_5
REMARK    6  A    between atoms: C_8  and  C_9
REMARK    7  A    between atoms: C_18  and  C_19
REMARK    8  A    between atoms: C_24  and  O_25
REMARK    9  A    between atoms: O_25  and  C_26
REMARK                            x       y       z     vdW  Elec       q    Type
REMARK                         _______ _______ _______ _____ _____    ______ ____
ROOT
ATOM      1  C   UNL     1      45.746   6.269  11.824  0.00  0.00    +0.000 A 
ATOM      2  C   UNL     1      44.755   7.234  12.052  0.00  0.00    +0.000 A 
ATOM      3  C   UNL     1      45.102   8.567  12.237  0.00  0.00    +0.000 A 
ATOM      4  C   UNL     1      46.442   8.951  12.219  0.00  0.00    +0.000 A 
ATOM      5  C   UNL     1      47.482   8.013  12.044  0.00  0.00    +0.000 A 
ATOM      6  C   UNL     1      47.095   6.676  11.836  0.00  0.00    +0.000 A 
ENDROOT
BRANCH   5   7
ATOM      7  C   UNL     1      48.914   8.405  12.209  0.00  0.00    +0.000 A 
ATOM      8  C   UNL     1      49.408   9.481  11.437  0.00  0.00    +0.000 A 
ATOM      9  C   UNL     1      50.704   9.975  11.590  0.00  0.00    +0.000 A 
ATOM     10  C   UNL     1      51.525   9.444  12.569  0.00  0.00    +0.000 A 
ATOM     11  C   UNL     1      51.073   8.385  13.355  0.00  0.00    +0.000 A 
ATOM     12  C   UNL     1      49.810   7.811  13.137  0.00  0.00    +0.000 A 
BRANCH  12  13
ATOM     13  O   UNL     1      49.380   6.690  13.793  0.00  0.00    +0.000 OA
BRANCH  13  14
ATOM     14  C   UNL     1      48.876   6.796  15.116  0.00  0.00    +0.000 C 
ATOM     15  F   UNL     1      48.309   7.989  15.395  0.00  0.00    +0.000 F 
ATOM     16  F   UNL     1      47.970   5.817  15.338  0.00  0.00    +0.000 F 
ATOM     17  F   UNL     1      49.900   6.622  15.983  0.00  0.00    +0.000 F 
ENDBRANCH  13  14
ENDBRANCH  12  13
ENDBRANCH   5   7
BRANCH   1  19
ATOM     18  C   UNL     1      45.822   4.017  12.900  0.00  0.00    +0.000 C 
ATOM     19  C   UNL     1      45.420   4.793  11.641  0.00  0.00    +0.000 C 
BRANCH  19  20
ATOM     20  C   UNL     1      43.946   4.548  11.282  0.00  0.00    +0.000 C 
BRANCH  20  21
ATOM     21  O   UNL     1      43.725   4.700   9.873  0.00  0.00    +0.000 OA
BRANCH  21  22
ATOM     22  C   UNL     1      44.654   3.986   9.141  0.00  0.00    +0.000 A 
ATOM     23  C   UNL     1      44.681   2.612   9.307  0.00  0.00    +0.000 A 
ATOM     24  C   UNL     1      45.607   1.877   8.564  0.00  0.00    +0.000 A 
ATOM     25  C   UNL     1      46.475   2.534   7.683  0.00  0.00    +0.000 A 
ATOM     26  C   UNL     1      46.371   3.910   7.598  0.00  0.00    +0.000 A 
ATOM     27  N   UNL     1      45.482   4.649   8.304  0.00  0.00    +0.000 NA
BRANCH  25  28
ATOM     28  C   UNL     1      47.453   1.750   6.898  0.00  0.00    +0.000 C 
ATOM     29  N   UNL     1      48.490   2.395   6.284  0.00  0.00    +0.000 N 
ATOM     30  O   UNL     1      47.341   0.539   6.778  0.00  0.00    +0.000 OA
ATOM     31  H   UNL     1      48.677   3.388   6.296  0.00  0.00    +0.000 HD
ATOM     32  H   UNL     1      49.127   1.804   5.755  0.00  0.00    +0.000 HD
ENDBRANCH  25  28
ENDBRANCH  21  22
ENDBRANCH  20  21
ENDBRANCH  19  20
ENDBRANCH   1  19
TORSDOF 8
ENDMDL
MODEL 4
REMARK VINA RESULT:    -8.273      2.807      4.294
REMARK INTER + INTRA:         -13.682
REMARK INTER:                 -12.289
REMARK INTRA:                  -1.393
REMARK UNBOUND:                -1.540
REMARK  Name = 
REMARK  9 active torsions:
REMARK  status: ('A' for Active; 'I' for Inactive)
REMARK    1  A    between atoms: C_1  and  C_2
REMARK    2  A    between atoms: C_2  and  C_3
REMARK    3  A    between atoms: C_2  and  C_14
REMARK    4  A    between atoms: C_3  and  O_4
REMARK    5  A    between atoms: O_4  and  C_5
REMARK    6  A    between atoms: C_8  and  C_9
REMARK    7  A    between atoms: C_18  and  C_19
REMARK    8  A    between atoms: C_24  and  O_25
REMARK    9  A    between atoms: O_25  and  C_26
REMARK                            x       y       z     vdW  Elec       q    Type
REMARK                         _______ _______ _______ _____ _____    ______ ____
ROOT
ATOM      1  C   UNL     1      45.167   4.969  12.739  0.00  0.00    +0.000 A 
ATOM      2  C   UNL     1      45.761   5.908  11.884  0.00  0.00    +0.000 A 
ATOM      3  C   UNL     1      47.023   6.414  12.167  0.00  0.00    +0.000 A 
ATOM      4  C   UNL     1      47.700   6.008  13.317  0.00  0.00    +0.000 A 
ATOM      5  C   UNL     1      47.127   5.105  14.236  0.00  0.00    +0.000 A 
ATOM      6  C   UNL     1      45.858   4.593  13.909  0.00  0.00    +0.000 A 
ENDROOT
BRANCH   5   7
ATOM      7  C   UNL     1      47.779   4.819  15.550  0.00  0.00    +0.000 A 
ATOM      8  C   UNL     1      47.702   3.505  16.065  0.00  0.00    +0.000 A 
ATOM      9  C   UNL     1      48.357   3.124  17.237  0.00  0.00    +0.000 A 
ATOM     10  C   UNL     1      49.163   4.037  17.896  0.00  0.00    +0.000 A 
ATOM     11  C   UNL     1      49.269   5.342  17.416  0.00  0.00    +0.000 A 
ATOM     12  C   UNL     1      48.530   5.764  16.299  0.00  0.00    +0.000 A 
BRANCH  12  13
ATOM     13  O   UNL     1      48.501   7.064  15.875  0.00  0.00    +0.000 OA
BRANCH  13  14
ATOM     14  C   UNL     1      49.718   7.749  15.614  0.00  0.00    +0.000 C 
ATOM     15  F   UNL     1      50.277   8.313  16.705  0.00  0.00    +0.000 F 
ATOM     16  F   UNL     1      50.607   6.898  15.055  0.00  0.00    +0.000 F 
ATOM     17  F   UNL     1      49.473   8.739  14.726  0.00  0.00    +0.000 F 
ENDBRANCH  13  14
ENDBRANCH  12  13
ENDBRANCH   5   7
BRANCH   1  19
ATOM     18  C   UNL     1      42.876   5.491  11.894  0.00  0.00    +0.000 C 
ATOM     19  C   UNL     1      43.775   4.403  12.489  0.00  0.00    +0.000 C 
BRANCH  19  20
ATOM     20  C   UNL     1      43.794   3.148  11.602  0.00  0.00    +0.000 C 
BRANCH  20  21
ATOM     21  O   UNL     1      43.401   3.458  10.258  0.00  0.00    +0.000 OA
BRANCH  21  22
ATOM     22  C   UNL     1      44.405   3.148   9.359  0.00  0.00    +0.000 A 
ATOM     23  C   UNL     1      44.973   4.193   8.651  0.00  0.00    +0.000 A 
ATOM     24  C   UNL     1      45.996   3.896   7.748  0.00  0.00    +0.000 A 
ATOM     25  C   UNL     1      46.418   2.571   7.581  0.00  0.00    +0.000 A 
ATOM     26  C   UNL     1      45.779   1.602   8.334  0.00  0.00    +0.000 A 
ATOM     27  N   UNL     1      44.785   1.859   9.217  0.00  0.00    +0.000 NA
BRANCH  25  28
ATOM     28  C   UNL     1      47.503   2.262   6.625  0.00  0.00    +0.000 C 
ATOM     29  N   UNL     1      47.508   2.864   5.398  0.00  0.00    +0.000 N 
ATOM     30  O   UNL     1      48.387   1.467   6.909  0.00  0.00    +0.000 OA
ATOM     31  H   UNL     1      46.827   3.520   5.044  0.00  0.00    +0.000 HD
ATOM     32  H   UNL     1      48.277   2.608   4.783  0.00  0.00    +0.000 HD
ENDBRANCH  25  28
ENDBRANCH  21  22
ENDBRANCH  20  21
ENDBRANCH  19  20
ENDBRANCH   1  19
TORSDOF 8
ENDMDL
MODEL 5
REMARK VINA RESULT:    -8.094      3.788      7.495
REMARK INTER + INTRA:         -13.419
REMARK INTER:                 -11.353
REMARK INTRA:                  -2.066
REMARK UNBOUND:                -1.540
REMARK  Name = 
REMARK  9 active torsions:
REMARK  status: ('A' for Active; 'I' for Inactive)
REMARK    1  A    between atoms: C_1  and  C_2
REMARK    2  A    between atoms: C_2  and  C_3
REMARK    3  A    between atoms: C_2  and  C_14
REMARK    4  A    between atoms: C_3  and  O_4
REMARK    5  A    between atoms: O_4  and  C_5
REMARK    6  A    between atoms: C_8  and  C_9
REMARK    7  A    between atoms: C_18  and  C_19
REMARK    8  A    between atoms: C_24  and  O_25
REMARK    9  A    between atoms: O_25  and  C_26
REMARK                            x       y       z     vdW  Elec       q    Type
REMARK                         _______ _______ _______ _____ _____    ______ ____
ROOT
ATOM      1  C   UNL     1      47.284   7.779  11.922  0.00  0.00    +0.000 A 
ATOM      2  C   UNL     1      46.189   8.579  12.278  0.00  0.00    +0.000 A 
ATOM      3  C   UNL     1      44.893   8.145  12.030  0.00  0.00    +0.000 A 
ATOM      4  C   UNL     1      44.672   6.918  11.406  0.00  0.00    +0.000 A 
ATOM      5  C   UNL     1      45.738   6.097  10.982  0.00  0.00    +0.000 A 
ATOM      6  C   UNL     1      47.038   6.555  11.268  0.00  0.00    +0.000 A 
ENDROOT
BRANCH   5   7
ATOM      7  C   UNL     1      45.494   4.878  10.154  0.00  0.00    +0.000 A 
ATOM      8  C   UNL     1      45.692   4.966   8.757  0.00  0.00    +0.000 A 
ATOM      9  C   UNL     1      45.577   3.858   7.917  0.00  0.00    +0.000 A 
ATOM     10  C   UNL     1      45.323   2.611   8.462  0.00  0.00    +0.000 A 
ATOM     11  C   UNL     1      45.127   2.482   9.836  0.00  0.00    +0.000 A 
ATOM     12  C   UNL     1      45.134   3.607  10.677  0.00  0.00    +0.000 A 
BRANCH  12  13
ATOM     13  O   UNL     1      44.817   3.544  12.006  0.00  0.00    +0.000 OA
BRANCH  13  14
ATOM     14  C   UNL     1      43.461   3.391  12.401  0.00  0.00    +0.000 C 
ATOM     15  F   UNL     1      43.165   3.971  13.584  0.00  0.00    +0.000 F 
ATOM     16  F   UNL     1      42.649   3.898  11.447  0.00  0.00    +0.000 F 
ATOM     17  F   UNL     1      43.193   2.070  12.519  0.00  0.00    +0.000 F 
ENDBRANCH  13  14
ENDBRANCH  12  13
ENDBRANCH   5   7
BRANCH   1  19
ATOM     18  C   UNL     1      48.749   9.672  12.634  0.00  0.00    +0.000 C 
ATOM     19  C   UNL     1      48.725   8.220  12.148  0.00  0.00    +0.000 C 
BRANCH  19  20
ATOM     20  C   UNL     1      49.485   7.295  13.111  0.00  0.00    +0.000 C 
BRANCH  20  21
ATOM     21  O   UNL     1      49.315   7.713  14.473  0.00  0.00    +0.000 OA
BRANCH  21  22
ATOM     22  C   UNL     1      48.857   6.675  15.261  0.00  0.00    +0.000 A 
ATOM     23  C   UNL     1      49.320   6.609  16.564  0.00  0.00    +0.000 A 
ATOM     24  C   UNL     1      48.856   5.572  17.376  0.00  0.00    +0.000 A 
ATOM     25  C   UNL     1      47.949   4.636  16.864  0.00  0.00    +0.000 A 
ATOM     26  C   UNL     1      47.555   4.789  15.546  0.00  0.00    +0.000 A 
ATOM     27  N   UNL     1      47.987   5.784  14.736  0.00  0.00    +0.000 NA
BRANCH  25  28
ATOM     28  C   UNL     1      47.459   3.540  17.728  0.00  0.00    +0.000 C 
ATOM     29  N   UNL     1      48.080   3.300  18.922  0.00  0.00    +0.000 N 
ATOM     30  O   UNL     1      46.519   2.839  17.386  0.00  0.00    +0.000 OA
ATOM     31  H   UNL     1      48.873   3.797  19.302  0.00  0.00    +0.000 HD
ATOM     32  H   UNL     1      47.701   2.531  19.470  0.00  0.00    +0.000 HD
ENDBRANCH  25  28
ENDBRANCH  21  22
ENDBRANCH  20  21
ENDBRANCH  19  20
ENDBRANCH   1  19
TORSDOF 8
ENDMDL
MODEL 6
REMARK VINA RESULT:    -8.044      2.279      3.249
REMARK INTER + INTRA:         -13.346
REMARK INTER:                 -12.026
REMARK INTRA:                  -1.320
REMARK UNBOUND:                -1.540
REMARK  Name = 
REMARK  9 active torsions:
REMARK  status: ('A' for Active; 'I' for Inactive)
REMARK    1  A    between atoms: C_1  and  C_2
REMARK    2  A    between atoms: C_2  and  C_3
REMARK    3  A    between atoms: C_2  and  C_14
REMARK    4  A    between atoms: C_3  and  O_4
REMARK    5  A    between atoms: O_4  and  C_5
REMARK    6  A    between atoms: C_8  and  C_9
REMARK    7  A    between atoms: C_18  and  C_19
REMARK    8  A    between atoms: C_24  and  O_25
REMARK    9  A    between atoms: O_25  and  C_26
REMARK                            x       y       z     vdW  Elec       q    Type
REMARK                         _______ _______ _______ _____ _____    ______ ____
ROOT
ATOM      1  C   UNL     1      45.718   5.924  12.138  0.00  0.00    +0.000 A 
ATOM      2  C   UNL     1      44.996   7.116  11.984  0.00  0.00    +0.000 A 
ATOM      3  C   UNL     1      45.468   8.299  12.537  0.00  0.00    +0.000 A 
ATOM      4  C   UNL     1      46.654   8.306  13.270  0.00  0.00    +0.000 A 
ATOM      5  C   UNL     1      47.394   7.127  13.498  0.00  0.00    +0.000 A 
ATOM      6  C   UNL     1      46.901   5.949  12.904  0.00  0.00    +0.000 A 
ENDROOT
BRANCH   5   7
ATOM      7  C   UNL     1      48.559   7.111  14.433  0.00  0.00    +0.000 A 
ATOM      8  C   UNL     1      48.510   6.249  15.552  0.00  0.00    +0.000 A 
ATOM      9  C   UNL     1      49.586   6.100  16.427  0.00  0.00    +0.000 A 
ATOM     10  C   UNL     1      50.771   6.767  16.170  0.00  0.00    +0.000 A 
ATOM     11  C   UNL     1      50.862   7.623  15.073  0.00  0.00    +0.000 A 
ATOM     12  C   UNL     1      49.751   7.862  14.248  0.00  0.00    +0.000 A 
BRANCH  12  13
ATOM     13  O   UNL     1      49.756   8.791  13.245  0.00  0.00    +0.000 OA
BRANCH  13  14
ATOM     14  C   UNL     1      50.312   8.462  11.980  0.00  0.00    +0.000 C 
ATOM     15  F   UNL     1      50.152   7.168  11.629  0.00  0.00    +0.000 F 
ATOM     16  F   UNL     1      49.766   9.247  11.025  0.00  0.00    +0.000 F 
ATOM     17  F   UNL     1      51.641   8.711  12.015  0.00  0.00    +0.000 F 
ENDBRANCH  13  14
ENDBRANCH  12  13
ENDBRANCH   5   7
BRANCH   1  19
ATOM     18  C   UNL     1      45.507   3.476  12.582  0.00  0.00    +0.000 C 
ATOM     19  C   UNL     1      45.231   4.596  11.574  0.00  0.00    +0.000 C 
BRANCH  19  20
ATOM     20  C   UNL     1      43.749   4.629  11.168  0.00  0.00    +0.000 C 
BRANCH  20  21
ATOM     21  O   UNL     1      43.605   4.739   9.745  0.00  0.00    +0.000 OA
BRANCH  21  22
ATOM     22  C   UNL     1      44.549   3.975   9.086  0.00  0.00    +0.000 A 
ATOM     23  C   UNL     1      44.503   2.604   9.269  0.00  0.00    +0.000 A 
ATOM     24  C   UNL     1      45.444   1.819   8.600  0.00  0.00    +0.000 A 
ATOM     25  C   UNL     1      46.397   2.424   7.772  0.00  0.00    +0.000 A 
ATOM     26  C   UNL     1      46.359   3.802   7.663  0.00  0.00    +0.000 A 
ATOM     27  N   UNL     1      45.460   4.589   8.299  0.00  0.00    +0.000 NA
BRANCH  25  28
ATOM     28  C   UNL     1      47.390   1.588   7.063  0.00  0.00    +0.000 C 
ATOM     29  N   UNL     1      48.465   2.184   6.465  0.00  0.00    +0.000 N 
ATOM     30  O   UNL     1      47.258   0.375   6.992  0.00  0.00    +0.000 OA
ATOM     31  H   UNL     1      48.671   3.172   6.441  0.00  0.00    +0.000 HD
ATOM     32  H   UNL     1      49.110   1.557   5.990  0.00  0.00    +0.000 HD
ENDBRANCH  25  28
ENDBRANCH  21  22
ENDBRANCH  20  21
ENDBRANCH  19  20
ENDBRANCH   1  19
TORSDOF 8
ENDMDL
MODEL 7
REMARK VINA RESULT:    -8.031      2.067      2.243
REMARK INTER + INTRA:         -13.326
REMARK INTER:                 -11.561
REMARK INTRA:                  -1.765
REMARK UNBOUND:                -1.540
REMARK  Name = 
REMARK  9 active torsions:
REMARK  status: ('A' for Active; 'I' for Inactive)
REMARK    1  A    between atoms: C_1  and  C_2
REMARK    2  A    between atoms: C_2  and  C_3
REMARK    3  A    between atoms: C_2  and  C_14
REMARK    4  A    between atoms: C_3  and  O_4
REMARK    5  A    between atoms: O_4  and  C_5
REMARK    6  A    between atoms: C_8  and  C_9
REMARK    7  A    between atoms: C_18  and  C_19
REMARK    8  A    between atoms: C_24  and  O_25
REMARK    9  A    between atoms: O_25  and  C_26
REMARK                            x       y       z     vdW  Elec       q    Type
REMARK                         _______ _______ _______ _____ _____    ______ ____
ROOT
ATOM      1  C   UNL     1      45.692   5.043  13.080  0.00  0.00    +0.000 A 
ATOM      2  C   UNL     1      46.107   4.297  14.191  0.00  0.00    +0.000 A 
ATOM      3  C   UNL     1      47.222   4.688  14.922  0.00  0.00    +0.000 A 
ATOM      4  C   UNL     1      47.950   5.815  14.541  0.00  0.00    +0.000 A 
ATOM      5  C   UNL     1      47.605   6.572  13.403  0.00  0.00    +0.000 A 
ATOM      6  C   UNL     1      46.457   6.164  12.698  0.00  0.00    +0.000 A 
ENDROOT
BRANCH   5   7
ATOM      7  C   UNL     1      48.493   7.663  12.901  0.00  0.00    +0.000 A 
ATOM      8  C   UNL     1      49.358   7.380  11.818  0.00  0.00    +0.000 A 
ATOM      9  C   UNL     1      50.154   8.359  11.225  0.00  0.00    +0.000 A 
ATOM     10  C   UNL     1      50.062   9.670  11.659  0.00  0.00    +0.000 A 
ATOM     11  C   UNL     1      49.217   9.991  12.720  0.00  0.00    +0.000 A 
ATOM     12  C   UNL     1      48.491   8.996  13.394  0.00  0.00    +0.000 A 
BRANCH  12  13
ATOM     13  O   UNL     1      47.755   9.245  14.520  0.00  0.00    +0.000 OA
BRANCH  13  14
ATOM     14  C   UNL     1      48.412   9.425  15.766  0.00  0.00    +0.000 C 
ATOM     15  F   UNL     1      47.595   9.330  16.837  0.00  0.00    +0.000 F 
ATOM     16  F   UNL     1      49.406   8.518  15.892  0.00  0.00    +0.000 F 
ATOM     17  F   UNL     1      48.967  10.658  15.788  0.00  0.00    +0.000 F 
ENDBRANCH  13  14
ENDBRANCH  12  13
ENDBRANCH   5   7
BRANCH   1  19
ATOM     18  C   UNL     1      43.208   4.780  13.054  0.00  0.00    +0.000 C 
ATOM     19  C   UNL     1      44.493   4.643  12.230  0.00  0.00    +0.000 C 
BRANCH  19  20
ATOM     20  C   UNL     1      44.402   5.438  10.917  0.00  0.00    +0.000 C 
BRANCH  20  21
ATOM     21  O   UNL     1      43.765   4.668   9.889  0.00  0.00    +0.000 OA
BRANCH  21  22
ATOM     22  C   UNL     1      44.692   3.957   9.150  0.00  0.00    +0.000 A 
ATOM     23  C   UNL     1      44.709   2.581   9.301  0.00  0.00    +0.000 A 
ATOM     24  C   UNL     1      45.633   1.849   8.552  0.00  0.00    +0.000 A 
ATOM     25  C   UNL     1      46.506   2.510   7.680  0.00  0.00    +0.000 A 
ATOM     26  C   UNL     1      46.410   3.888   7.609  0.00  0.00    +0.000 A 
ATOM     27  N   UNL     1      45.525   4.625   8.322  0.00  0.00    +0.000 NA
BRANCH  25  28
ATOM     28  C   UNL     1      47.481   1.730   6.887  0.00  0.00    +0.000 C 
ATOM     29  N   UNL     1      48.550   2.368   6.323  0.00  0.00    +0.000 N 
ATOM     30  O   UNL     1      47.339   0.528   6.718  0.00  0.00    +0.000 OA
ATOM     31  H   UNL     1      48.764   3.353   6.377  0.00  0.00    +0.000 HD
ATOM     32  H   UNL     1      49.183   1.779   5.786  0.00  0.00    +0.000 HD
ENDBRANCH  25  28
ENDBRANCH  21  22
ENDBRANCH  20  21
ENDBRANCH  19  20
ENDBRANCH   1  19
TORSDOF 8
ENDMDL
MODEL 8
REMARK VINA RESULT:    -7.840      1.846      2.570
REMARK INTER + INTRA:         -13.046
REMARK INTER:                 -11.788
REMARK INTRA:                  -1.258
REMARK UNBOUND:                -1.540
REMARK  Name = 
REMARK  9 active torsions:
REMARK  status: ('A' for Active; 'I' for Inactive)
REMARK    1  A    between atoms: C_1  and  C_2
REMARK    2  A    between atoms: C_2  and  C_3
REMARK    3  A    between atoms: C_2  and  C_14
REMARK    4  A    between atoms: C_3  and  O_4
REMARK    5  A    between atoms: O_4  and  C_5
REMARK    6  A    between atoms: C_8  and  C_9
REMARK    7  A    between atoms: C_18  and  C_19
REMARK    8  A    between atoms: C_24  and  O_25
REMARK    9  A    between atoms: O_25  and  C_26
REMARK                            x       y       z     vdW  Elec       q    Type
REMARK                         _______ _______ _______ _____ _____    ______ ____
ROOT
ATOM      1  C   UNL     1      45.636   5.335  12.767  0.00  0.00    +0.000 A 
ATOM      2  C   UNL     1      46.589   4.840  13.668  0.00  0.00    +0.000 A 
ATOM      3  C   UNL     1      47.526   5.693  14.237  0.00  0.00    +0.000 A 
ATOM      4  C   UNL     1      47.538   7.046  13.900  0.00  0.00    +0.000 A 
ATOM      5  C   UNL     1      46.633   7.587  12.962  0.00  0.00    +0.000 A 
ATOM      6  C   UNL     1      45.682   6.701  12.421  0.00  0.00    +0.000 A 
ENDROOT
BRANCH   5   7
ATOM      7  C   UNL     1      46.772   8.991  12.473  0.00  0.00    +0.000 A 
ATOM      8  C   UNL     1      45.605   9.679  12.068  0.00  0.00    +0.000 A 
ATOM      9  C   UNL     1      45.626  11.020  11.685  0.00  0.00    +0.000 A 
ATOM     10  C   UNL     1      46.811  11.732  11.755  0.00  0.00    +0.000 A 
ATOM     11  C   UNL     1      47.983  11.091  12.154  0.00  0.00    +0.000 A 
ATOM     12  C   UNL     1      47.993   9.716  12.440  0.00  0.00    +0.000 A 
BRANCH  12  13
ATOM     13  O   UNL     1      49.141   9.021  12.705  0.00  0.00    +0.000 OA
BRANCH  13  14
ATOM     14  C   UNL     1      49.905   8.485  11.635  0.00  0.00    +0.000 C 
ATOM     15  F   UNL     1      50.985   7.777  12.030  0.00  0.00    +0.000 F 
ATOM     16  F   UNL     1      49.121   7.697  10.866  0.00  0.00    +0.000 F 
ATOM     17  F   UNL     1      50.350   9.506  10.868  0.00  0.00    +0.000 F 
ENDBRANCH  13  14
ENDBRANCH  12  13
ENDBRANCH   5   7
BRANCH   1  19
ATOM     18  C   UNL     1      43.539   4.023  13.116  0.00  0.00    +0.000 C 
ATOM     19  C   UNL     1      44.604   4.438  12.095  0.00  0.00    +0.000 C 
BRANCH  19  20
ATOM     20  C   UNL     1      43.967   5.088  10.857  0.00  0.00    +0.000 C 
BRANCH  20  21
ATOM     21  O   UNL     1      43.487   4.094   9.940  0.00  0.00    +0.000 OA
BRANCH  21  22
ATOM     22  C   UNL     1      44.515   3.586   9.169  0.00  0.00    +0.000 A 
ATOM     23  C   UNL     1      44.774   2.230   9.262  0.00  0.00    +0.000 A 
ATOM     24  C   UNL     1      45.802   1.701   8.479  0.00  0.00    +0.000 A 
ATOM     25  C   UNL     1      46.537   2.540   7.632  0.00  0.00    +0.000 A 
ATOM     26  C   UNL     1      46.202   3.882   7.620  0.00  0.00    +0.000 A 
ATOM     27  N   UNL     1      45.210   4.423   8.367  0.00  0.00    +0.000 NA
BRANCH  25  28
ATOM     28  C   UNL     1      47.624   1.975   6.804  0.00  0.00    +0.000 C 
ATOM     29  N   UNL     1      48.662   2.777   6.420  0.00  0.00    +0.000 N 
ATOM     30  O   UNL     1      47.603   0.806   6.446  0.00  0.00    +0.000 OA
ATOM     31  H   UNL     1      48.781   3.757   6.638  0.00  0.00    +0.000 HD
ATOM     32  H   UNL     1      49.377   2.333   5.848  0.00  0.00    +0.000 HD
ENDBRANCH  25  28
ENDBRANCH  21  22
ENDBRANCH  20  21
ENDBRANCH  19  20
ENDBRANCH   1  19
TORSDOF 8
ENDMDL
MODEL 9
REMARK VINA RESULT:    -7.462      4.598      7.571
REMARK INTER + INTRA:         -12.492
REMARK INTER:                 -10.759
REMARK INTRA:                  -1.734
REMARK UNBOUND:                -1.540
REMARK  Name = 
REMARK  9 active torsions:
REMARK  status: ('A' for Active; 'I' for Inactive)
REMARK    1  A    between atoms: C_1  and  C_2
REMARK    2  A    between atoms: C_2  and  C_3
REMARK    3  A    between atoms: C_2  and  C_14
REMARK    4  A    between atoms: C_3  and  O_4
REMARK    5  A    between atoms: O_4  and  C_5
REMARK    6  A    between atoms: C_8  and  C_9
REMARK    7  A    between atoms: C_18  and  C_19
REMARK    8  A    between atoms: C_24  and  O_25
REMARK    9  A    between atoms: O_25  and  C_26
REMARK                            x       y       z     vdW  Elec       q    Type
REMARK                         _______ _______ _______ _____ _____    ______ ____
ROOT
ATOM      1  C   UNL     1      47.657   6.994  13.537  0.00  0.00    +0.000 A 
ATOM      2  C   UNL     1      47.127   8.289  13.462  0.00  0.00    +0.000 A 
ATOM      3  C   UNL     1      46.059   8.562  12.616  0.00  0.00    +0.000 A 
ATOM      4  C   UNL     1      45.520   7.552  11.820  0.00  0.00    +0.000 A 
ATOM      5  C   UNL     1      46.048   6.244  11.820  0.00  0.00    +0.000 A 
ATOM      6  C   UNL     1      47.114   5.995  12.704  0.00  0.00    +0.000 A 
ENDROOT
BRANCH   5   7
ATOM      7  C   UNL     1      45.585   5.222  10.834  0.00  0.00    +0.000 A 
ATOM      8  C   UNL     1      45.865   5.436   9.464  0.00  0.00    +0.000 A 
ATOM      9  C   UNL     1      45.553   4.494   8.484  0.00  0.00    +0.000 A 
ATOM     10  C   UNL     1      45.006   3.278   8.855  0.00  0.00    +0.000 A 
ATOM     11  C   UNL     1      44.719   3.026  10.196  0.00  0.00    +0.000 A 
ATOM     12  C   UNL     1      44.931   4.008  11.177  0.00  0.00    +0.000 A 
BRANCH  12  13
ATOM     13  O   UNL     1      44.542   3.854  12.479  0.00  0.00    +0.000 OA
BRANCH  13  14
ATOM     14  C   UNL     1      43.322   4.429  12.925  0.00  0.00    +0.000 C 
ATOM     15  F   UNL     1      43.459   5.663  13.456  0.00  0.00    +0.000 F 
ATOM     16  F   UNL     1      42.445   4.489  11.898  0.00  0.00    +0.000 F 
ATOM     17  F   UNL     1      42.793   3.632  13.881  0.00  0.00    +0.000 F 
ENDBRANCH  13  14
ENDBRANCH  12  13
ENDBRANCH   5   7
BRANCH   1  19
ATOM     18  C   UNL     1      49.984   7.641  14.175  0.00  0.00    +0.000 C 
ATOM     19  C   UNL     1      48.844   6.649  14.428  0.00  0.00    +0.000 C 
BRANCH  19  20
ATOM     20  C   UNL     1      48.473   6.593  15.918  0.00  0.00    +0.000 C 
BRANCH  20  21
ATOM     21  O   UNL     1      47.892   5.327  16.260  0.00  0.00    +0.000 OA
BRANCH  21  22
ATOM     22  C   UNL     1      48.862   4.412  16.621  0.00  0.00    +0.000 A 
ATOM     23  C   UNL     1      50.001   4.898  17.241  0.00  0.00    +0.000 A 
ATOM     24  C   UNL     1      50.984   3.984  17.622  0.00  0.00    +0.000 A 
ATOM     25  C   UNL     1      50.802   2.618  17.374  0.00  0.00    +0.000 A 
ATOM     26  C   UNL     1      49.631   2.238  16.743  0.00  0.00    +0.000 A 
ATOM     27  N   UNL     1      48.660   3.101  16.363  0.00  0.00    +0.000 NA
BRANCH  25  28
ATOM     28  C   UNL     1      51.846   1.653  17.782  0.00  0.00    +0.000 C 
ATOM     29  N   UNL     1      51.492   0.365  18.073  0.00  0.00    +0.000 N 
ATOM     30  O   UNL     1      53.017   1.992  17.876  0.00  0.00    +0.000 OA
ATOM     31  H   UNL     1      50.562  -0.026  18.048  0.00  0.00    +0.000 HD
ATOM     32  H   UNL     1      52.254  -0.250  18.351  0.00  0.00    +0.000 HD
ENDBRANCH  25  28
ENDBRANCH  21  22
ENDBRANCH  20  21
ENDBRANCH  19  20
ENDBRANCH   1  19
TORSDOF 8
ENDMDL
