MODEL 1
REMARK VINA RESULT:    -8.675      0.000      0.000
REMARK INTER + INTRA:         -12.995
REMARK INTER:                 -12.225
REMARK INTRA:                  -0.770
REMARK UNBOUND:                -0.770
REMARK  Name = 
REMARK  8 active torsions:
REMARK  status: ('A' for Active; 'I' for Inactive)
REMARK    1  A    between atoms: C_1  and  O_2
REMARK    2  A    between atoms: O_2  and  C_3
REMARK    3  A    between atoms: C_6  and  C_7
REMARK    4  A    between atoms: C_7  and  C_8
REMARK    5  A    between atoms: C_8  and  N_9
REMARK    6  A    between atoms: C_13  and  C_14
REMARK    7  A    between atoms: C_20  and  O_21
REMARK    8  A    between atoms: O_21  and  C_22
REMARK                            x       y       z     vdW  Elec       q    Type
REMARK                         _______ _______ _______ _____ _____    ______ ____
ROOT
ATOM      1  C   UNL     1      43.311   4.835  12.603  0.00  0.00    +0.000 C 
ENDROOT
BRANCH   1   5
ATOM      2  C   UNL     1      47.404   6.000  13.508  0.00  0.00    +0.000 A 
ATOM      3  C   UNL     1      46.521   6.878  12.860  0.00  0.00    +0.000 A 
ATOM      4  C   UNL     1      45.206   6.501  12.566  0.00  0.00    +0.000 A 
ATOM      5  C   UNL     1      44.737   5.233  12.909  0.00  0.00    +0.000 A 
ATOM      6  C   UNL     1      45.609   4.360  13.572  0.00  0.00    +0.000 A 
ATOM      7  C   UNL     1      46.938   4.724  13.858  0.00  0.00    +0.000 A 
BRANCH   2   9
ATOM      8  C   UNL     1      49.331   7.298  12.963  0.00  0.00    +0.000 C 
ATOM      9  O   UNL     1      48.703   6.326  13.793  0.00  0.00    +0.000 OA
ENDBRANCH   2   9
BRANCH   7  10
ATOM     10  O   UNL     1      47.620   3.749  14.553  0.00  0.00    +0.000 OA
BRANCH  10  11
ATOM     11  C   UNL     1      47.455   3.598  15.980  0.00  0.00    +0.000 C 
ATOM     12  C   UNL     1      48.037   4.700  16.895  0.00  0.00    +0.000 C 
ATOM     13  C   UNL     1      48.721   3.619  17.744  0.00  0.00    +0.000 C 
ATOM     14  C   UNL     1      48.479   2.618  16.611  0.00  0.00    +0.000 C 
ENDBRANCH  10  11
ENDBRANCH   7  10
ENDBRANCH   1   5
BRANCH   1  15
ATOM     15  C   UNL     1      43.199   4.114  11.257  0.00  0.00    +0.000 C 
BRANCH  15  16
ATOM     16  N   UNL     1      43.912   4.846  10.199  0.00  0.00    +0.000 N 
ATOM     17  C   UNL     1      44.725   4.003   9.414  0.00  0.00    +0.000 A 
ATOM     18  C   UNL     1      45.485   4.556   8.387  0.00  0.00    +0.000 A 
ATOM     19  C   UNL     1      46.306   3.728   7.615  0.00  0.00    +0.000 A 
ATOM     20  C   UNL     1      46.349   2.358   7.877  0.00  0.00    +0.000 A 
ATOM     21  C   UNL     1      45.540   1.890   8.895  0.00  0.00    +0.000 A 
ATOM     22  N   UNL     1      44.738   2.677   9.654  0.00  0.00    +0.000 NA
ATOM     23  H   UNL     1      44.494   5.593  10.572  0.00  0.00    +0.000 HD
BRANCH  20  24
ATOM     24  C   UNL     1      47.240   1.481   7.081  0.00  0.00    +0.000 C 
ATOM     25  N   UNL     1      48.382   2.006   6.540  0.00  0.00    +0.000 N 
ATOM     26  O   UNL     1      46.957   0.304   6.891  0.00  0.00    +0.000 OA
ATOM     27  H   UNL     1      48.686   2.967   6.606  0.00  0.00    +0.000 HD
ATOM     28  H   UNL     1      48.948   1.379   5.983  0.00  0.00    +0.000 HD
ENDBRANCH  20  24
ENDBRANCH  15  16
ENDBRANCH   1  15
TORSDOF 7
ENDMDL
MODEL 2
REMARK VINA RESULT:    -7.789      1.852      3.910
REMARK INTER + INTRA:         -11.747
REMARK INTER:                 -10.781
REMARK INTRA:                  -0.966
REMARK UNBOUND:                -0.770
REMARK  Name = 
REMARK  8 active torsions:
REMARK  status: ('A' for Active; 'I' for Inactive)
REMARK    1  A    between atoms: C_1  and  O_2
REMARK    2  A    between atoms: O_2  and  C_3
REMARK    3  A    between atoms: C_6  and  C_7
REMARK    4  A    between atoms: C_7  and  C_8
REMARK    5  A    between atoms: C_8  and  N_9
REMARK    6  A    between atoms: C_13  and  C_14
REMARK    7  A    between atoms: C_20  and  O_21
REMARK    8  A    between atoms: O_21  and  C_22
REMARK                            x       y       z     vdW  Elec       q    Type
REMARK                         _______ _______ _______ _____ _____    ______ ____
ROOT
ATOM      1  C   UNL     1      43.497   5.216  12.347  0.00  0.00    +0.000 C 
ENDROOT
BRANCH   1   5
ATOM      2  C   UNL     1      47.625   6.121  13.383  0.00  0.00    +0.000 A 
ATOM      3  C   UNL     1      46.967   5.001  13.915  0.00  0.00    +0.000 A 
ATOM      4  C   UNL     1      45.638   4.713  13.584  0.00  0.00    +0.000 A 
ATOM      5  C   UNL     1      44.927   5.539  12.714  0.00  0.00    +0.000 A 
ATOM      6  C   UNL     1      45.586   6.648  12.166  0.00  0.00    +0.000 A 
ATOM      7  C   UNL     1      46.917   6.954  12.505  0.00  0.00    +0.000 A 
BRANCH   2   9
ATOM      8  C   UNL     1      49.141   7.099  14.945  0.00  0.00    +0.000 C 
ATOM      9  O   UNL     1      48.916   6.445  13.699  0.00  0.00    +0.000 OA
ENDBRANCH   2   9
BRANCH   7  10
ATOM     10  O   UNL     1      47.399   8.053  11.828  0.00  0.00    +0.000 OA
BRANCH  10  11
ATOM     11  C   UNL     1      47.229   9.387  12.355  0.00  0.00    +0.000 C 
ATOM     12  C   UNL     1      46.031  10.219  11.841  0.00  0.00    +0.000 C 
ATOM     13  C   UNL     1      46.980  11.395  11.567  0.00  0.00    +0.000 C 
ATOM     14  C   UNL     1      48.163  10.430  11.686  0.00  0.00    +0.000 C 
ENDBRANCH  10  11
ENDBRANCH   7  10
ENDBRANCH   1   5
BRANCH   1  15
ATOM     15  C   UNL     1      43.361   4.839  10.870  0.00  0.00    +0.000 C 
BRANCH  15  16
ATOM     16  N   UNL     1      43.623   3.407  10.658  0.00  0.00    +0.000 N 
ATOM     17  C   UNL     1      44.582   3.179   9.651  0.00  0.00    +0.000 A 
ATOM     18  C   UNL     1      44.917   1.869   9.317  0.00  0.00    +0.000 A 
ATOM     19  C   UNL     1      45.856   1.634   8.306  0.00  0.00    +0.000 A 
ATOM     20  C   UNL     1      46.449   2.713   7.650  0.00  0.00    +0.000 A 
ATOM     21  C   UNL     1      46.081   3.978   8.066  0.00  0.00    +0.000 A 
ATOM     22  N   UNL     1      45.174   4.226   9.042  0.00  0.00    +0.000 NA
ATOM     23  H   UNL     1      42.779   2.893  10.419  0.00  0.00    +0.000 HD
BRANCH  20  24
ATOM     24  C   UNL     1      47.422   2.468   6.559  0.00  0.00    +0.000 C 
ATOM     25  N   UNL     1      47.295   3.160   5.385  0.00  0.00    +0.000 N 
ATOM     26  O   UNL     1      48.322   1.648   6.692  0.00  0.00    +0.000 OA
ATOM     27  H   UNL     1      46.571   3.827   5.161  0.00  0.00    +0.000 HD
ATOM     28  H   UNL     1      47.966   2.943   4.658  0.00  0.00    +0.000 HD
ENDBRANCH  20  24
ENDBRANCH  15  16
ENDBRANCH   1  15
TORSDOF 7
ENDMDL
MODEL 3
REMARK VINA RESULT:    -7.028      2.689      3.669
REMARK INTER + INTRA:         -10.674
REMARK INTER:                 -10.050
REMARK INTRA:                  -0.624
REMARK UNBOUND:                -0.770
REMARK  Name = 
REMARK  8 active torsions:
REMARK  status: ('A' for Active; 'I' for Inactive)
REMARK    1  A    between atoms: C_1  and  O_2
REMARK    2  A    between atoms: O_2  and  C_3
REMARK    3  A    between atoms: C_6  and  C_7
REMARK    4  A    between atoms: C_7  and  C_8
REMARK    5  A    between atoms: C_8  and  N_9
REMARK    6  A    between atoms: C_13  and  C_14
REMARK    7  A    between atoms: C_20  and  O_21
REMARK    8  A    between atoms: O_21  and  C_22
REMARK                            x       y       z     vdW  Elec       q    Type
REMARK                         _______ _______ _______ _____ _____    ______ ____
ROOT
ATOM      1  C   UNL     1      44.442   4.638  12.308  0.00  0.00    +0.000 C 
ENDROOT
BRANCH   1   5
ATOM      2  C   UNL     1      45.471   8.859  12.058  0.00  0.00    +0.000 A 
ATOM      3  C   UNL     1      44.411   8.320  11.312  0.00  0.00    +0.000 A 
ATOM      4  C   UNL     1      44.083   6.961  11.391  0.00  0.00    +0.000 A 
ATOM      5  C   UNL     1      44.809   6.101  12.215  0.00  0.00    +0.000 A 
ATOM      6  C   UNL     1      45.856   6.639  12.975  0.00  0.00    +0.000 A 
ATOM      7  C   UNL     1      46.203   8.001  12.891  0.00  0.00    +0.000 A 
BRANCH   2   9
ATOM      8  C   UNL     1      44.983  11.053  11.256  0.00  0.00    +0.000 C 
ATOM      9  O   UNL     1      45.833  10.177  11.991  0.00  0.00    +0.000 OA
ENDBRANCH   2   9
BRANCH   7  10
ATOM     10  O   UNL     1      47.226   8.343  13.748  0.00  0.00    +0.000 OA
BRANCH  10  11
ATOM     11  C   UNL     1      48.604   8.303  13.317  0.00  0.00    +0.000 C 
ATOM     12  C   UNL     1      48.955   8.952  11.958  0.00  0.00    +0.000 C 
ATOM     13  C   UNL     1      49.709   7.676  11.557  0.00  0.00    +0.000 C 
ATOM     14  C   UNL     1      49.012   6.938  12.703  0.00  0.00    +0.000 C 
ENDBRANCH  10  11
ENDBRANCH   7  10
ENDBRANCH   1   5
BRANCH   1  15
ATOM     15  C   UNL     1      43.628   4.179  11.096  0.00  0.00    +0.000 C 
BRANCH  15  16
ATOM     16  N   UNL     1      44.009   2.820  10.682  0.00  0.00    +0.000 N 
ATOM     17  C   UNL     1      44.865   2.818   9.562  0.00  0.00    +0.000 A 
ATOM     18  C   UNL     1      45.291   1.602   9.035  0.00  0.00    +0.000 A 
ATOM     19  C   UNL     1      46.128   1.592   7.914  0.00  0.00    +0.000 A 
ATOM     20  C   UNL     1      46.532   2.799   7.342  0.00  0.00    +0.000 A 
ATOM     21  C   UNL     1      46.086   3.958   7.948  0.00  0.00    +0.000 A 
ATOM     22  N   UNL     1      45.276   3.988   9.033  0.00  0.00    +0.000 NA
ATOM     23  H   UNL     1      43.199   2.242  10.466  0.00  0.00    +0.000 HD
BRANCH  20  24
ATOM     24  C   UNL     1      47.394   2.792   6.137  0.00  0.00    +0.000 C 
ATOM     25  N   UNL     1      48.729   2.523   6.274  0.00  0.00    +0.000 N 
ATOM     26  O   UNL     1      46.930   3.038   5.030  0.00  0.00    +0.000 OA
ATOM     27  H   UNL     1      49.216   2.345   7.141  0.00  0.00    +0.000 HD
ATOM     28  H   UNL     1      49.285   2.554   5.429  0.00  0.00    +0.000 HD
ENDBRANCH  20  24
ENDBRANCH  15  16
ENDBRANCH   1  15
TORSDOF 7
ENDMDL
MODEL 4
REMARK VINA RESULT:    -6.805      3.569      8.143
REMARK INTER + INTRA:         -10.360
REMARK INTER:                  -9.538
REMARK INTRA:                  -0.822
REMARK UNBOUND:                -0.770
REMARK  Name = 
REMARK  8 active torsions:
REMARK  status: ('A' for Active; 'I' for Inactive)
REMARK    1  A    between atoms: C_1  and  O_2
REMARK    2  A    between atoms: O_2  and  C_3
REMARK    3  A    between atoms: C_6  and  C_7
REMARK    4  A    between atoms: C_7  and  C_8
REMARK    5  A    between atoms: C_8  and  N_9
REMARK    6  A    between atoms: C_13  and  C_14
REMARK    7  A    between atoms: C_20  and  O_21
REMARK    8  A    between atoms: O_21  and  C_22
REMARK                            x       y       z     vdW  Elec       q    Type
REMARK                         _______ _______ _______ _____ _____    ______ ____
ROOT
ATOM      1  C   UNL     1      47.468   7.072  11.742  0.00  0.00    +0.000 C 
ENDROOT
BRANCH   1   5
ATOM      2  C   UNL     1      44.194   4.245  11.279  0.00  0.00    +0.000 A 
ATOM      3  C   UNL     1      44.660   4.620  12.548  0.00  0.00    +0.000 A 
ATOM      4  C   UNL     1      45.716   5.527  12.696  0.00  0.00    +0.000 A 
ATOM      5  C   UNL     1      46.339   6.081  11.577  0.00  0.00    +0.000 A 
ATOM      6  C   UNL     1      45.864   5.723  10.309  0.00  0.00    +0.000 A 
ATOM      7  C   UNL     1      44.813   4.801  10.150  0.00  0.00    +0.000 A 
BRANCH   2   9
ATOM      8  C   UNL     1      43.211   2.153  11.872  0.00  0.00    +0.000 C 
ATOM      9  O   UNL     1      43.178   3.346  11.095  0.00  0.00    +0.000 OA
ENDBRANCH   2   9
BRANCH   7  10
ATOM     10  O   UNL     1      44.462   4.616   8.830  0.00  0.00    +0.000 OA
BRANCH  10  11
ATOM     11  C   UNL     1      44.819   3.407   8.126  0.00  0.00    +0.000 C 
ATOM     12  C   UNL     1      45.577   2.311   8.911  0.00  0.00    +0.000 C 
ATOM     13  C   UNL     1      46.611   2.231   7.779  0.00  0.00    +0.000 C 
ATOM     14  C   UNL     1      46.085   3.566   7.243  0.00  0.00    +0.000 C 
ENDBRANCH  10  11
ENDBRANCH   7  10
ENDBRANCH   1   5
BRANCH   1  15
ATOM     15  C   UNL     1      48.567   6.531  12.662  0.00  0.00    +0.000 C 
BRANCH  15  16
ATOM     16  N   UNL     1      48.842   7.462  13.767  0.00  0.00    +0.000 N 
ATOM     17  C   UNL     1      48.657   6.866  15.031  0.00  0.00    +0.000 A 
ATOM     18  C   UNL     1      48.854   7.631  16.177  0.00  0.00    +0.000 A 
ATOM     19  C   UNL     1      48.656   7.051  17.435  0.00  0.00    +0.000 A 
ATOM     20  C   UNL     1      48.270   5.713  17.526  0.00  0.00    +0.000 A 
ATOM     21  C   UNL     1      48.126   5.021  16.339  0.00  0.00    +0.000 A 
ATOM     22  N   UNL     1      48.314   5.565  15.112  0.00  0.00    +0.000 NA
ATOM     23  H   UNL     1      48.265   8.298  13.720  0.00  0.00    +0.000 HD
BRANCH  20  24
ATOM     24  C   UNL     1      48.030   5.103  18.856  0.00  0.00    +0.000 C 
ATOM     25  N   UNL     1      46.980   5.546  19.613  0.00  0.00    +0.000 N 
ATOM     26  O   UNL     1      48.767   4.224  19.285  0.00  0.00    +0.000 OA
ATOM     27  H   UNL     1      46.339   6.287  19.368  0.00  0.00    +0.000 HD
ATOM     28  H   UNL     1      46.868   5.120  20.524  0.00  0.00    +0.000 HD
ENDBRANCH  20  24
ENDBRANCH  15  16
ENDBRANCH   1  15
TORSDOF 7
ENDMDL
MODEL 5
REMARK VINA RESULT:    -6.288      4.340      8.024
REMARK INTER + INTRA:          -9.631
REMARK INTER:                  -8.127
REMARK INTRA:                  -1.504
REMARK UNBOUND:                -0.770
REMARK  Name = 
REMARK  8 active torsions:
REMARK  status: ('A' for Active; 'I' for Inactive)
REMARK    1  A    between atoms: C_1  and  O_2
REMARK    2  A    between atoms: O_2  and  C_3
REMARK    3  A    between atoms: C_6  and  C_7
REMARK    4  A    between atoms: C_7  and  C_8
REMARK    5  A    between atoms: C_8  and  N_9
REMARK    6  A    between atoms: C_13  and  C_14
REMARK    7  A    between atoms: C_20  and  O_21
REMARK    8  A    between atoms: O_21  and  C_22
REMARK                            x       y       z     vdW  Elec       q    Type
REMARK                         _______ _______ _______ _____ _____    ______ ____
ROOT
ATOM      1  C   UNL     1      48.916   7.465  12.785  0.00  0.00    +0.000 C 
ENDROOT
BRANCH   1   5
ATOM      2  C   UNL     1      45.478   4.804  12.974  0.00  0.00    +0.000 A 
ATOM      3  C   UNL     1      45.625   5.735  11.934  0.00  0.00    +0.000 A 
ATOM      4  C   UNL     1      46.729   6.593  11.875  0.00  0.00    +0.000 A 
ATOM      5  C   UNL     1      47.717   6.547  12.859  0.00  0.00    +0.000 A 
ATOM      6  C   UNL     1      47.584   5.606  13.889  0.00  0.00    +0.000 A 
ATOM      7  C   UNL     1      46.469   4.750  13.964  0.00  0.00    +0.000 A 
BRANCH   2   9
ATOM      8  C   UNL     1      43.106   4.553  13.046  0.00  0.00    +0.000 C 
ATOM      9  O   UNL     1      44.402   3.963  13.074  0.00  0.00    +0.000 OA
ENDBRANCH   2   9
BRANCH   7  10
ATOM     10  O   UNL     1      46.545   3.869  15.021  0.00  0.00    +0.000 OA
BRANCH  10  11
ATOM     11  C   UNL     1      47.562   4.008  16.036  0.00  0.00    +0.000 C 
ATOM     12  C   UNL     1      48.399   2.757  16.396  0.00  0.00    +0.000 C 
ATOM     13  C   UNL     1      48.119   3.013  17.884  0.00  0.00    +0.000 C 
ATOM     14  C   UNL     1      46.993   3.968  17.479  0.00  0.00    +0.000 C 
ENDBRANCH  10  11
ENDBRANCH   7  10
ENDBRANCH   1   5
BRANCH   1  15
ATOM     15  C   UNL     1      49.328   7.973  14.169  0.00  0.00    +0.000 C 
BRANCH  15  16
ATOM     16  N   UNL     1      50.436   7.178  14.721  0.00  0.00    +0.000 N 
ATOM     17  C   UNL     1      50.240   6.850  16.077  0.00  0.00    +0.000 A 
ATOM     18  C   UNL     1      51.219   6.122  16.748  0.00  0.00    +0.000 A 
ATOM     19  C   UNL     1      51.039   5.807  18.099  0.00  0.00    +0.000 A 
ATOM     20  C   UNL     1      49.879   6.220  18.757  0.00  0.00    +0.000 A 
ATOM     21  C   UNL     1      48.947   6.912  18.007  0.00  0.00    +0.000 A 
ATOM     22  N   UNL     1      49.104   7.226  16.698  0.00  0.00    +0.000 NA
ATOM     23  H   UNL     1      51.331   7.653  14.632  0.00  0.00    +0.000 HD
BRANCH  20  24
ATOM     24  C   UNL     1      49.698   5.913  20.195  0.00  0.00    +0.000 C 
ATOM     25  N   UNL     1      49.742   4.610  20.610  0.00  0.00    +0.000 N 
ATOM     26  O   UNL     1      49.496   6.808  21.007  0.00  0.00    +0.000 OA
ATOM     27  H   UNL     1      49.866   3.800  20.019  0.00  0.00    +0.000 HD
ATOM     28  H   UNL     1      49.588   4.444  21.597  0.00  0.00    +0.000 HD
ENDBRANCH  20  24
ENDBRANCH  15  16
ENDBRANCH   1  15
TORSDOF 7
ENDMDL
MODEL 6
REMARK VINA RESULT:    -6.192      3.452      5.618
REMARK INTER + INTRA:          -9.496
REMARK INTER:                  -8.850
REMARK INTRA:                  -0.646
REMARK UNBOUND:                -0.770
REMARK  Name = 
REMARK  8 active torsions:
REMARK  status: ('A' for Active; 'I' for Inactive)
REMARK    1  A    between atoms: C_1  and  O_2
REMARK    2  A    between atoms: O_2  and  C_3
REMARK    3  A    between atoms: C_6  and  C_7
REMARK    4  A    between atoms: C_7  and  C_8
REMARK    5  A    between atoms: C_8  and  N_9
REMARK    6  A    between atoms: C_13  and  C_14
REMARK    7  A    between atoms: C_20  and  O_21
REMARK    8  A    between atoms: O_21  and  C_22
REMARK                            x       y       z     vdW  Elec       q    Type
REMARK                         _______ _______ _______ _____ _____    ______ ____
ROOT
ATOM      1  C   UNL     1      47.039   4.251  17.068  0.00  0.00    +0.000 C 
ENDROOT
BRANCH   1   5
ATOM      2  C   UNL     1      50.656   5.034  19.356  0.00  0.00    +0.000 A 
ATOM      3  C   UNL     1      49.405   5.507  19.782  0.00  0.00    +0.000 A 
ATOM      4  C   UNL     1      48.243   5.258  19.044  0.00  0.00    +0.000 A 
ATOM      5  C   UNL     1      48.299   4.531  17.854  0.00  0.00    +0.000 A 
ATOM      6  C   UNL     1      49.542   4.041  17.435  0.00  0.00    +0.000 A 
ATOM      7  C   UNL     1      50.719   4.299  18.163  0.00  0.00    +0.000 A 
BRANCH   2   9
ATOM      8  C   UNL     1      52.573   6.421  19.663  0.00  0.00    +0.000 C 
ATOM      9  O   UNL     1      51.816   5.275  20.041  0.00  0.00    +0.000 OA
ENDBRANCH   2   9
BRANCH   7  10
ATOM     10  O   UNL     1      51.828   3.694  17.614  0.00  0.00    +0.000 OA
BRANCH  10  11
ATOM     11  C   UNL     1      52.360   2.470  18.164  0.00  0.00    +0.000 C 
ATOM     12  C   UNL     1      53.802   2.069  17.774  0.00  0.00    +0.000 C 
ATOM     13  C   UNL     1      53.302   0.661  17.418  0.00  0.00    +0.000 C 
ATOM     14  C   UNL     1      51.869   1.202  17.416  0.00  0.00    +0.000 C 
ENDBRANCH  10  11
ENDBRANCH   7  10
ENDBRANCH   1   5
BRANCH   1  15
ATOM     15  C   UNL     1      47.336   4.021  15.583  0.00  0.00    +0.000 C 
BRANCH  15  16
ATOM     16  N   UNL     1      46.926   5.177  14.771  0.00  0.00    +0.000 N 
ATOM     17  C   UNL     1      46.243   4.796  13.599  0.00  0.00    +0.000 A 
ATOM     18  C   UNL     1      45.814   5.780  12.713  0.00  0.00    +0.000 A 
ATOM     19  C   UNL     1      45.150   5.408  11.538  0.00  0.00    +0.000 A 
ATOM     20  C   UNL     1      44.920   4.058  11.272  0.00  0.00    +0.000 A 
ATOM     21  C   UNL     1      45.353   3.150  12.221  0.00  0.00    +0.000 A 
ATOM     22  N   UNL     1      45.997   3.491  13.363  0.00  0.00    +0.000 NA
ATOM     23  H   UNL     1      47.716   5.760  14.506  0.00  0.00    +0.000 HD
BRANCH  20  24
ATOM     24  C   UNL     1      44.243   3.658  10.016  0.00  0.00    +0.000 C 
ATOM     25  N   UNL     1      43.949   4.616   9.083  0.00  0.00    +0.000 N 
ATOM     26  O   UNL     1      43.934   2.490   9.813  0.00  0.00    +0.000 OA
ATOM     27  H   UNL     1      44.128   5.606   9.169  0.00  0.00    +0.000 HD
ATOM     28  H   UNL     1      43.464   4.303   8.252  0.00  0.00    +0.000 HD
ENDBRANCH  20  24
ENDBRANCH  15  16
ENDBRANCH   1  15
TORSDOF 7
ENDMDL
MODEL 7
REMARK VINA RESULT:    -6.001      4.106      8.260
REMARK INTER + INTRA:          -9.226
REMARK INTER:                  -8.646
REMARK INTRA:                  -0.581
REMARK UNBOUND:                -0.770
REMARK  Name = 
REMARK  8 active torsions:
REMARK  status: ('A' for Active; 'I' for Inactive)
REMARK    1  A    between atoms: C_1  and  O_2
REMARK    2  A    between atoms: O_2  and  C_3
REMARK    3  A    between atoms: C_6  and  C_7
REMARK    4  A    between atoms: C_7  and  C_8
REMARK    5  A    between atoms: C_8  and  N_9
REMARK    6  A    between atoms: C_13  and  C_14
REMARK    7  A    between atoms: C_20  and  O_21
REMARK    8  A    between atoms: O_21  and  C_22
REMARK                            x       y       z     vdW  Elec       q    Type
REMARK                         _______ _______ _______ _____ _____    ______ ____
ROOT
ATOM      1  C   UNL     1      48.505   7.001  12.636  0.00  0.00    +0.000 C 
ENDROOT
BRANCH   1   5
ATOM      2  C   UNL     1      44.373   6.391  11.417  0.00  0.00    +0.000 A 
ATOM      3  C   UNL     1      44.848   7.662  11.776  0.00  0.00    +0.000 A 
ATOM      4  C   UNL     1      46.176   7.856  12.172  0.00  0.00    +0.000 A 
ATOM      5  C   UNL     1      47.067   6.784  12.223  0.00  0.00    +0.000 A 
ATOM      6  C   UNL     1      46.601   5.517  11.847  0.00  0.00    +0.000 A 
ATOM      7  C   UNL     1      45.264   5.309  11.462  0.00  0.00    +0.000 A 
BRANCH   2   9
ATOM      8  C   UNL     1      42.243   5.468  11.970  0.00  0.00    +0.000 C 
ATOM      9  O   UNL     1      43.076   6.159  11.044  0.00  0.00    +0.000 OA
ENDBRANCH   2   9
BRANCH   7  10
ATOM     10  O   UNL     1      45.014   4.007  11.086  0.00  0.00    +0.000 OA
BRANCH  10  11
ATOM     11  C   UNL     1      44.649   3.680   9.728  0.00  0.00    +0.000 C 
ATOM     12  C   UNL     1      45.123   2.322   9.160  0.00  0.00    +0.000 C 
ATOM     13  C   UNL     1      45.656   3.042   7.914  0.00  0.00    +0.000 C 
ATOM     14  C   UNL     1      45.552   4.369   8.671  0.00  0.00    +0.000 C 
ENDBRANCH  10  11
ENDBRANCH   7  10
ENDBRANCH   1   5
BRANCH   1  15
ATOM     15  C   UNL     1      48.607   7.603  14.040  0.00  0.00    +0.000 C 
BRANCH  15  16
ATOM     16  N   UNL     1      47.980   6.728  15.042  0.00  0.00    +0.000 N 
ATOM     17  C   UNL     1      48.914   6.204  15.959  0.00  0.00    +0.000 A 
ATOM     18  C   UNL     1      48.475   5.335  16.953  0.00  0.00    +0.000 A 
ATOM     19  C   UNL     1      49.399   4.798  17.856  0.00  0.00    +0.000 A 
ATOM     20  C   UNL     1      50.746   5.144  17.754  0.00  0.00    +0.000 A 
ATOM     21  C   UNL     1      51.089   6.037  16.756  0.00  0.00    +0.000 A 
ATOM     22  N   UNL     1      50.209   6.567  15.873  0.00  0.00    +0.000 NA
ATOM     23  H   UNL     1      47.480   5.951  14.616  0.00  0.00    +0.000 HD
BRANCH  20  24
ATOM     24  C   UNL     1      51.733   4.555  18.690  0.00  0.00    +0.000 C 
ATOM     25  N   UNL     1      51.331   4.211  19.953  0.00  0.00    +0.000 N 
ATOM     26  O   UNL     1      52.898   4.387  18.352  0.00  0.00    +0.000 OA
ATOM     27  H   UNL     1      50.408   4.342  20.341  0.00  0.00    +0.000 HD
ATOM     28  H   UNL     1      52.043   3.836  20.567  0.00  0.00    +0.000 HD
ENDBRANCH  20  24
ENDBRANCH  15  16
ENDBRANCH   1  15
TORSDOF 7
ENDMDL
MODEL 8
REMARK VINA RESULT:    -5.956      3.768      6.214
REMARK INTER + INTRA:          -9.163
REMARK INTER:                  -8.363
REMARK INTRA:                  -0.800
REMARK UNBOUND:                -0.770
REMARK  Name = 
REMARK  8 active torsions:
REMARK  status: ('A' for Active; 'I' for Inactive)
REMARK    1  A    between atoms: C_1  and  O_2
REMARK    2  A    between atoms: O_2  and  C_3
REMARK    3  A    between atoms: C_6  and  C_7
REMARK    4  A    between atoms: C_7  and  C_8
REMARK    5  A    between atoms: C_8  and  N_9
REMARK    6  A    between atoms: C_13  and  C_14
REMARK    7  A    between atoms: C_20  and  O_21
REMARK    8  A    between atoms: O_21  and  C_22
REMARK                            x       y       z     vdW  Elec       q    Type
REMARK                         _______ _______ _______ _____ _____    ______ ____
ROOT
ATOM      1  C   UNL     1      48.267   3.060  16.524  0.00  0.00    +0.000 C 
ENDROOT
BRANCH   1   5
ATOM      2  C   UNL     1      50.619   4.670  19.811  0.00  0.00    +0.000 A 
ATOM      3  C   UNL     1      51.227   4.229  18.626  0.00  0.00    +0.000 A 
ATOM      4  C   UNL     1      50.470   3.708  17.570  0.00  0.00    +0.000 A 
ATOM      5  C   UNL     1      49.082   3.609  17.672  0.00  0.00    +0.000 A 
ATOM      6  C   UNL     1      48.470   4.066  18.846  0.00  0.00    +0.000 A 
ATOM      7  C   UNL     1      49.224   4.577  19.919  0.00  0.00    +0.000 A 
BRANCH   2   9
ATOM      8  C   UNL     1      52.554   4.519  21.199  0.00  0.00    +0.000 C 
ATOM      9  O   UNL     1      51.328   5.166  20.872  0.00  0.00    +0.000 OA
ENDBRANCH   2   9
BRANCH   7  10
ATOM     10  O   UNL     1      48.437   5.015  20.962  0.00  0.00    +0.000 OA
BRANCH  10  11
ATOM     11  C   UNL     1      47.520   6.118  20.793  0.00  0.00    +0.000 C 
ATOM     12  C   UNL     1      48.063   7.416  20.150  0.00  0.00    +0.000 C 
ATOM     13  C   UNL     1      47.451   8.228  21.300  0.00  0.00    +0.000 C 
ATOM     14  C   UNL     1      47.296   6.929  22.096  0.00  0.00    +0.000 C 
ENDBRANCH  10  11
ENDBRANCH   7  10
ENDBRANCH   1   5
BRANCH   1  15
ATOM     15  C   UNL     1      47.044   3.932  16.228  0.00  0.00    +0.000 C 
BRANCH  15  16
ATOM     16  N   UNL     1      47.393   5.058  15.347  0.00  0.00    +0.000 N 
ATOM     17  C   UNL     1      46.742   4.987  14.099  0.00  0.00    +0.000 A 
ATOM     18  C   UNL     1      46.993   5.969  13.146  0.00  0.00    +0.000 A 
ATOM     19  C   UNL     1      46.364   5.896  11.898  0.00  0.00    +0.000 A 
ATOM     20  C   UNL     1      45.488   4.844  11.626  0.00  0.00    +0.000 A 
ATOM     21  C   UNL     1      45.274   3.930  12.641  0.00  0.00    +0.000 A 
ATOM     22  N   UNL     1      45.874   3.985  13.855  0.00  0.00    +0.000 NA
ATOM     23  H   UNL     1      48.395   5.122  15.183  0.00  0.00    +0.000 HD
BRANCH  20  24
ATOM     24  C   UNL     1      44.842   4.747  10.296  0.00  0.00    +0.000 C 
ATOM     25  N   UNL     1      45.464   5.301   9.211  0.00  0.00    +0.000 N 
ATOM     26  O   UNL     1      43.758   4.192  10.164  0.00  0.00    +0.000 OA
ATOM     27  H   UNL     1      46.337   5.810   9.219  0.00  0.00    +0.000 HD
ATOM     28  H   UNL     1      44.976   5.234   8.327  0.00  0.00    +0.000 HD
ENDBRANCH  20  24
ENDBRANCH  15  16
ENDBRANCH   1  15
TORSDOF 7
ENDMDL
MODEL 9
REMARK VINA RESULT:    -5.911      3.734      5.461
REMARK INTER + INTRA:          -9.100
REMARK INTER:                  -7.900
REMARK INTRA:                  -1.200
REMARK UNBOUND:                -0.770
REMARK  Name = 
REMARK  8 active torsions:
REMARK  status: ('A' for Active; 'I' for Inactive)
REMARK    1  A    between atoms: C_1  and  O_2
REMARK    2  A    between atoms: O_2  and  C_3
REMARK    3  A    between atoms: C_6  and  C_7
REMARK    4  A    between atoms: C_7  and  C_8
REMARK    5  A    between atoms: C_8  and  N_9
REMARK    6  A    between atoms: C_13  and  C_14
REMARK    7  A    between atoms: C_20  and  O_21
REMARK    8  A    between atoms: O_21  and  C_22
REMARK                            x       y       z     vdW  Elec       q    Type
REMARK                         _______ _______ _______ _____ _____    ______ ____
ROOT
ATOM      1  C   UNL     1      49.674   8.429  13.836  0.00  0.00    +0.000 C 
ENDROOT
BRANCH   1   5
ATOM      2  C   UNL     1      48.687   7.483  17.967  0.00  0.00    +0.000 A 
ATOM      3  C   UNL     1      48.325   8.711  17.392  0.00  0.00    +0.000 A 
ATOM      4  C   UNL     1      48.645   9.016  16.064  0.00  0.00    +0.000 A 
ATOM      5  C   UNL     1      49.342   8.102  15.274  0.00  0.00    +0.000 A 
ATOM      6  C   UNL     1      49.690   6.868  15.839  0.00  0.00    +0.000 A 
ATOM      7  C   UNL     1      49.386   6.558  17.177  0.00  0.00    +0.000 A 
BRANCH   2   9
ATOM      8  C   UNL     1      47.189   6.469  19.523  0.00  0.00    +0.000 C 
ATOM      9  O   UNL     1      48.409   7.159  19.267  0.00  0.00    +0.000 OA
ENDBRANCH   2   9
BRANCH   7  10
ATOM     10  O   UNL     1      49.769   5.283  17.530  0.00  0.00    +0.000 OA
BRANCH  10  11
ATOM     11  C   UNL     1      49.059   4.127  17.034  0.00  0.00    +0.000 C 
ATOM     12  C   UNL     1      47.545   4.274  16.756  0.00  0.00    +0.000 C 
ATOM     13  C   UNL     1      47.283   2.996  17.565  0.00  0.00    +0.000 C 
ATOM     14  C   UNL     1      48.694   3.112  18.149  0.00  0.00    +0.000 C 
ENDBRANCH  10  11
ENDBRANCH   7  10
ENDBRANCH   1   5
BRANCH   1  15
ATOM     15  C   UNL     1      49.404   7.241  12.908  0.00  0.00    +0.000 C 
BRANCH  15  16
ATOM     16  N   UNL     1      48.274   7.514  12.007  0.00  0.00    +0.000 N 
ATOM     17  C   UNL     1      47.168   6.677  12.263  0.00  0.00    +0.000 A 
ATOM     18  C   UNL     1      46.029   6.798  11.472  0.00  0.00    +0.000 A 
ATOM     19  C   UNL     1      44.934   5.960  11.709  0.00  0.00    +0.000 A 
ATOM     20  C   UNL     1      44.994   5.018  12.738  0.00  0.00    +0.000 A 
ATOM     21  C   UNL     1      46.152   4.988  13.492  0.00  0.00    +0.000 A 
ATOM     22  N   UNL     1      47.221   5.792  13.278  0.00  0.00    +0.000 NA
ATOM     23  H   UNL     1      48.529   7.415  11.028  0.00  0.00    +0.000 HD
BRANCH  20  24
ATOM     24  C   UNL     1      43.848   4.109  12.973  0.00  0.00    +0.000 C 
ATOM     25  N   UNL     1      43.970   2.784  12.652  0.00  0.00    +0.000 N 
ATOM     26  O   UNL     1      42.794   4.532  13.435  0.00  0.00    +0.000 OA
ATOM     27  H   UNL     1      44.778   2.344  12.234  0.00  0.00    +0.000 HD
ATOM     28  H   UNL     1      43.155   2.204  12.806  0.00  0.00    +0.000 HD
ENDBRANCH  20  24
ENDBRANCH  15  16
ENDBRANCH   1  15
TORSDOF 7
ENDMDL
