MODEL 1
REMARK VINA RESULT:    -7.304      0.000      0.000
REMARK INTER + INTRA:         -10.389
REMARK INTER:                  -9.439
REMARK INTRA:                  -0.949
REMARK UNBOUND:                -0.949
REMARK  Name = 
REMARK  5 active torsions:
REMARK  status: ('A' for Active; 'I' for Inactive)
REMARK    1  A    between atoms: C_2  and  C_4
REMARK    2  A    between atoms: C_8  and  O_9
REMARK    3  A    between atoms: O_9  and  C_10
REMARK    4  A    between atoms: C_10  and  C_11
REMARK    5  A    between atoms: C_16  and  N_17
REMARK                            x       y       z     vdW  Elec       q    Type
REMARK                         _______ _______ _______ _____ _____    ______ ____
ROOT
ATOM      1  C   UNL     1      44.661   5.395  10.847  0.00  0.00    +0.000 C 
ENDROOT
BRANCH   1   2
ATOM      2  C   UNL     1      45.666   5.544  11.960  0.00  0.00    +0.000 A 
ATOM      3  C   UNL     1      45.789   4.571  12.953  0.00  0.00    +0.000 A 
ATOM      4  C   UNL     1      46.765   4.715  13.930  0.00  0.00    +0.000 A 
ATOM      5  F   UNL     1      46.887   3.777  14.879  0.00  0.00    +0.000 F 
ATOM      6  C   UNL     1      47.621   5.813  13.941  0.00  0.00    +0.000 A 
ATOM      7  C   UNL     1      47.521   6.819  12.970  0.00  0.00    +0.000 A 
ATOM      8  C   UNL     1      46.527   6.657  11.990  0.00  0.00    +0.000 A 
BRANCH   7   9
ATOM      9  N   UNL     1      48.354   7.923  12.988  0.00  0.00    +0.000 N 
ATOM     10  C   UNL     1      47.831   9.291  12.971  0.00  0.00    +0.000 C 
ATOM     11  C   UNL     1      48.208   9.993  11.668  0.00  0.00    +0.000 C 
ATOM     12  C   UNL     1      49.708   9.895  11.395  0.00  0.00    +0.000 C 
ATOM     13  C   UNL     1      50.183   8.445  11.450  0.00  0.00    +0.000 C 
ATOM     14  C   UNL     1      49.796   7.779  12.773  0.00  0.00    +0.000 C 
ENDBRANCH   7   9
ENDBRANCH   1   2
BRANCH   1  15
ATOM     15  O   UNL     1      45.306   5.410   9.567  0.00  0.00    +0.000 OA
BRANCH  15  20
ATOM     16  C   UNL     1      46.444   2.658   7.593  0.00  0.00    +0.000 A 
ATOM     17  C   UNL     1      45.699   1.588   8.070  0.00  0.00    +0.000 A 
ATOM     18  C   UNL     1      44.790   1.830   9.093  0.00  0.00    +0.000 A 
ATOM     19  C   UNL     1      44.658   3.127   9.599  0.00  0.00    +0.000 A 
ATOM     20  C   UNL     1      45.448   4.133   9.058  0.00  0.00    +0.000 A 
ATOM     21  N   UNL     1      46.341   3.925   8.067  0.00  0.00    +0.000 NA
BRANCH  16  23
ATOM     22  N   UNL     1      47.243   3.209   5.364  0.00  0.00    +0.000 N 
ATOM     23  C   UNL     1      47.430   2.447   6.490  0.00  0.00    +0.000 C 
ATOM     24  O   UNL     1      48.356   1.657   6.580  0.00  0.00    +0.000 OA
ATOM     25  H   UNL     1      47.917   3.139   4.617  0.00  0.00    +0.000 HD
ATOM     26  H   UNL     1      46.536   3.932   5.351  0.00  0.00    +0.000 HD
ENDBRANCH  16  23
ENDBRANCH  15  20
ENDBRANCH   1  15
TORSDOF 5
ENDMDL
MODEL 2
REMARK VINA RESULT:    -7.302      4.109      7.849
REMARK INTER + INTRA:         -10.386
REMARK INTER:                  -9.646
REMARK INTRA:                  -0.740
REMARK UNBOUND:                -0.949
REMARK  Name = 
REMARK  5 active torsions:
REMARK  status: ('A' for Active; 'I' for Inactive)
REMARK    1  A    between atoms: C_2  and  C_4
REMARK    2  A    between atoms: C_8  and  O_9
REMARK    3  A    between atoms: O_9  and  C_10
REMARK    4  A    between atoms: C_10  and  C_11
REMARK    5  A    between atoms: C_16  and  N_17
REMARK                            x       y       z     vdW  Elec       q    Type
REMARK                         _______ _______ _______ _____ _____    ______ ____
ROOT
ATOM      1  C   UNL     1      46.919   4.133  13.749  0.00  0.00    +0.000 C 
ENDROOT
BRANCH   1   2
ATOM      2  C   UNL     1      45.686   4.193  12.883  0.00  0.00    +0.000 A 
ATOM      3  C   UNL     1      44.498   4.747  13.360  0.00  0.00    +0.000 A 
ATOM      4  C   UNL     1      43.400   4.836  12.515  0.00  0.00    +0.000 A 
ATOM      5  F   UNL     1      42.262   5.375  12.972  0.00  0.00    +0.000 F 
ATOM      6  C   UNL     1      43.460   4.378  11.201  0.00  0.00    +0.000 A 
ATOM      7  C   UNL     1      44.631   3.802  10.688  0.00  0.00    +0.000 A 
ATOM      8  C   UNL     1      45.730   3.720  11.558  0.00  0.00    +0.000 A 
BRANCH   7   9
ATOM      9  N   UNL     1      44.691   3.326   9.391  0.00  0.00    +0.000 N 
ATOM     10  C   UNL     1      44.712   1.893   9.089  0.00  0.00    +0.000 C 
ATOM     11  C   UNL     1      46.054   1.494   8.476  0.00  0.00    +0.000 C 
ATOM     12  C   UNL     1      46.411   2.387   7.289  0.00  0.00    +0.000 C 
ATOM     13  C   UNL     1      46.346   3.864   7.673  0.00  0.00    +0.000 C 
ATOM     14  C   UNL     1      44.986   4.227   8.274  0.00  0.00    +0.000 C 
ENDBRANCH   7   9
ENDBRANCH   1   2
BRANCH   1  15
ATOM     15  O   UNL     1      46.582   3.793  15.099  0.00  0.00    +0.000 OA
BRANCH  15  20
ATOM     16  C   UNL     1      49.557   3.424  17.044  0.00  0.00    +0.000 A 
ATOM     17  C   UNL     1      49.675   4.647  17.690  0.00  0.00    +0.000 A 
ATOM     18  C   UNL     1      48.705   5.611  17.443  0.00  0.00    +0.000 A 
ATOM     19  C   UNL     1      47.657   5.319  16.565  0.00  0.00    +0.000 A 
ATOM     20  C   UNL     1      47.625   4.068  15.965  0.00  0.00    +0.000 A 
ATOM     21  N   UNL     1      48.555   3.114  16.183  0.00  0.00    +0.000 NA
BRANCH  16  23
ATOM     22  N   UNL     1      51.599   2.679  18.131  0.00  0.00    +0.000 N 
ATOM     23  C   UNL     1      50.573   2.353  17.281  0.00  0.00    +0.000 C 
ATOM     24  O   UNL     1      50.497   1.251  16.764  0.00  0.00    +0.000 OA
ATOM     25  H   UNL     1      52.278   1.969  18.362  0.00  0.00    +0.000 HD
ATOM     26  H   UNL     1      51.587   3.559  18.631  0.00  0.00    +0.000 HD
ENDBRANCH  16  23
ENDBRANCH  15  20
ENDBRANCH   1  15
TORSDOF 5
ENDMDL
MODEL 3
REMARK VINA RESULT:    -7.256      2.978      7.440
REMARK INTER + INTRA:         -10.327
REMARK INTER:                  -9.408
REMARK INTRA:                  -0.919
REMARK UNBOUND:                -0.949
REMARK  Name = 
REMARK  5 active torsions:
REMARK  status: ('A' for Active; 'I' for Inactive)
REMARK    1  A    between atoms: C_2  and  C_4
REMARK    2  A    between atoms: C_8  and  O_9
REMARK    3  A    between atoms: O_9  and  C_10
REMARK    4  A    between atoms: C_10  and  C_11
REMARK    5  A    between atoms: C_16  and  N_17
REMARK                            x       y       z     vdW  Elec       q    Type
REMARK                         _______ _______ _______ _____ _____    ______ ____
ROOT
ATOM      1  C   UNL     1      46.705   6.867  12.446  0.00  0.00    +0.000 C 
ENDROOT
BRANCH   1   2
ATOM      2  C   UNL     1      45.613   5.877  12.131  0.00  0.00    +0.000 A 
ATOM      3  C   UNL     1      44.566   5.651  13.026  0.00  0.00    +0.000 A 
ATOM      4  C   UNL     1      43.548   4.775  12.676  0.00  0.00    +0.000 A 
ATOM      5  F   UNL     1      42.539   4.564  13.533  0.00  0.00    +0.000 F 
ATOM      6  C   UNL     1      43.554   4.112  11.451  0.00  0.00    +0.000 A 
ATOM      7  C   UNL     1      44.594   4.300  10.531  0.00  0.00    +0.000 A 
ATOM      8  C   UNL     1      45.615   5.190  10.903  0.00  0.00    +0.000 A 
BRANCH   7   9
ATOM      9  N   UNL     1      44.617   3.629   9.322  0.00  0.00    +0.000 N 
ATOM     10  C   UNL     1      44.511   2.170   9.240  0.00  0.00    +0.000 C 
ATOM     11  C   UNL     1      45.814   1.566   8.719  0.00  0.00    +0.000 C 
ATOM     12  C   UNL     1      46.256   2.233   7.418  0.00  0.00    +0.000 C 
ATOM     13  C   UNL     1      46.322   3.751   7.573  0.00  0.00    +0.000 C 
ATOM     14  C   UNL     1      44.998   4.319   8.087  0.00  0.00    +0.000 C 
ENDBRANCH   7   9
ENDBRANCH   1   2
BRANCH   1  15
ATOM     15  O   UNL     1      47.930   6.196  12.766  0.00  0.00    +0.000 OA
BRANCH  15  20
ATOM     16  C   UNL     1      48.043   5.139  16.176  0.00  0.00    +0.000 A 
ATOM     17  C   UNL     1      48.635   6.212  16.828  0.00  0.00    +0.000 A 
ATOM     18  C   UNL     1      48.999   7.318  16.068  0.00  0.00    +0.000 A 
ATOM     19  C   UNL     1      48.758   7.310  14.691  0.00  0.00    +0.000 A 
ATOM     20  C   UNL     1      48.162   6.189  14.128  0.00  0.00    +0.000 A 
ATOM     21  N   UNL     1      47.802   5.100  14.842  0.00  0.00    +0.000 NA
BRANCH  16  23
ATOM     22  N   UNL     1      48.569   3.422  17.816  0.00  0.00    +0.000 N 
ATOM     23  C   UNL     1      47.631   3.930  16.953  0.00  0.00    +0.000 C 
ATOM     24  O   UNL     1      46.526   3.424  16.842  0.00  0.00    +0.000 OA
ATOM     25  H   UNL     1      48.314   2.640  18.400  0.00  0.00    +0.000 HD
ATOM     26  H   UNL     1      49.438   3.917  17.971  0.00  0.00    +0.000 HD
ENDBRANCH  16  23
ENDBRANCH  15  20
ENDBRANCH   1  15
TORSDOF 5
ENDMDL
MODEL 4
REMARK VINA RESULT:    -7.206      4.248      8.261
REMARK INTER + INTRA:         -10.261
REMARK INTER:                  -9.489
REMARK INTRA:                  -0.772
REMARK UNBOUND:                -0.949
REMARK  Name = 
REMARK  5 active torsions:
REMARK  status: ('A' for Active; 'I' for Inactive)
REMARK    1  A    between atoms: C_2  and  C_4
REMARK    2  A    between atoms: C_8  and  O_9
REMARK    3  A    between atoms: O_9  and  C_10
REMARK    4  A    between atoms: C_10  and  C_11
REMARK    5  A    between atoms: C_16  and  N_17
REMARK                            x       y       z     vdW  Elec       q    Type
REMARK                         _______ _______ _______ _____ _____    ______ ____
ROOT
ATOM      1  C   UNL     1      46.668   3.805  13.761  0.00  0.00    +0.000 C 
ENDROOT
BRANCH   1   2
ATOM      2  C   UNL     1      45.500   3.977  12.823  0.00  0.00    +0.000 A 
ATOM      3  C   UNL     1      44.338   4.630  13.234  0.00  0.00    +0.000 A 
ATOM      4  C   UNL     1      43.306   4.820  12.325  0.00  0.00    +0.000 A 
ATOM      5  F   UNL     1      42.192   5.454  12.719  0.00  0.00    +0.000 F 
ATOM      6  C   UNL     1      43.406   4.366  11.012  0.00  0.00    +0.000 A 
ATOM      7  C   UNL     1      44.550   3.692  10.565  0.00  0.00    +0.000 A 
ATOM      8  C   UNL     1      45.584   3.509  11.498  0.00  0.00    +0.000 A 
BRANCH   7   9
ATOM      9  N   UNL     1      44.647   3.220   9.268  0.00  0.00    +0.000 N 
ATOM     10  C   UNL     1      44.774   1.792   8.968  0.00  0.00    +0.000 C 
ATOM     11  C   UNL     1      46.141   1.490   8.359  0.00  0.00    +0.000 C 
ATOM     12  C   UNL     1      46.436   2.405   7.171  0.00  0.00    +0.000 C 
ATOM     13  C   UNL     1      46.263   3.874   7.552  0.00  0.00    +0.000 C 
ATOM     14  C   UNL     1      44.879   4.138   8.150  0.00  0.00    +0.000 C 
ENDBRANCH   7   9
ENDBRANCH   1   2
BRANCH   1  15
ATOM     15  O   UNL     1      46.361   4.318  15.063  0.00  0.00    +0.000 OA
BRANCH  15  20
ATOM     16  C   UNL     1      48.222   4.035  18.100  0.00  0.00    +0.000 A 
ATOM     17  C   UNL     1      49.084   2.975  17.853  0.00  0.00    +0.000 A 
ATOM     18  C   UNL     1      49.015   2.352  16.612  0.00  0.00    +0.000 A 
ATOM     19  C   UNL     1      48.091   2.810  15.667  0.00  0.00    +0.000 A 
ATOM     20  C   UNL     1      47.269   3.876  16.007  0.00  0.00    +0.000 A 
ATOM     21  N   UNL     1      47.312   4.497  17.206  0.00  0.00    +0.000 NA
BRANCH  16  23
ATOM     22  N   UNL     1      47.237   5.616  19.662  0.00  0.00    +0.000 N 
ATOM     23  C   UNL     1      48.263   4.739  19.418  0.00  0.00    +0.000 C 
ATOM     24  O   UNL     1      49.145   4.544  20.239  0.00  0.00    +0.000 OA
ATOM     25  H   UNL     1      47.195   6.071  20.561  0.00  0.00    +0.000 HD
ATOM     26  H   UNL     1      46.461   5.684  19.016  0.00  0.00    +0.000 HD
ENDBRANCH  16  23
ENDBRANCH  15  20
ENDBRANCH   1  15
TORSDOF 5
ENDMDL
MODEL 5
REMARK VINA RESULT:    -6.996      3.915      7.906
REMARK INTER + INTRA:          -9.990
REMARK INTER:                  -8.989
REMARK INTRA:                  -1.001
REMARK UNBOUND:                -0.949
REMARK  Name = 
REMARK  5 active torsions:
REMARK  status: ('A' for Active; 'I' for Inactive)
REMARK    1  A    between atoms: C_2  and  C_4
REMARK    2  A    between atoms: C_8  and  O_9
REMARK    3  A    between atoms: O_9  and  C_10
REMARK    4  A    between atoms: C_10  and  C_11
REMARK    5  A    between atoms: C_16  and  N_17
REMARK                            x       y       z     vdW  Elec       q    Type
REMARK                         _______ _______ _______ _____ _____    ______ ____
ROOT
ATOM      1  C   UNL     1      48.983   7.814  14.069  0.00  0.00    +0.000 C 
ENDROOT
BRANCH   1   2
ATOM      2  C   UNL     1      47.618   7.674  13.445  0.00  0.00    +0.000 A 
ATOM      3  C   UNL     1      46.744   8.759  13.376  0.00  0.00    +0.000 A 
ATOM      4  C   UNL     1      45.518   8.607  12.743  0.00  0.00    +0.000 A 
ATOM      5  F   UNL     1      44.681   9.652  12.671  0.00  0.00    +0.000 F 
ATOM      6  C   UNL     1      45.141   7.390  12.180  0.00  0.00    +0.000 A 
ATOM      7  C   UNL     1      45.984   6.272  12.241  0.00  0.00    +0.000 A 
ATOM      8  C   UNL     1      47.220   6.446  12.886  0.00  0.00    +0.000 A 
BRANCH   7   9
ATOM      9  N   UNL     1      45.607   5.055  11.703  0.00  0.00    +0.000 N 
ATOM     10  C   UNL     1      45.121   4.930  10.327  0.00  0.00    +0.000 C 
ATOM     11  C   UNL     1      43.651   4.516  10.313  0.00  0.00    +0.000 C 
ATOM     12  C   UNL     1      43.413   3.276  11.174  0.00  0.00    +0.000 C 
ATOM     13  C   UNL     1      43.964   3.472  12.584  0.00  0.00    +0.000 C 
ATOM     14  C   UNL     1      45.440   3.877  12.557  0.00  0.00    +0.000 C 
ENDBRANCH   7   9
ENDBRANCH   1   2
BRANCH   1  15
ATOM     15  O   UNL     1      49.434   6.564  14.604  0.00  0.00    +0.000 OA
BRANCH  15  20
ATOM     16  C   UNL     1      48.100   4.998  17.525  0.00  0.00    +0.000 A 
ATOM     17  C   UNL     1      48.067   6.027  18.457  0.00  0.00    +0.000 A 
ATOM     18  C   UNL     1      48.516   7.281  18.061  0.00  0.00    +0.000 A 
ATOM     19  C   UNL     1      48.979   7.461  16.753  0.00  0.00    +0.000 A 
ATOM     20  C   UNL     1      48.975   6.371  15.893  0.00  0.00    +0.000 A 
ATOM     21  N   UNL     1      48.548   5.141  16.253  0.00  0.00    +0.000 NA
BRANCH  16  23
ATOM     22  N   UNL     1      48.272   3.041  18.956  0.00  0.00    +0.000 N 
ATOM     23  C   UNL     1      47.622   3.633  17.903  0.00  0.00    +0.000 C 
ATOM     24  O   UNL     1      46.704   3.075  17.324  0.00  0.00    +0.000 OA
ATOM     25  H   UNL     1      47.947   2.143  19.280  0.00  0.00    +0.000 HD
ATOM     26  H   UNL     1      48.957   3.561  19.489  0.00  0.00    +0.000 HD
ENDBRANCH  16  23
ENDBRANCH  15  20
ENDBRANCH   1  15
TORSDOF 5
ENDMDL
MODEL 6
REMARK VINA RESULT:    -6.944      2.602      7.232
REMARK INTER + INTRA:          -9.923
REMARK INTER:                  -8.969
REMARK INTRA:                  -0.955
REMARK UNBOUND:                -0.949
REMARK  Name = 
REMARK  5 active torsions:
REMARK  status: ('A' for Active; 'I' for Inactive)
REMARK    1  A    between atoms: C_2  and  C_4
REMARK    2  A    between atoms: C_8  and  O_9
REMARK    3  A    between atoms: O_9  and  C_10
REMARK    4  A    between atoms: C_10  and  C_11
REMARK    5  A    between atoms: C_16  and  N_17
REMARK                            x       y       z     vdW  Elec       q    Type
REMARK                         _______ _______ _______ _____ _____    ______ ____
ROOT
ATOM      1  C   UNL     1      45.333   6.813  11.382  0.00  0.00    +0.000 C 
ENDROOT
BRANCH   1   2
ATOM      2  C   UNL     1      44.956   5.366  11.184  0.00  0.00    +0.000 A 
ATOM      3  C   UNL     1      44.321   4.644  12.195  0.00  0.00    +0.000 A 
ATOM      4  C   UNL     1      43.937   3.331  11.955  0.00  0.00    +0.000 A 
ATOM      5  F   UNL     1      43.321   2.641  12.924  0.00  0.00    +0.000 F 
ATOM      6  C   UNL     1      44.179   2.720  10.728  0.00  0.00    +0.000 A 
ATOM      7  C   UNL     1      44.827   3.406   9.692  0.00  0.00    +0.000 A 
ATOM      8  C   UNL     1      45.208   4.733   9.953  0.00  0.00    +0.000 A 
BRANCH   7   9
ATOM      9  N   UNL     1      45.090   2.798   8.478  0.00  0.00    +0.000 N 
ATOM     10  C   UNL     1      45.284   1.351   8.359  0.00  0.00    +0.000 C 
ATOM     11  C   UNL     1      46.721   1.035   7.950  0.00  0.00    +0.000 C 
ATOM     12  C   UNL     1      47.134   1.824   6.709  0.00  0.00    +0.000 C 
ATOM     13  C   UNL     1      46.883   3.318   6.898  0.00  0.00    +0.000 C 
ATOM     14  C   UNL     1      45.432   3.596   7.298  0.00  0.00    +0.000 C 
ENDBRANCH   7   9
ENDBRANCH   1   2
BRANCH   1  15
ATOM     15  O   UNL     1      45.745   7.056  12.732  0.00  0.00    +0.000 OA
BRANCH  15  20
ATOM     16  C   UNL     1      49.063   7.177  14.052  0.00  0.00    +0.000 A 
ATOM     17  C   UNL     1      49.831   7.560  12.960  0.00  0.00    +0.000 A 
ATOM     18  C   UNL     1      49.183   7.777  11.750  0.00  0.00    +0.000 A 
ATOM     19  C   UNL     1      47.798   7.606  11.675  0.00  0.00    +0.000 A 
ATOM     20  C   UNL     1      47.115   7.220  12.821  0.00  0.00    +0.000 A 
ATOM     21  N   UNL     1      47.719   6.999  14.008  0.00  0.00    +0.000 NA
BRANCH  16  23
ATOM     22  N   UNL     1      50.496   7.958  15.854  0.00  0.00    +0.000 N 
ATOM     23  C   UNL     1      49.715   6.937  15.375  0.00  0.00    +0.000 C 
ATOM     24  O   UNL     1      49.559   5.904  16.005  0.00  0.00    +0.000 OA
ATOM     25  H   UNL     1      50.910   7.861  16.768  0.00  0.00    +0.000 HD
ATOM     26  H   UNL     1      50.526   8.846  15.368  0.00  0.00    +0.000 HD
ENDBRANCH  16  23
ENDBRANCH  15  20
ENDBRANCH   1  15
TORSDOF 5
ENDMDL
MODEL 7
REMARK VINA RESULT:    -6.916      3.026      7.379
REMARK INTER + INTRA:          -9.887
REMARK INTER:                  -8.921
REMARK INTRA:                  -0.966
REMARK UNBOUND:                -0.949
REMARK  Name = 
REMARK  5 active torsions:
REMARK  status: ('A' for Active; 'I' for Inactive)
REMARK    1  A    between atoms: C_2  and  C_4
REMARK    2  A    between atoms: C_8  and  O_9
REMARK    3  A    between atoms: O_9  and  C_10
REMARK    4  A    between atoms: C_10  and  C_11
REMARK    5  A    between atoms: C_16  and  N_17
REMARK                            x       y       z     vdW  Elec       q    Type
REMARK                         _______ _______ _______ _____ _____    ______ ____
ROOT
ATOM      1  C   UNL     1      46.883   6.821  12.488  0.00  0.00    +0.000 C 
ENDROOT
BRANCH   1   2
ATOM      2  C   UNL     1      45.749   5.891  12.139  0.00  0.00    +0.000 A 
ATOM      3  C   UNL     1      44.667   5.719  13.002  0.00  0.00    +0.000 A 
ATOM      4  C   UNL     1      43.614   4.899  12.619  0.00  0.00    +0.000 A 
ATOM      5  F   UNL     1      42.572   4.741  13.447  0.00  0.00    +0.000 F 
ATOM      6  C   UNL     1      43.620   4.240  11.393  0.00  0.00    +0.000 A 
ATOM      7  C   UNL     1      44.695   4.374  10.504  0.00  0.00    +0.000 A 
ATOM      8  C   UNL     1      45.751   5.208  10.908  0.00  0.00    +0.000 A 
BRANCH   7   9
ATOM      9  N   UNL     1      44.717   3.705   9.293  0.00  0.00    +0.000 N 
ATOM     10  C   UNL     1      44.527   2.256   9.202  0.00  0.00    +0.000 C 
ATOM     11  C   UNL     1      45.807   1.576   8.721  0.00  0.00    +0.000 C 
ATOM     12  C   UNL     1      46.330   2.218   7.437  0.00  0.00    +0.000 C 
ATOM     13  C   UNL     1      46.482   3.729   7.600  0.00  0.00    +0.000 C 
ATOM     14  C   UNL     1      45.178   4.375   8.074  0.00  0.00    +0.000 C 
ENDBRANCH   7   9
ENDBRANCH   1   2
BRANCH   1  15
ATOM     15  O   UNL     1      46.431   7.888  13.331  0.00  0.00    +0.000 OA
BRANCH  15  20
ATOM     16  C   UNL     1      44.785  10.519  11.562  0.00  0.00    +0.000 A 
ATOM     17  C   UNL     1      45.828  11.347  11.171  0.00  0.00    +0.000 A 
ATOM     18  C   UNL     1      47.120  10.983  11.529  0.00  0.00    +0.000 A 
ATOM     19  C   UNL     1      47.322   9.809  12.261  0.00  0.00    +0.000 A 
ATOM     20  C   UNL     1      46.216   9.046  12.608  0.00  0.00    +0.000 A 
ATOM     21  N   UNL     1      44.949   9.378  12.276  0.00  0.00    +0.000 NA
BRANCH  16  23
ATOM     22  N   UNL     1      42.507  11.027  12.243  0.00  0.00    +0.000 N 
ATOM     23  C   UNL     1      43.378  10.867  11.196  0.00  0.00    +0.000 C 
ATOM     24  O   UNL     1      43.018  11.013  10.039  0.00  0.00    +0.000 OA
ATOM     25  H   UNL     1      41.561  11.316  12.045  0.00  0.00    +0.000 HD
ATOM     26  H   UNL     1      42.848  11.007  13.196  0.00  0.00    +0.000 HD
ENDBRANCH  16  23
ENDBRANCH  15  20
ENDBRANCH   1  15
TORSDOF 5
ENDMDL
MODEL 8
REMARK VINA RESULT:    -6.754      2.835      4.729
REMARK INTER + INTRA:          -9.678
REMARK INTER:                  -8.771
REMARK INTRA:                  -0.907
REMARK UNBOUND:                -0.949
REMARK  Name = 
REMARK  5 active torsions:
REMARK  status: ('A' for Active; 'I' for Inactive)
REMARK    1  A    between atoms: C_2  and  C_4
REMARK    2  A    between atoms: C_8  and  O_9
REMARK    3  A    between atoms: O_9  and  C_10
REMARK    4  A    between atoms: C_10  and  C_11
REMARK    5  A    between atoms: C_16  and  N_17
REMARK                            x       y       z     vdW  Elec       q    Type
REMARK                         _______ _______ _______ _____ _____    ______ ____
ROOT
ATOM      1  C   UNL     1      46.721   6.527  11.671  0.00  0.00    +0.000 C 
ENDROOT
BRANCH   1   2
ATOM      2  C   UNL     1      47.740   6.695  12.769  0.00  0.00    +0.000 A 
ATOM      3  C   UNL     1      48.816   7.572  12.625  0.00  0.00    +0.000 A 
ATOM      4  C   UNL     1      49.701   7.744  13.680  0.00  0.00    +0.000 A 
ATOM      5  F   UNL     1      50.730   8.591  13.543  0.00  0.00    +0.000 F 
ATOM      6  C   UNL     1      49.540   7.053  14.879  0.00  0.00    +0.000 A 
ATOM      7  C   UNL     1      48.481   6.152  15.058  0.00  0.00    +0.000 A 
ATOM      8  C   UNL     1      47.596   5.992  13.980  0.00  0.00    +0.000 A 
BRANCH   7   9
ATOM      9  N   UNL     1      48.328   5.446  16.238  0.00  0.00    +0.000 N 
ATOM     10  C   UNL     1      49.270   5.578  17.352  0.00  0.00    +0.000 C 
ATOM     11  C   UNL     1      50.027   4.270  17.571  0.00  0.00    +0.000 C 
ATOM     12  C   UNL     1      49.069   3.087  17.702  0.00  0.00    +0.000 C 
ATOM     13  C   UNL     1      48.106   3.027  16.519  0.00  0.00    +0.000 C 
ATOM     14  C   UNL     1      47.360   4.351  16.337  0.00  0.00    +0.000 C 
ENDBRANCH   7   9
ENDBRANCH   1   2
BRANCH   1  15
ATOM     15  O   UNL     1      45.396   6.437  12.209  0.00  0.00    +0.000 OA
BRANCH  15  20
ATOM     16  C   UNL     1      44.466   3.456  10.473  0.00  0.00    +0.000 A 
ATOM     17  C   UNL     1      43.641   2.800  11.377  0.00  0.00    +0.000 A 
ATOM     18  C   UNL     1      43.409   3.405  12.607  0.00  0.00    +0.000 A 
ATOM     19  C   UNL     1      44.004   4.638  12.886  0.00  0.00    +0.000 A 
ATOM     20  C   UNL     1      44.815   5.217  11.919  0.00  0.00    +0.000 A 
ATOM     21  N   UNL     1      45.061   4.650  10.718  0.00  0.00    +0.000 NA
BRANCH  16  23
ATOM     22  N   UNL     1      44.361   3.590   8.048  0.00  0.00    +0.000 N 
ATOM     23  C   UNL     1      44.741   2.847   9.136  0.00  0.00    +0.000 C 
ATOM     24  O   UNL     1      45.281   1.760   9.009  0.00  0.00    +0.000 OA
ATOM     25  H   UNL     1      44.578   3.242   7.126  0.00  0.00    +0.000 HD
ATOM     26  H   UNL     1      44.013   4.533   8.172  0.00  0.00    +0.000 HD
ENDBRANCH  16  23
ENDBRANCH  15  20
ENDBRANCH   1  15
TORSDOF 5
ENDMDL
MODEL 9
REMARK VINA RESULT:    -6.703      4.847      6.672
REMARK INTER + INTRA:          -9.612
REMARK INTER:                  -8.828
REMARK INTRA:                  -0.784
REMARK UNBOUND:                -0.949
REMARK  Name = 
REMARK  5 active torsions:
REMARK  status: ('A' for Active; 'I' for Inactive)
REMARK    1  A    between atoms: C_2  and  C_4
REMARK    2  A    between atoms: C_8  and  O_9
REMARK    3  A    between atoms: O_9  and  C_10
REMARK    4  A    between atoms: C_10  and  C_11
REMARK    5  A    between atoms: C_16  and  N_17
REMARK                            x       y       z     vdW  Elec       q    Type
REMARK                         _______ _______ _______ _____ _____    ______ ____
ROOT
ATOM      1  C   UNL     1      46.993   3.594  15.911  0.00  0.00    +0.000 C 
ENDROOT
BRANCH   1   2
ATOM      2  C   UNL     1      48.151   3.670  16.873  0.00  0.00    +0.000 A 
ATOM      3  C   UNL     1      49.281   2.871  16.704  0.00  0.00    +0.000 A 
ATOM      4  C   UNL     1      50.352   3.012  17.577  0.00  0.00    +0.000 A 
ATOM      5  F   UNL     1      51.440   2.248  17.409  0.00  0.00    +0.000 F 
ATOM      6  C   UNL     1      50.316   3.931  18.622  0.00  0.00    +0.000 A 
ATOM      7  C   UNL     1      49.194   4.742  18.835  0.00  0.00    +0.000 A 
ATOM      8  C   UNL     1      48.120   4.586  17.942  0.00  0.00    +0.000 A 
BRANCH   7   9
ATOM      9  N   UNL     1      49.143   5.642  19.885  0.00  0.00    +0.000 N 
ATOM     10  C   UNL     1      48.790   5.231  21.245  0.00  0.00    +0.000 C 
ATOM     11  C   UNL     1      47.459   5.851  21.665  0.00  0.00    +0.000 C 
ATOM     12  C   UNL     1      47.457   7.364  21.450  0.00  0.00    +0.000 C 
ATOM     13  C   UNL     1      47.855   7.716  20.018  0.00  0.00    +0.000 C 
ATOM     14  C   UNL     1      49.196   7.085  19.639  0.00  0.00    +0.000 C 
ENDBRANCH   7   9
ENDBRANCH   1   2
BRANCH   1  15
ATOM     15  O   UNL     1      47.431   3.178  14.612  0.00  0.00    +0.000 OA
BRANCH  15  20
ATOM     16  C   UNL     1      45.186   3.853  11.916  0.00  0.00    +0.000 A 
ATOM     17  C   UNL     1      45.416   5.192  11.632  0.00  0.00    +0.000 A 
ATOM     18  C   UNL     1      46.365   5.867  12.391  0.00  0.00    +0.000 A 
ATOM     19  C   UNL     1      47.047   5.182  13.400  0.00  0.00    +0.000 A 
ATOM     20  C   UNL     1      46.748   3.842  13.611  0.00  0.00    +0.000 A 
ATOM     21  N   UNL     1      45.829   3.163  12.891  0.00  0.00    +0.000 NA
BRANCH  16  23
ATOM     22  N   UNL     1      44.679   2.315  10.103  0.00  0.00    +0.000 N 
ATOM     23  C   UNL     1      44.179   3.084  11.123  0.00  0.00    +0.000 C 
ATOM     24  O   UNL     1      42.984   3.122  11.367  0.00  0.00    +0.000 OA
ATOM     25  H   UNL     1      44.040   1.737   9.577  0.00  0.00    +0.000 HD
ATOM     26  H   UNL     1      45.679   2.213   9.985  0.00  0.00    +0.000 HD
ENDBRANCH  16  23
ENDBRANCH  15  20
ENDBRANCH   1  15
TORSDOF 5
ENDMDL
