MODEL 1
REMARK VINA RESULT:    -8.221      0.000      0.000
REMARK INTER + INTRA:         -12.301
REMARK INTER:                 -11.585
REMARK INTRA:                  -0.715
REMARK UNBOUND:                -0.715
REMARK  Name = 
REMARK  10 active torsions:
REMARK  status: ('A' for Active; 'I' for Inactive)
REMARK    1  A    between atoms: C_1  and  C_2
REMARK    2  A    between atoms: C_5  and  C_6
REMARK    3  A    between atoms: N_8  and  C_9
REMARK    4  A    between atoms: C_9  and  C_10
REMARK    5  A    between atoms: C_13  and  C_14
REMARK    6  A    between atoms: C_14  and  N_15
REMARK    7  A    between atoms: N_15  and  C_16
REMARK    8  A    between atoms: N_15  and  C_17
REMARK    9  A    between atoms: C_17  and  C_18
REMARK   10  A    between atoms: C_30  and  C_31
REMARK                            x       y       z     vdW  Elec       q    Type
REMARK                         _______ _______ _______ _____ _____    ______ ____
ROOT
ATOM      1  C   UNL     1      48.643   7.196  14.181  0.00  0.00    +0.000 C 
ENDROOT
BRANCH   1   2
ATOM      2  C   UNL     1      47.618   6.546  13.290  0.00  0.00    +0.000 A 
ATOM      3  C   UNL     1      46.861   5.465  13.759  0.00  0.00    +0.000 A 
ATOM      4  C   UNL     1      45.885   4.878  12.952  0.00  0.00    +0.000 A 
ATOM      5  C   UNL     1      45.646   5.363  11.658  0.00  0.00    +0.000 A 
ATOM      6  C   UNL     1      46.435   6.412  11.171  0.00  0.00    +0.000 A 
ATOM      7  C   UNL     1      47.414   6.997  11.979  0.00  0.00    +0.000 A 
BRANCH   5   8
ATOM      8  C   UNL     1      44.524   4.786  10.812  0.00  0.00    +0.000 C 
BRANCH   8   9
ATOM      9  N   UNL     1      44.610   3.316  10.655  0.00  0.00    +0.000 NA
ATOM     10  C   UNL     1      43.679   2.634  11.564  0.00  0.00    +0.000 C 
BRANCH   9  11
ATOM     11  C   UNL     1      44.276   2.929   9.265  0.00  0.00    +0.000 C 
BRANCH  11  12
ATOM     12  C   UNL     1      45.458   2.518   8.405  0.00  0.00    +0.000 A 
ATOM     13  C   UNL     1      46.132   3.462   7.632  0.00  0.00    +0.000 A 
ATOM     14  C   UNL     1      47.238   3.055   6.890  0.00  0.00    +0.000 A 
ATOM     15  C   UNL     1      47.637   1.726   6.936  0.00  0.00    +0.000 A 
ATOM     16  C   UNL     1      46.904   0.848   7.717  0.00  0.00    +0.000 A 
ATOM     17  N   UNL     1      45.828   1.212   8.448  0.00  0.00    +0.000 NA
ENDBRANCH  11  12
ENDBRANCH   9  11
ENDBRANCH   8   9
ENDBRANCH   5   8
ENDBRANCH   1   2
BRANCH   1  20
ATOM     18  C   UNL     1      49.406   6.424  16.373  0.00  0.00    +0.000 C 
ATOM     19  O   UNL     1      50.546   6.235  15.963  0.00  0.00    +0.000 OA
ATOM     20  N   UNL     1      48.395   6.895  15.568  0.00  0.00    +0.000 N 
ATOM     21  H   UNL     1      47.578   7.300  16.005  0.00  0.00    +0.000 HD
BRANCH  18  26
ATOM     22  C   UNL     1      47.110  10.616  19.578  0.00  0.00    +0.000 C 
ATOM     23  C   UNL     1      47.496   9.169  19.692  0.00  0.00    +0.000 A 
ATOM     24  C   UNL     1      48.053   8.510  18.587  0.00  0.00    +0.000 A 
ATOM     25  C   UNL     1      48.447   7.157  18.702  0.00  0.00    +0.000 A 
ATOM     26  C   UNL     1      49.035   6.211  17.772  0.00  0.00    +0.000 A 
ATOM     27  C   UNL     1      49.187   4.967  18.365  0.00  0.00    +0.000 A 
ATOM     28  S   UNL     1      48.684   4.933  19.994  0.00  0.00    +0.000 S 
ATOM     29  C   UNL     1      48.214   6.567  19.939  0.00  0.00    +0.000 A 
ATOM     30  N   UNL     1      47.669   7.149  21.024  0.00  0.00    +0.000 NA
ATOM     31  C   UNL     1      47.318   8.443  20.874  0.00  0.00    +0.000 A 
ATOM     32  C   UNL     1      46.692   9.082  22.084  0.00  0.00    +0.000 C 
ENDBRANCH  18  26
ENDBRANCH   1  20
TORSDOF 7
ENDMDL
MODEL 2
REMARK VINA RESULT:    -7.900      1.629      2.703
REMARK INTER + INTRA:         -11.848
REMARK INTER:                 -10.945
REMARK INTRA:                  -0.903
REMARK UNBOUND:                -0.715
REMARK  Name = 
REMARK  10 active torsions:
REMARK  status: ('A' for Active; 'I' for Inactive)
REMARK    1  A    between atoms: C_1  and  C_2
REMARK    2  A    between atoms: C_5  and  C_6
REMARK    3  A    between atoms: N_8  and  C_9
REMARK    4  A    between atoms: C_9  and  C_10
REMARK    5  A    between atoms: C_13  and  C_14
REMARK    6  A    between atoms: C_14  and  N_15
REMARK    7  A    between atoms: N_15  and  C_16
REMARK    8  A    between atoms: N_15  and  C_17
REMARK    9  A    between atoms: C_17  and  C_18
REMARK   10  A    between atoms: C_30  and  C_31
REMARK                            x       y       z     vdW  Elec       q    Type
REMARK                         _______ _______ _______ _____ _____    ______ ____
ROOT
ATOM      1  C   UNL     1      47.394   8.978  13.214  0.00  0.00    +0.000 C 
ENDROOT
BRANCH   1   2
ATOM      2  C   UNL     1      46.566   7.916  12.540  0.00  0.00    +0.000 A 
ATOM      3  C   UNL     1      45.192   8.110  12.346  0.00  0.00    +0.000 A 
ATOM      4  C   UNL     1      44.425   7.145  11.693  0.00  0.00    +0.000 A 
ATOM      5  C   UNL     1      45.016   5.967  11.217  0.00  0.00    +0.000 A 
ATOM      6  C   UNL     1      46.380   5.752  11.451  0.00  0.00    +0.000 A 
ATOM      7  C   UNL     1      47.148   6.716  12.110  0.00  0.00    +0.000 A 
BRANCH   5   8
ATOM      8  C   UNL     1      44.202   4.958  10.426  0.00  0.00    +0.000 C 
BRANCH   8   9
ATOM      9  N   UNL     1      44.665   3.564  10.608  0.00  0.00    +0.000 NA
ATOM     10  C   UNL     1      44.033   2.949  11.783  0.00  0.00    +0.000 C 
BRANCH   9  11
ATOM     11  C   UNL     1      44.328   2.752   9.416  0.00  0.00    +0.000 C 
BRANCH  11  12
ATOM     12  C   UNL     1      45.487   2.466   8.478  0.00  0.00    +0.000 A 
ATOM     13  C   UNL     1      46.051   3.489   7.718  0.00  0.00    +0.000 A 
ATOM     14  C   UNL     1      47.141   3.197   6.901  0.00  0.00    +0.000 A 
ATOM     15  C   UNL     1      47.635   1.899   6.864  0.00  0.00    +0.000 A 
ATOM     16  C   UNL     1      47.008   0.938   7.638  0.00  0.00    +0.000 A 
ATOM     17  N   UNL     1      45.951   1.190   8.440  0.00  0.00    +0.000 NA
ENDBRANCH  11  12
ENDBRANCH   9  11
ENDBRANCH   8   9
ENDBRANCH   5   8
ENDBRANCH   1   2
BRANCH   1  20
ATOM     18  C   UNL     1      48.509   8.507  15.341  0.00  0.00    +0.000 C 
ATOM     19  O   UNL     1      49.589   8.328  14.789  0.00  0.00    +0.000 OA
ATOM     20  N   UNL     1      47.365   8.830  14.648  0.00  0.00    +0.000 N 
ATOM     21  H   UNL     1      46.594   9.242  15.154  0.00  0.00    +0.000 HD
BRANCH  18  26
ATOM     22  C   UNL     1      49.194   3.589  18.248  0.00  0.00    +0.000 C 
ATOM     23  C   UNL     1      48.888   5.037  18.504  0.00  0.00    +0.000 A 
ATOM     24  C   UNL     1      48.819   5.932  17.428  0.00  0.00    +0.000 A 
ATOM     25  C   UNL     1      48.499   7.289  17.663  0.00  0.00    +0.000 A 
ATOM     26  C   UNL     1      48.355   8.442  16.794  0.00  0.00    +0.000 A 
ATOM     27  C   UNL     1      48.080   9.584  17.530  0.00  0.00    +0.000 A 
ATOM     28  S   UNL     1      47.952   9.289  19.205  0.00  0.00    +0.000 S 
ATOM     29  C   UNL     1      48.302   7.637  18.995  0.00  0.00    +0.000 A 
ATOM     30  N   UNL     1      48.372   6.821  20.064  0.00  0.00    +0.000 NA
ATOM     31  C   UNL     1      48.669   5.533  19.793  0.00  0.00    +0.000 A 
ATOM     32  C   UNL     1      48.764   4.631  20.993  0.00  0.00    +0.000 C 
ENDBRANCH  18  26
ENDBRANCH   1  20
TORSDOF 7
ENDMDL
MODEL 3
REMARK VINA RESULT:    -7.706      2.822      3.632
REMARK INTER + INTRA:         -11.575
REMARK INTER:                 -10.739
REMARK INTRA:                  -0.835
REMARK UNBOUND:                -0.715
REMARK  Name = 
REMARK  10 active torsions:
REMARK  status: ('A' for Active; 'I' for Inactive)
REMARK    1  A    between atoms: C_1  and  C_2
REMARK    2  A    between atoms: C_5  and  C_6
REMARK    3  A    between atoms: N_8  and  C_9
REMARK    4  A    between atoms: C_9  and  C_10
REMARK    5  A    between atoms: C_13  and  C_14
REMARK    6  A    between atoms: C_14  and  N_15
REMARK    7  A    between atoms: N_15  and  C_16
REMARK    8  A    between atoms: N_15  and  C_17
REMARK    9  A    between atoms: C_17  and  C_18
REMARK   10  A    between atoms: C_30  and  C_31
REMARK                            x       y       z     vdW  Elec       q    Type
REMARK                         _______ _______ _______ _____ _____    ______ ____
ROOT
ATOM      1  C   UNL     1      47.308   8.826  13.656  0.00  0.00    +0.000 C 
ENDROOT
BRANCH   1   2
ATOM      2  C   UNL     1      46.519   7.850  12.823  0.00  0.00    +0.000 A 
ATOM      3  C   UNL     1      47.018   6.564  12.583  0.00  0.00    +0.000 A 
ATOM      4  C   UNL     1      46.277   5.643  11.841  0.00  0.00    +0.000 A 
ATOM      5  C   UNL     1      45.020   5.990  11.325  0.00  0.00    +0.000 A 
ATOM      6  C   UNL     1      44.542   7.291  11.525  0.00  0.00    +0.000 A 
ATOM      7  C   UNL     1      45.286   8.214  12.265  0.00  0.00    +0.000 A 
BRANCH   5   8
ATOM      8  C   UNL     1      44.174   4.961  10.596  0.00  0.00    +0.000 C 
BRANCH   8   9
ATOM      9  N   UNL     1      44.610   3.568  10.841  0.00  0.00    +0.000 NA
ATOM     10  C   UNL     1      43.968   3.020  12.044  0.00  0.00    +0.000 C 
BRANCH   9  11
ATOM     11  C   UNL     1      44.256   2.709   9.688  0.00  0.00    +0.000 C 
BRANCH  11  12
ATOM     12  C   UNL     1      45.351   2.530   8.652  0.00  0.00    +0.000 A 
ATOM     13  C   UNL     1      45.779   3.610   7.881  0.00  0.00    +0.000 A 
ATOM     14  C   UNL     1      46.816   3.416   6.971  0.00  0.00    +0.000 A 
ATOM     15  C   UNL     1      47.394   2.159   6.855  0.00  0.00    +0.000 A 
ATOM     16  C   UNL     1      46.901   1.136   7.647  0.00  0.00    +0.000 A 
ATOM     17  N   UNL     1      45.897   1.292   8.538  0.00  0.00    +0.000 NA
ENDBRANCH  11  12
ENDBRANCH   9  11
ENDBRANCH   8   9
ENDBRANCH   5   8
ENDBRANCH   1   2
BRANCH   1  20
ATOM     18  C   UNL     1      48.703   8.382  15.617  0.00  0.00    +0.000 C 
ATOM     19  O   UNL     1      48.013   9.101  16.330  0.00  0.00    +0.000 OA
ATOM     20  N   UNL     1      48.437   8.184  14.281  0.00  0.00    +0.000 N 
ATOM     21  H   UNL     1      48.843   7.381  13.821  0.00  0.00    +0.000 HD
BRANCH  18  26
ATOM     22  C   UNL     1      48.258   2.844  17.114  0.00  0.00    +0.000 C 
ATOM     23  C   UNL     1      49.291   3.931  17.046  0.00  0.00    +0.000 A 
ATOM     24  C   UNL     1      48.929   5.205  16.586  0.00  0.00    +0.000 A 
ATOM     25  C   UNL     1      49.892   6.239  16.552  0.00  0.00    +0.000 A 
ATOM     26  C   UNL     1      49.843   7.629  16.139  0.00  0.00    +0.000 A 
ATOM     27  C   UNL     1      51.093   8.221  16.250  0.00  0.00    +0.000 A 
ATOM     28  S   UNL     1      52.282   7.167  16.869  0.00  0.00    +0.000 S 
ATOM     29  C   UNL     1      51.171   5.883  16.966  0.00  0.00    +0.000 A 
ATOM     30  N   UNL     1      51.574   4.674  17.400  0.00  0.00    +0.000 NA
ATOM     31  C   UNL     1      50.620   3.719  17.427  0.00  0.00    +0.000 A 
ATOM     32  C   UNL     1      51.081   2.365  17.895  0.00  0.00    +0.000 C 
ENDBRANCH  18  26
ENDBRANCH   1  20
TORSDOF 7
ENDMDL
MODEL 4
REMARK VINA RESULT:    -7.480      1.773      2.698
REMARK INTER + INTRA:         -11.257
REMARK INTER:                 -10.444
REMARK INTRA:                  -0.812
REMARK UNBOUND:                -0.715
REMARK  Name = 
REMARK  10 active torsions:
REMARK  status: ('A' for Active; 'I' for Inactive)
REMARK    1  A    between atoms: C_1  and  C_2
REMARK    2  A    between atoms: C_5  and  C_6
REMARK    3  A    between atoms: N_8  and  C_9
REMARK    4  A    between atoms: C_9  and  C_10
REMARK    5  A    between atoms: C_13  and  C_14
REMARK    6  A    between atoms: C_14  and  N_15
REMARK    7  A    between atoms: N_15  and  C_16
REMARK    8  A    between atoms: N_15  and  C_17
REMARK    9  A    between atoms: C_17  and  C_18
REMARK   10  A    between atoms: C_30  and  C_31
REMARK                            x       y       z     vdW  Elec       q    Type
REMARK                         _______ _______ _______ _____ _____    ______ ____
ROOT
ATOM      1  C   UNL     1      48.191   8.561  13.716  0.00  0.00    +0.000 C 
ENDROOT
BRANCH   1   2
ATOM      2  C   UNL     1      47.150   7.807  12.932  0.00  0.00    +0.000 A 
ATOM      3  C   UNL     1      47.515   6.699  12.157  0.00  0.00    +0.000 A 
ATOM      4  C   UNL     1      46.551   5.976  11.455  0.00  0.00    +0.000 A 
ATOM      5  C   UNL     1      45.199   6.344  11.515  0.00  0.00    +0.000 A 
ATOM      6  C   UNL     1      44.840   7.479  12.251  0.00  0.00    +0.000 A 
ATOM      7  C   UNL     1      45.806   8.207  12.952  0.00  0.00    +0.000 A 
BRANCH   5   8
ATOM      8  C   UNL     1      44.138   5.505  10.826  0.00  0.00    +0.000 C 
BRANCH   8   9
ATOM      9  N   UNL     1      44.567   4.109  10.582  0.00  0.00    +0.000 NA
ATOM     10  C   UNL     1      43.870   3.179  11.481  0.00  0.00    +0.000 C 
BRANCH   9  11
ATOM     11  C   UNL     1      44.272   3.718   9.184  0.00  0.00    +0.000 C 
BRANCH  11  12
ATOM     12  C   UNL     1      45.448   3.152   8.408  0.00  0.00    +0.000 A 
ATOM     13  C   UNL     1      45.740   1.789   8.461  0.00  0.00    +0.000 A 
ATOM     14  C   UNL     1      46.800   1.300   7.702  0.00  0.00    +0.000 A 
ATOM     15  C   UNL     1      47.537   2.177   6.916  0.00  0.00    +0.000 A 
ATOM     16  C   UNL     1      47.191   3.518   6.931  0.00  0.00    +0.000 A 
ATOM     17  N   UNL     1      46.169   4.023   7.656  0.00  0.00    +0.000 NA
ENDBRANCH  11  12
ENDBRANCH   9  11
ENDBRANCH   8   9
ENDBRANCH   5   8
ENDBRANCH   1   2
BRANCH   1  20
ATOM     18  C   UNL     1      48.671   9.267  16.010  0.00  0.00    +0.000 C 
ATOM     19  O   UNL     1      49.711   9.821  15.672  0.00  0.00    +0.000 OA
ATOM     20  N   UNL     1      47.852   8.615  15.116  0.00  0.00    +0.000 N 
ATOM     21  H   UNL     1      46.894   8.434  15.381  0.00  0.00    +0.000 HD
BRANCH  18  26
ATOM     22  C   UNL     1      48.553   4.536  19.284  0.00  0.00    +0.000 C 
ATOM     23  C   UNL     1      48.229   6.000  19.375  0.00  0.00    +0.000 A 
ATOM     24  C   UNL     1      48.431   6.826  18.261  0.00  0.00    +0.000 A 
ATOM     25  C   UNL     1      48.096   8.198  18.335  0.00  0.00    +0.000 A 
ATOM     26  C   UNL     1      48.184   9.294  17.389  0.00  0.00    +0.000 A 
ATOM     27  C   UNL     1      47.772  10.483  17.972  0.00  0.00    +0.000 A 
ATOM     28  S   UNL     1      47.254  10.295  19.586  0.00  0.00    +0.000 S 
ATOM     29  C   UNL     1      47.605   8.631  19.562  0.00  0.00    +0.000 A 
ATOM     30  N   UNL     1      47.408   7.884  20.665  0.00  0.00    +0.000 NA
ATOM     31  C   UNL     1      47.730   6.578  20.546  0.00  0.00    +0.000 A 
ATOM     32  C   UNL     1      47.525   5.753  21.788  0.00  0.00    +0.000 C 
ENDBRANCH  18  26
ENDBRANCH   1  20
TORSDOF 7
ENDMDL
MODEL 5
REMARK VINA RESULT:    -7.157      4.286      7.007
REMARK INTER + INTRA:         -10.801
REMARK INTER:                  -9.935
REMARK INTRA:                  -0.866
REMARK UNBOUND:                -0.715
REMARK  Name = 
REMARK  10 active torsions:
REMARK  status: ('A' for Active; 'I' for Inactive)
REMARK    1  A    between atoms: C_1  and  C_2
REMARK    2  A    between atoms: C_5  and  C_6
REMARK    3  A    between atoms: N_8  and  C_9
REMARK    4  A    between atoms: C_9  and  C_10
REMARK    5  A    between atoms: C_13  and  C_14
REMARK    6  A    between atoms: C_14  and  N_15
REMARK    7  A    between atoms: N_15  and  C_16
REMARK    8  A    between atoms: N_15  and  C_17
REMARK    9  A    between atoms: C_17  and  C_18
REMARK   10  A    between atoms: C_30  and  C_31
REMARK                            x       y       z     vdW  Elec       q    Type
REMARK                         _______ _______ _______ _____ _____    ______ ____
ROOT
ATOM      1  C   UNL     1      49.059   6.912  13.943  0.00  0.00    +0.000 C 
ENDROOT
BRANCH   1   2
ATOM      2  C   UNL     1      47.814   6.458  13.227  0.00  0.00    +0.000 A 
ATOM      3  C   UNL     1      47.419   7.081  12.036  0.00  0.00    +0.000 A 
ATOM      4  C   UNL     1      46.284   6.644  11.350  0.00  0.00    +0.000 A 
ATOM      5  C   UNL     1      45.523   5.574  11.840  0.00  0.00    +0.000 A 
ATOM      6  C   UNL     1      45.891   4.982  13.055  0.00  0.00    +0.000 A 
ATOM      7  C   UNL     1      47.024   5.422  13.745  0.00  0.00    +0.000 A 
BRANCH   5   8
ATOM      8  C   UNL     1      44.343   5.038  11.049  0.00  0.00    +0.000 C 
BRANCH   8   9
ATOM      9  N   UNL     1      44.539   3.649  10.578  0.00  0.00    +0.000 NA
ATOM     10  C   UNL     1      43.587   2.735  11.223  0.00  0.00    +0.000 C 
BRANCH   9  11
ATOM     11  C   UNL     1      44.343   3.572   9.112  0.00  0.00    +0.000 C 
BRANCH  11  12
ATOM     12  C   UNL     1      45.520   3.016   8.329  0.00  0.00    +0.000 A 
ATOM     13  C   UNL     1      45.847   1.663   8.409  0.00  0.00    +0.000 A 
ATOM     14  C   UNL     1      46.906   1.182   7.643  0.00  0.00    +0.000 A 
ATOM     15  C   UNL     1      47.608   2.058   6.826  0.00  0.00    +0.000 A 
ATOM     16  C   UNL     1      47.230   3.390   6.816  0.00  0.00    +0.000 A 
ATOM     17  N   UNL     1      46.207   3.887   7.546  0.00  0.00    +0.000 NA
ENDBRANCH  11  12
ENDBRANCH   9  11
ENDBRANCH   8   9
ENDBRANCH   5   8
ENDBRANCH   1   2
BRANCH   1  20
ATOM     18  C   UNL     1      51.022   8.327  13.581  0.00  0.00    +0.000 C 
ATOM     19  O   UNL     1      51.503   8.019  14.666  0.00  0.00    +0.000 OA
ATOM     20  N   UNL     1      49.817   7.834  13.135  0.00  0.00    +0.000 N 
ATOM     21  H   UNL     1      49.611   7.883  12.147  0.00  0.00    +0.000 HD
BRANCH  18  26
ATOM     22  C   UNL     1      52.632   6.537   8.354  0.00  0.00    +0.000 C 
ATOM     23  C   UNL     1      52.665   7.778   9.200  0.00  0.00    +0.000 A 
ATOM     24  C   UNL     1      52.119   7.753  10.490  0.00  0.00    +0.000 A 
ATOM     25  C   UNL     1      52.178   8.911  11.300  0.00  0.00    +0.000 A 
ATOM     26  C   UNL     1      51.716   9.209  12.643  0.00  0.00    +0.000 A 
ATOM     27  C   UNL     1      51.971  10.532  12.969  0.00  0.00    +0.000 A 
ATOM     28  S   UNL     1      52.777  11.386  11.733  0.00  0.00    +0.000 S 
ATOM     29  C   UNL     1      52.768  10.024  10.713  0.00  0.00    +0.000 A 
ATOM     30  N   UNL     1      53.293  10.106   9.475  0.00  0.00    +0.000 NA
ATOM     31  C   UNL     1      53.225   8.975   8.742  0.00  0.00    +0.000 A 
ATOM     32  C   UNL     1      53.795   9.077   7.353  0.00  0.00    +0.000 C 
ENDBRANCH  18  26
ENDBRANCH   1  20
TORSDOF 7
ENDMDL
MODEL 6
REMARK VINA RESULT:    -7.154      3.510      9.307
REMARK INTER + INTRA:         -10.797
REMARK INTER:                  -9.632
REMARK INTRA:                  -1.165
REMARK UNBOUND:                -0.715
REMARK  Name = 
REMARK  10 active torsions:
REMARK  status: ('A' for Active; 'I' for Inactive)
REMARK    1  A    between atoms: C_1  and  C_2
REMARK    2  A    between atoms: C_5  and  C_6
REMARK    3  A    between atoms: N_8  and  C_9
REMARK    4  A    between atoms: C_9  and  C_10
REMARK    5  A    between atoms: C_13  and  C_14
REMARK    6  A    between atoms: C_14  and  N_15
REMARK    7  A    between atoms: N_15  and  C_16
REMARK    8  A    between atoms: N_15  and  C_17
REMARK    9  A    between atoms: C_17  and  C_18
REMARK   10  A    between atoms: C_30  and  C_31
REMARK                            x       y       z     vdW  Elec       q    Type
REMARK                         _______ _______ _______ _____ _____    ______ ____
ROOT
ATOM      1  C   UNL     1      46.605   8.791  13.461  0.00  0.00    +0.000 C 
ENDROOT
BRANCH   1   2
ATOM      2  C   UNL     1      47.948   8.593  14.113  0.00  0.00    +0.000 A 
ATOM      3  C   UNL     1      48.221   9.177  15.356  0.00  0.00    +0.000 A 
ATOM      4  C   UNL     1      49.451   8.971  15.982  0.00  0.00    +0.000 A 
ATOM      5  C   UNL     1      50.434   8.174  15.377  0.00  0.00    +0.000 A 
ATOM      6  C   UNL     1      50.179   7.629  14.112  0.00  0.00    +0.000 A 
ATOM      7  C   UNL     1      48.948   7.839  13.484  0.00  0.00    +0.000 A 
BRANCH   5   8
ATOM      8  C   UNL     1      51.737   7.874  16.096  0.00  0.00    +0.000 C 
BRANCH   8   9
ATOM      9  N   UNL     1      51.952   6.429  16.333  0.00  0.00    +0.000 NA
ATOM     10  C   UNL     1      53.372   6.142  16.580  0.00  0.00    +0.000 C 
BRANCH   9  11
ATOM     11  C   UNL     1      51.172   5.980  17.510  0.00  0.00    +0.000 C 
BRANCH  11  12
ATOM     12  C   UNL     1      50.186   4.857  17.243  0.00  0.00    +0.000 A 
ATOM     13  C   UNL     1      50.515   3.538  17.552  0.00  0.00    +0.000 A 
ATOM     14  C   UNL     1      49.568   2.541  17.333  0.00  0.00    +0.000 A 
ATOM     15  C   UNL     1      48.327   2.882  16.812  0.00  0.00    +0.000 A 
ATOM     16  C   UNL     1      48.085   4.214  16.517  0.00  0.00    +0.000 A 
ATOM     17  N   UNL     1      48.982   5.204  16.719  0.00  0.00    +0.000 NA
ENDBRANCH  11  12
ENDBRANCH   9  11
ENDBRANCH   8   9
ENDBRANCH   5   8
ENDBRANCH   1   2
BRANCH   1  20
ATOM     18  C   UNL     1      45.143   7.341  12.138  0.00  0.00    +0.000 C 
ATOM     19  O   UNL     1      44.955   8.216  11.300  0.00  0.00    +0.000 OA
ATOM     20  N   UNL     1      45.941   7.530  13.243  0.00  0.00    +0.000 N 
ATOM     21  H   UNL     1      46.290   6.717  13.732  0.00  0.00    +0.000 HD
BRANCH  18  26
ATOM     22  C   UNL     1      46.269   3.995   7.594  0.00  0.00    +0.000 C 
ATOM     23  C   UNL     1      45.500   3.954   8.883  0.00  0.00    +0.000 A 
ATOM     24  C   UNL     1      45.514   5.066   9.736  0.00  0.00    +0.000 A 
ATOM     25  C   UNL     1      44.764   5.042  10.934  0.00  0.00    +0.000 A 
ATOM     26  C   UNL     1      44.574   6.000  12.007  0.00  0.00    +0.000 A 
ATOM     27  C   UNL     1      43.771   5.470  13.005  0.00  0.00    +0.000 A 
ATOM     28  S   UNL     1      43.222   3.893  12.659  0.00  0.00    +0.000 S 
ATOM     29  C   UNL     1      44.076   3.861  11.188  0.00  0.00    +0.000 A 
ATOM     30  N   UNL     1      44.041   2.760  10.412  0.00  0.00    +0.000 NA
ATOM     31  C   UNL     1      44.762   2.831   9.272  0.00  0.00    +0.000 A 
ATOM     32  C   UNL     1      44.735   1.592   8.420  0.00  0.00    +0.000 C 
ENDBRANCH  18  26
ENDBRANCH   1  20
TORSDOF 7
ENDMDL
MODEL 7
REMARK VINA RESULT:    -6.938      5.387      9.114
REMARK INTER + INTRA:         -10.493
REMARK INTER:                  -9.414
REMARK INTRA:                  -1.079
REMARK UNBOUND:                -0.715
REMARK  Name = 
REMARK  10 active torsions:
REMARK  status: ('A' for Active; 'I' for Inactive)
REMARK    1  A    between atoms: C_1  and  C_2
REMARK    2  A    between atoms: C_5  and  C_6
REMARK    3  A    between atoms: N_8  and  C_9
REMARK    4  A    between atoms: C_9  and  C_10
REMARK    5  A    between atoms: C_13  and  C_14
REMARK    6  A    between atoms: C_14  and  N_15
REMARK    7  A    between atoms: N_15  and  C_16
REMARK    8  A    between atoms: N_15  and  C_17
REMARK    9  A    between atoms: C_17  and  C_18
REMARK   10  A    between atoms: C_30  and  C_31
REMARK                            x       y       z     vdW  Elec       q    Type
REMARK                         _______ _______ _______ _____ _____    ______ ____
ROOT
ATOM      1  C   UNL     1      47.020   9.089  11.979  0.00  0.00    +0.000 C 
ENDROOT
BRANCH   1   2
ATOM      2  C   UNL     1      48.515   9.003  11.821  0.00  0.00    +0.000 A 
ATOM      3  C   UNL     1      49.307  10.150  11.965  0.00  0.00    +0.000 A 
ATOM      4  C   UNL     1      50.696  10.072  11.854  0.00  0.00    +0.000 A 
ATOM      5  C   UNL     1      51.322   8.843  11.599  0.00  0.00    +0.000 A 
ATOM      6  C   UNL     1      50.529   7.706  11.408  0.00  0.00    +0.000 A 
ATOM      7  C   UNL     1      49.137   7.784  11.516  0.00  0.00    +0.000 A 
BRANCH   5   8
ATOM      8  C   UNL     1      52.837   8.740  11.568  0.00  0.00    +0.000 C 
BRANCH   8   9
ATOM      9  N   UNL     1      53.430   9.248  10.310  0.00  0.00    +0.000 NA
ATOM     10  C   UNL     1      54.066  10.556  10.519  0.00  0.00    +0.000 C 
BRANCH   9  11
ATOM     11  C   UNL     1      54.455   8.304   9.809  0.00  0.00    +0.000 C 
BRANCH  11  12
ATOM     12  C   UNL     1      53.936   7.212   8.890  0.00  0.00    +0.000 A 
ATOM     13  C   UNL     1      52.782   7.413   8.134  0.00  0.00    +0.000 A 
ATOM     14  C   UNL     1      52.361   6.405   7.271  0.00  0.00    +0.000 A 
ATOM     15  C   UNL     1      53.096   5.230   7.187  0.00  0.00    +0.000 A 
ATOM     16  C   UNL     1      54.222   5.103   7.983  0.00  0.00    +0.000 A 
ATOM     17  N   UNL     1      54.656   6.062   8.829  0.00  0.00    +0.000 NA
ENDBRANCH  11  12
ENDBRANCH   9  11
ENDBRANCH   8   9
ENDBRANCH   5   8
ENDBRANCH   1   2
BRANCH   1  20
ATOM     18  C   UNL     1      45.109   7.590  11.680  0.00  0.00    +0.000 C 
ATOM     19  O   UNL     1      44.386   8.509  11.310  0.00  0.00    +0.000 OA
ATOM     20  N   UNL     1      46.426   7.777  12.034  0.00  0.00    +0.000 N 
ATOM     21  H   UNL     1      47.041   6.976  12.048  0.00  0.00    +0.000 HD
BRANCH  18  26
ATOM     22  C   UNL     1      46.287   3.849   7.469  0.00  0.00    +0.000 C 
ATOM     23  C   UNL     1      45.587   3.895   8.797  0.00  0.00    +0.000 A 
ATOM     24  C   UNL     1      45.550   5.094   9.521  0.00  0.00    +0.000 A 
ATOM     25  C   UNL     1      44.863   5.148  10.756  0.00  0.00    +0.000 A 
ATOM     26  C   UNL     1      44.646   6.204  11.727  0.00  0.00    +0.000 A 
ATOM     27  C   UNL     1      43.938   5.729  12.821  0.00  0.00    +0.000 A 
ATOM     28  S   UNL     1      43.505   4.086  12.679  0.00  0.00    +0.000 S 
ATOM     29  C   UNL     1      44.286   3.954  11.174  0.00  0.00    +0.000 A 
ATOM     30  N   UNL     1      44.305   2.774  10.526  0.00  0.00    +0.000 NA
ATOM     31  C   UNL     1      44.962   2.771   9.346  0.00  0.00    +0.000 A 
ATOM     32  C   UNL     1      44.996   1.445   8.636  0.00  0.00    +0.000 C 
ENDBRANCH  18  26
ENDBRANCH   1  20
TORSDOF 7
ENDMDL
MODEL 8
REMARK VINA RESULT:    -6.920      2.715      3.416
REMARK INTER + INTRA:         -10.468
REMARK INTER:                  -9.411
REMARK INTRA:                  -1.056
REMARK UNBOUND:                -0.715
REMARK  Name = 
REMARK  10 active torsions:
REMARK  status: ('A' for Active; 'I' for Inactive)
REMARK    1  A    between atoms: C_1  and  C_2
REMARK    2  A    between atoms: C_5  and  C_6
REMARK    3  A    between atoms: N_8  and  C_9
REMARK    4  A    between atoms: C_9  and  C_10
REMARK    5  A    between atoms: C_13  and  C_14
REMARK    6  A    between atoms: C_14  and  N_15
REMARK    7  A    between atoms: N_15  and  C_16
REMARK    8  A    between atoms: N_15  and  C_17
REMARK    9  A    between atoms: C_17  and  C_18
REMARK   10  A    between atoms: C_30  and  C_31
REMARK                            x       y       z     vdW  Elec       q    Type
REMARK                         _______ _______ _______ _____ _____    ______ ____
ROOT
ATOM      1  C   UNL     1      49.187   9.415  12.583  0.00  0.00    +0.000 C 
ENDROOT
BRANCH   1   2
ATOM      2  C   UNL     1      47.931   8.624  12.327  0.00  0.00    +0.000 A 
ATOM      3  C   UNL     1      46.676   9.234  12.451  0.00  0.00    +0.000 A 
ATOM      4  C   UNL     1      45.509   8.517  12.183  0.00  0.00    +0.000 A 
ATOM      5  C   UNL     1      45.573   7.175  11.783  0.00  0.00    +0.000 A 
ATOM      6  C   UNL     1      46.825   6.552  11.704  0.00  0.00    +0.000 A 
ATOM      7  C   UNL     1      47.993   7.269  11.976  0.00  0.00    +0.000 A 
BRANCH   5   8
ATOM      8  C   UNL     1      44.311   6.421  11.404  0.00  0.00    +0.000 C 
BRANCH   8   9
ATOM      9  N   UNL     1      44.528   4.965  11.247  0.00  0.00    +0.000 NA
ATOM     10  C   UNL     1      43.875   4.216  12.329  0.00  0.00    +0.000 C 
BRANCH   9  11
ATOM     11  C   UNL     1      43.973   4.500   9.955  0.00  0.00    +0.000 C 
BRANCH  11  12
ATOM     12  C   UNL     1      44.932   3.703   9.088  0.00  0.00    +0.000 A 
ATOM     13  C   UNL     1      45.076   2.329   9.271  0.00  0.00    +0.000 A 
ATOM     14  C   UNL     1      45.932   1.625   8.428  0.00  0.00    +0.000 A 
ATOM     15  C   UNL     1      46.620   2.307   7.433  0.00  0.00    +0.000 A 
ATOM     16  C   UNL     1      46.433   3.674   7.327  0.00  0.00    +0.000 A 
ATOM     17  N   UNL     1      45.609   4.385   8.128  0.00  0.00    +0.000 NA
ENDBRANCH  11  12
ENDBRANCH   9  11
ENDBRANCH   8   9
ENDBRANCH   5   8
ENDBRANCH   1   2
BRANCH   1  20
ATOM     18  C   UNL     1      49.643   9.768  14.961  0.00  0.00    +0.000 C 
ATOM     19  O   UNL     1      48.973  10.795  14.985  0.00  0.00    +0.000 OA
ATOM     20  N   UNL     1      49.810   9.017  13.820  0.00  0.00    +0.000 N 
ATOM     21  H   UNL     1      50.115   8.058  13.913  0.00  0.00    +0.000 HD
BRANCH  18  26
ATOM     22  C   UNL     1      47.799   4.921  17.454  0.00  0.00    +0.000 C 
ATOM     23  C   UNL     1      48.873   5.957  17.620  0.00  0.00    +0.000 A 
ATOM     24  C   UNL     1      48.949   7.029  16.721  0.00  0.00    +0.000 A 
ATOM     25  C   UNL     1      49.940   8.022  16.895  0.00  0.00    +0.000 A 
ATOM     26  C   UNL     1      50.282   9.225  16.159  0.00  0.00    +0.000 A 
ATOM     27  C   UNL     1      51.392   9.844  16.713  0.00  0.00    +0.000 A 
ATOM     28  S   UNL     1      51.987   9.043  18.096  0.00  0.00    +0.000 S 
ATOM     29  C   UNL     1      50.805   7.827  17.967  0.00  0.00    +0.000 A 
ATOM     30  N   UNL     1      50.784   6.809  18.848  0.00  0.00    +0.000 NA
ATOM     31  C   UNL     1      49.816   5.890  18.651  0.00  0.00    +0.000 A 
ATOM     32  C   UNL     1      49.811   4.745  19.628  0.00  0.00    +0.000 C 
ENDBRANCH  18  26
ENDBRANCH   1  20
TORSDOF 7
ENDMDL
MODEL 9
REMARK VINA RESULT:    -6.874      4.542      9.647
REMARK INTER + INTRA:         -10.402
REMARK INTER:                  -9.135
REMARK INTRA:                  -1.267
REMARK UNBOUND:                -0.715
REMARK  Name = 
REMARK  10 active torsions:
REMARK  status: ('A' for Active; 'I' for Inactive)
REMARK    1  A    between atoms: C_1  and  C_2
REMARK    2  A    between atoms: C_5  and  C_6
REMARK    3  A    between atoms: N_8  and  C_9
REMARK    4  A    between atoms: C_9  and  C_10
REMARK    5  A    between atoms: C_13  and  C_14
REMARK    6  A    between atoms: C_14  and  N_15
REMARK    7  A    between atoms: N_15  and  C_16
REMARK    8  A    between atoms: N_15  and  C_17
REMARK    9  A    between atoms: C_17  and  C_18
REMARK   10  A    between atoms: C_30  and  C_31
REMARK                            x       y       z     vdW  Elec       q    Type
REMARK                         _______ _______ _______ _____ _____    ______ ____
ROOT
ATOM      1  C   UNL     1      46.832   9.243  12.295  0.00  0.00    +0.000 C 
ENDROOT
BRANCH   1   2
ATOM      2  C   UNL     1      48.271   9.211  11.853  0.00  0.00    +0.000 A 
ATOM      3  C   UNL     1      48.919  10.393  11.474  0.00  0.00    +0.000 A 
ATOM      4  C   UNL     1      50.262  10.376  11.096  0.00  0.00    +0.000 A 
ATOM      5  C   UNL     1      50.986   9.175  11.091  0.00  0.00    +0.000 A 
ATOM      6  C   UNL     1      50.326   7.986  11.425  0.00  0.00    +0.000 A 
ATOM      7  C   UNL     1      48.980   8.003  11.800  0.00  0.00    +0.000 A 
BRANCH   5   8
ATOM      8  C   UNL     1      52.470   9.169  10.768  0.00  0.00    +0.000 C 
BRANCH   8   9
ATOM      9  N   UNL     1      53.191   8.021  11.365  0.00  0.00    +0.000 NA
ATOM     10  C   UNL     1      54.088   7.396  10.384  0.00  0.00    +0.000 C 
BRANCH   9  11
ATOM     11  C   UNL     1      54.000   8.470  12.521  0.00  0.00    +0.000 C 
BRANCH  11  12
ATOM     12  C   UNL     1      53.598   7.881  13.861  0.00  0.00    +0.000 A 
ATOM     13  C   UNL     1      52.373   8.210  14.441  0.00  0.00    +0.000 A 
ATOM     14  C   UNL     1      52.021   7.616  15.650  0.00  0.00    +0.000 A 
ATOM     15  C   UNL     1      52.895   6.717  16.247  0.00  0.00    +0.000 A 
ATOM     16  C   UNL     1      54.098   6.456  15.614  0.00  0.00    +0.000 A 
ATOM     17  N   UNL     1      54.468   7.015  14.441  0.00  0.00    +0.000 NA
ENDBRANCH  11  12
ENDBRANCH   9  11
ENDBRANCH   8   9
ENDBRANCH   5   8
ENDBRANCH   1   2
BRANCH   1  20
ATOM     18  C   UNL     1      45.076   7.647  11.698  0.00  0.00    +0.000 C 
ATOM     19  O   UNL     1      44.442   8.500  11.087  0.00  0.00    +0.000 OA
ATOM     20  N   UNL     1      46.267   7.918  12.330  0.00  0.00    +0.000 N 
ATOM     21  H   UNL     1      46.878   7.146  12.561  0.00  0.00    +0.000 HD
BRANCH  18  26
ATOM     22  C   UNL     1      46.200   3.916   7.464  0.00  0.00    +0.000 C 
ATOM     23  C   UNL     1      45.540   3.952   8.812  0.00  0.00    +0.000 A 
ATOM     24  C   UNL     1      45.501   5.153   9.534  0.00  0.00    +0.000 A 
ATOM     25  C   UNL     1      44.851   5.197  10.789  0.00  0.00    +0.000 A 
ATOM     26  C   UNL     1      44.643   6.251  11.763  0.00  0.00    +0.000 A 
ATOM     27  C   UNL     1      43.978   5.766  12.880  0.00  0.00    +0.000 A 
ATOM     28  S   UNL     1      43.574   4.114  12.756  0.00  0.00    +0.000 S 
ATOM     29  C   UNL     1      44.312   3.993  11.228  0.00  0.00    +0.000 A 
ATOM     30  N   UNL     1      44.335   2.811  10.582  0.00  0.00    +0.000 NA
ATOM     31  C   UNL     1      44.955   2.818   9.383  0.00  0.00    +0.000 A 
ATOM     32  C   UNL     1      44.995   1.490   8.676  0.00  0.00    +0.000 C 
ENDBRANCH  18  26
ENDBRANCH   1  20
TORSDOF 7
ENDMDL
