MODEL 1
REMARK VINA RESULT:    -8.405      0.000      0.000
REMARK INTER + INTRA:         -13.103
REMARK INTER:                 -11.844
REMARK INTRA:                  -1.259
REMARK UNBOUND:                -1.259
REMARK  Name = 
REMARK  8 active torsions:
REMARK  status: ('A' for Active; 'I' for Inactive)
REMARK    1  A    between atoms: C_1  and  C_2
REMARK    2  A    between atoms: C_2  and  N_3
REMARK    3  A    between atoms: C_2  and  C_25
REMARK    4  A    between atoms: N_3  and  C_4
REMARK    5  A    between atoms: C_4  and  C_5
REMARK    6  A    between atoms: C_8  and  C_9
REMARK    7  A    between atoms: C_9  and  N_10
REMARK    8  A    between atoms: C_11  and  C_13
REMARK                            x       y       z     vdW  Elec       q    Type
REMARK                         _______ _______ _______ _____ _____    ______ ____
ROOT
ATOM      1  C   UNL     1      44.628   5.910  11.102  0.00  0.00    +0.000 A 
ATOM      2  C   UNL     1      45.908   5.432  11.416  0.00  0.00    +0.000 A 
ATOM      3  C   UNL     1      46.784   6.192  12.195  0.00  0.00    +0.000 A 
ATOM      4  C   UNL     1      46.398   7.452  12.671  0.00  0.00    +0.000 A 
ATOM      5  C   UNL     1      45.145   7.959  12.307  0.00  0.00    +0.000 A 
ATOM      6  C   UNL     1      44.264   7.192  11.538  0.00  0.00    +0.000 A 
ENDROOT
BRANCH   1   7
ATOM      7  C   UNL     1      43.645   5.050  10.335  0.00  0.00    +0.000 C 
BRANCH   7   8
ATOM      8  N   UNL     1      44.263   4.532   9.115  0.00  0.00    +0.000 NA
ATOM      9  H   UNL     1      43.716   4.856   8.316  0.00  0.00    +0.000 HD
BRANCH   8  11
ATOM     10  C   UNL     1      44.338   2.398  10.426  0.00  0.00    +0.000 C 
ATOM     11  C   UNL     1      44.298   3.060   9.044  0.00  0.00    +0.000 C 
BRANCH  11  12
ATOM     12  C   UNL     1      45.510   2.590   8.233  0.00  0.00    +0.000 A 
ATOM     13  C   UNL     1      46.216   3.487   7.427  0.00  0.00    +0.000 A 
ATOM     14  C   UNL     1      47.348   3.045   6.750  0.00  0.00    +0.000 A 
ATOM     15  C   UNL     1      47.738   1.719   6.876  0.00  0.00    +0.000 A 
ATOM     16  C   UNL     1      46.971   0.885   7.671  0.00  0.00    +0.000 A 
ATOM     17  N   UNL     1      45.873   1.287   8.351  0.00  0.00    +0.000 NA
ENDBRANCH  11  12
ENDBRANCH   8  11
ENDBRANCH   7   8
ENDBRANCH   1   7
BRANCH   4  18
ATOM     18  C   UNL     1      47.323   8.260  13.541  0.00  0.00    +0.000 C 
BRANCH  18  19
ATOM     19  N   UNL     1      47.663   7.544  14.742  0.00  0.00    +0.000 N 
ATOM     20  C   UNL     1      48.883   6.938  14.881  0.00  0.00    +0.000 C 
ATOM     21  O   UNL     1      49.751   7.017  14.015  0.00  0.00    +0.000 OA
ATOM     22  H   UNL     1      46.899   7.292  15.361  0.00  0.00    +0.000 HD
BRANCH  20  23
ATOM     23  C   UNL     1      49.128   6.238  16.147  0.00  0.00    +0.000 A 
ATOM     24  C   UNL     1      50.132   6.689  16.994  0.00  0.00    +0.000 A 
ATOM     25  S   UNL     1      50.252   5.803  18.445  0.00  0.00    +0.000 S 
ATOM     26  C   UNL     1      48.999   4.753  17.971  0.00  0.00    +0.000 A 
ATOM     27  N   UNL     1      48.609   3.726  18.772  0.00  0.00    +0.000 NA
ATOM     28  C   UNL     1      47.669   2.992  18.279  0.00  0.00    +0.000 A 
ATOM     29  N   UNL     1      47.082   3.194  17.058  0.00  0.00    +0.000 N 
ATOM     30  C   UNL     1      47.424   4.234  16.225  0.00  0.00    +0.000 A 
ATOM     31  O   UNL     1      46.849   4.406  15.156  0.00  0.00    +0.000 OA
ATOM     32  C   UNL     1      48.485   5.083  16.730  0.00  0.00    +0.000 A 
ATOM     33  H   UNL     1      46.344   2.584  16.741  0.00  0.00    +0.000 HD
ENDBRANCH  20  23
ENDBRANCH  18  19
ENDBRANCH   4  18
TORSDOF 7
ENDMDL
MODEL 2
REMARK VINA RESULT:    -7.870      1.783      2.161
REMARK INTER + INTRA:         -12.349
REMARK INTER:                 -11.213
REMARK INTRA:                  -1.136
REMARK UNBOUND:                -1.259
REMARK  Name = 
REMARK  8 active torsions:
REMARK  status: ('A' for Active; 'I' for Inactive)
REMARK    1  A    between atoms: C_1  and  C_2
REMARK    2  A    between atoms: C_2  and  N_3
REMARK    3  A    between atoms: C_2  and  C_25
REMARK    4  A    between atoms: N_3  and  C_4
REMARK    5  A    between atoms: C_4  and  C_5
REMARK    6  A    between atoms: C_8  and  C_9
REMARK    7  A    between atoms: C_9  and  N_10
REMARK    8  A    between atoms: C_11  and  C_13
REMARK                            x       y       z     vdW  Elec       q    Type
REMARK                         _______ _______ _______ _____ _____    ______ ____
ROOT
ATOM      1  C   UNL     1      45.433   5.460  11.568  0.00  0.00    +0.000 A 
ATOM      2  C   UNL     1      45.737   4.861  12.798  0.00  0.00    +0.000 A 
ATOM      3  C   UNL     1      46.809   5.317  13.571  0.00  0.00    +0.000 A 
ATOM      4  C   UNL     1      47.603   6.380  13.122  0.00  0.00    +0.000 A 
ATOM      5  C   UNL     1      47.342   6.938  11.865  0.00  0.00    +0.000 A 
ATOM      6  C   UNL     1      46.261   6.490  11.099  0.00  0.00    +0.000 A 
ENDROOT
BRANCH   1   7
ATOM      7  C   UNL     1      44.219   5.027  10.773  0.00  0.00    +0.000 C 
BRANCH   7   8
ATOM      8  N   UNL     1      44.579   4.801   9.374  0.00  0.00    +0.000 NA
ATOM      9  H   UNL     1      43.972   5.378   8.789  0.00  0.00    +0.000 HD
BRANCH   8  11
ATOM     10  C   UNL     1      44.279   2.421  10.099  0.00  0.00    +0.000 C 
ATOM     11  C   UNL     1      44.402   3.406   8.930  0.00  0.00    +0.000 C 
BRANCH  11  12
ATOM     12  C   UNL     1      45.570   2.974   8.037  0.00  0.00    +0.000 A 
ATOM     13  C   UNL     1      46.146   1.710   8.185  0.00  0.00    +0.000 A 
ATOM     14  C   UNL     1      47.166   1.323   7.320  0.00  0.00    +0.000 A 
ATOM     15  C   UNL     1      47.598   2.210   6.344  0.00  0.00    +0.000 A 
ATOM     16  C   UNL     1      46.996   3.455   6.279  0.00  0.00    +0.000 A 
ATOM     17  N   UNL     1      45.996   3.856   7.097  0.00  0.00    +0.000 NA
ENDBRANCH  11  12
ENDBRANCH   8  11
ENDBRANCH   7   8
ENDBRANCH   1   7
BRANCH   4  18
ATOM     18  C   UNL     1      48.736   6.901  13.965  0.00  0.00    +0.000 C 
BRANCH  18  19
ATOM     19  N   UNL     1      48.464   6.724  15.367  0.00  0.00    +0.000 N 
ATOM     20  C   UNL     1      48.968   7.591  16.299  0.00  0.00    +0.000 C 
ATOM     21  O   UNL     1      49.629   8.576  15.979  0.00  0.00    +0.000 OA
ATOM     22  H   UNL     1      48.111   5.818  15.657  0.00  0.00    +0.000 HD
BRANCH  20  23
ATOM     23  C   UNL     1      48.627   7.321  17.700  0.00  0.00    +0.000 A 
ATOM     24  C   UNL     1      48.074   8.331  18.476  0.00  0.00    +0.000 A 
ATOM     25  S   UNL     1      47.684   7.842  20.061  0.00  0.00    +0.000 S 
ATOM     26  C   UNL     1      48.288   6.275  19.783  0.00  0.00    +0.000 A 
ATOM     27  N   UNL     1      48.274   5.337  20.768  0.00  0.00    +0.000 NA
ATOM     28  C   UNL     1      48.787   4.202  20.430  0.00  0.00    +0.000 A 
ATOM     29  N   UNL     1      49.309   3.918  19.197  0.00  0.00    +0.000 N 
ATOM     30  C   UNL     1      49.321   4.824  18.161  0.00  0.00    +0.000 A 
ATOM     31  O   UNL     1      49.762   4.523  17.058  0.00  0.00    +0.000 OA
ATOM     32  C   UNL     1      48.765   6.122  18.494  0.00  0.00    +0.000 A 
ATOM     33  H   UNL     1      49.685   3.003  19.001  0.00  0.00    +0.000 HD
ENDBRANCH  20  23
ENDBRANCH  18  19
ENDBRANCH   4  18
TORSDOF 7
ENDMDL
MODEL 3
REMARK VINA RESULT:    -7.747      2.388      3.063
REMARK INTER + INTRA:         -12.176
REMARK INTER:                 -11.068
REMARK INTRA:                  -1.108
REMARK UNBOUND:                -1.259
REMARK  Name = 
REMARK  8 active torsions:
REMARK  status: ('A' for Active; 'I' for Inactive)
REMARK    1  A    between atoms: C_1  and  C_2
REMARK    2  A    between atoms: C_2  and  N_3
REMARK    3  A    between atoms: C_2  and  C_25
REMARK    4  A    between atoms: N_3  and  C_4
REMARK    5  A    between atoms: C_4  and  C_5
REMARK    6  A    between atoms: C_8  and  C_9
REMARK    7  A    between atoms: C_9  and  N_10
REMARK    8  A    between atoms: C_11  and  C_13
REMARK                            x       y       z     vdW  Elec       q    Type
REMARK                         _______ _______ _______ _____ _____    ______ ____
ROOT
ATOM      1  C   UNL     1      45.350   5.404  11.881  0.00  0.00    +0.000 A 
ATOM      2  C   UNL     1      45.591   4.847  13.145  0.00  0.00    +0.000 A 
ATOM      3  C   UNL     1      46.676   5.268  13.917  0.00  0.00    +0.000 A 
ATOM      4  C   UNL     1      47.549   6.253  13.436  0.00  0.00    +0.000 A 
ATOM      5  C   UNL     1      47.348   6.765  12.148  0.00  0.00    +0.000 A 
ATOM      6  C   UNL     1      46.255   6.352  11.381  0.00  0.00    +0.000 A 
ENDROOT
BRANCH   1   7
ATOM      7  C   UNL     1      44.125   5.014  11.081  0.00  0.00    +0.000 C 
BRANCH   7   8
ATOM      8  N   UNL     1      44.473   4.821   9.674  0.00  0.00    +0.000 NA
ATOM      9  H   UNL     1      43.859   5.408   9.108  0.00  0.00    +0.000 HD
BRANCH   8  11
ATOM     10  C   UNL     1      44.164   2.427  10.349  0.00  0.00    +0.000 C 
ATOM     11  C   UNL     1      44.298   3.435   9.201  0.00  0.00    +0.000 C 
BRANCH  11  12
ATOM     12  C   UNL     1      45.472   3.020   8.310  0.00  0.00    +0.000 A 
ATOM     13  C   UNL     1      45.962   1.712   8.344  0.00  0.00    +0.000 A 
ATOM     14  C   UNL     1      46.990   1.348   7.479  0.00  0.00    +0.000 A 
ATOM     15  C   UNL     1      47.518   2.298   6.617  0.00  0.00    +0.000 A 
ATOM     16  C   UNL     1      46.998   3.581   6.662  0.00  0.00    +0.000 A 
ATOM     17  N   UNL     1      45.992   3.963   7.482  0.00  0.00    +0.000 NA
ENDBRANCH  11  12
ENDBRANCH   8  11
ENDBRANCH   7   8
ENDBRANCH   1   7
BRANCH   4  18
ATOM     18  C   UNL     1      48.699   6.737  14.278  0.00  0.00    +0.000 C 
BRANCH  18  19
ATOM     19  N   UNL     1      48.329   6.813  15.666  0.00  0.00    +0.000 N 
ATOM     20  C   UNL     1      49.072   6.185  16.629  0.00  0.00    +0.000 C 
ATOM     21  O   UNL     1      50.104   5.574  16.359  0.00  0.00    +0.000 OA
ATOM     22  H   UNL     1      47.386   7.123  15.876  0.00  0.00    +0.000 HD
BRANCH  20  23
ATOM     23  C   UNL     1      48.609   6.329  18.014  0.00  0.00    +0.000 A 
ATOM     24  C   UNL     1      48.596   5.220  18.850  0.00  0.00    +0.000 A 
ATOM     25  S   UNL     1      48.085   5.565  20.438  0.00  0.00    +0.000 S 
ATOM     26  C   UNL     1      47.814   7.201  20.053  0.00  0.00    +0.000 A 
ATOM     27  N   UNL     1      47.340   8.068  20.986  0.00  0.00    +0.000 NA
ATOM     28  C   UNL     1      47.154   9.270  20.553  0.00  0.00    +0.000 A 
ATOM     29  N   UNL     1      47.404   9.683  19.272  0.00  0.00    +0.000 N 
ATOM     30  C   UNL     1      47.909   8.850  18.300  0.00  0.00    +0.000 A 
ATOM     31  O   UNL     1      48.157   9.265  17.174  0.00  0.00    +0.000 OA
ATOM     32  C   UNL     1      48.125   7.484  18.735  0.00  0.00    +0.000 A 
ATOM     33  H   UNL     1      47.245  10.643  19.006  0.00  0.00    +0.000 HD
ENDBRANCH  20  23
ENDBRANCH  18  19
ENDBRANCH   4  18
TORSDOF 7
ENDMDL
MODEL 4
REMARK VINA RESULT:    -7.518      1.970      2.347
REMARK INTER + INTRA:         -11.854
REMARK INTER:                 -10.838
REMARK INTRA:                  -1.016
REMARK UNBOUND:                -1.259
REMARK  Name = 
REMARK  8 active torsions:
REMARK  status: ('A' for Active; 'I' for Inactive)
REMARK    1  A    between atoms: C_1  and  C_2
REMARK    2  A    between atoms: C_2  and  N_3
REMARK    3  A    between atoms: C_2  and  C_25
REMARK    4  A    between atoms: N_3  and  C_4
REMARK    5  A    between atoms: C_4  and  C_5
REMARK    6  A    between atoms: C_8  and  C_9
REMARK    7  A    between atoms: C_9  and  N_10
REMARK    8  A    between atoms: C_11  and  C_13
REMARK                            x       y       z     vdW  Elec       q    Type
REMARK                         _______ _______ _______ _____ _____    ______ ____
ROOT
ATOM      1  C   UNL     1      45.785   5.751  11.934  0.00  0.00    +0.000 A 
ATOM      2  C   UNL     1      46.620   6.702  11.329  0.00  0.00    +0.000 A 
ATOM      3  C   UNL     1      47.778   7.147  11.970  0.00  0.00    +0.000 A 
ATOM      4  C   UNL     1      48.122   6.655  13.236  0.00  0.00    +0.000 A 
ATOM      5  C   UNL     1      47.258   5.755  13.870  0.00  0.00    +0.000 A 
ATOM      6  C   UNL     1      46.105   5.299  13.222  0.00  0.00    +0.000 A 
ENDROOT
BRANCH   1   7
ATOM      7  C   UNL     1      44.578   5.201  11.203  0.00  0.00    +0.000 C 
BRANCH   7   8
ATOM      8  N   UNL     1      44.905   4.938   9.803  0.00  0.00    +0.000 NA
ATOM      9  H   UNL     1      44.467   5.660   9.229  0.00  0.00    +0.000 HD
BRANCH   8  11
ATOM     10  C   UNL     1      43.999   2.690  10.440  0.00  0.00    +0.000 C 
ATOM     11  C   UNL     1      44.412   3.639   9.309  0.00  0.00    +0.000 C 
BRANCH  11  12
ATOM     12  C   UNL     1      45.478   2.952   8.449  0.00  0.00    +0.000 A 
ATOM     13  C   UNL     1      46.243   3.689   7.542  0.00  0.00    +0.000 A 
ATOM     14  C   UNL     1      47.244   3.048   6.818  0.00  0.00    +0.000 A 
ATOM     15  C   UNL     1      47.445   1.688   7.000  0.00  0.00    +0.000 A 
ATOM     16  C   UNL     1      46.627   1.020   7.896  0.00  0.00    +0.000 A 
ATOM     17  N   UNL     1      45.655   1.616   8.623  0.00  0.00    +0.000 NA
ENDBRANCH  11  12
ENDBRANCH   8  11
ENDBRANCH   7   8
ENDBRANCH   1   7
BRANCH   4  18
ATOM     18  C   UNL     1      49.387   7.103  13.916  0.00  0.00    +0.000 C 
BRANCH  18  19
ATOM     19  N   UNL     1      49.125   7.547  15.259  0.00  0.00    +0.000 N 
ATOM     20  C   UNL     1      49.574   6.835  16.339  0.00  0.00    +0.000 C 
ATOM     21  O   UNL     1      50.255   5.820  16.210  0.00  0.00    +0.000 OA
ATOM     22  H   UNL     1      48.398   8.246  15.381  0.00  0.00    +0.000 HD
BRANCH  20  23
ATOM     23  C   UNL     1      49.254   7.377  17.664  0.00  0.00    +0.000 A 
ATOM     24  C   UNL     1      49.728   8.633  18.021  0.00  0.00    +0.000 A 
ATOM     25  S   UNL     1      49.223   9.141  19.568  0.00  0.00    +0.000 S 
ATOM     26  C   UNL     1      48.396   7.678  19.837  0.00  0.00    +0.000 A 
ATOM     27  N   UNL     1      47.746   7.450  21.009  0.00  0.00    +0.000 NA
ATOM     28  C   UNL     1      47.185   6.291  21.091  0.00  0.00    +0.000 A 
ATOM     29  N   UNL     1      47.211   5.341  20.106  0.00  0.00    +0.000 N 
ATOM     30  C   UNL     1      47.832   5.535  18.893  0.00  0.00    +0.000 A 
ATOM     31  O   UNL     1      47.802   4.677  18.020  0.00  0.00    +0.000 OA
ATOM     32  C   UNL     1      48.488   6.821  18.756  0.00  0.00    +0.000 A 
ATOM     33  H   UNL     1      46.740   4.458  20.236  0.00  0.00    +0.000 HD
ENDBRANCH  20  23
ENDBRANCH  18  19
ENDBRANCH   4  18
TORSDOF 7
ENDMDL
MODEL 5
REMARK VINA RESULT:    -7.155      3.174      7.929
REMARK INTER + INTRA:         -11.342
REMARK INTER:                  -9.688
REMARK INTRA:                  -1.654
REMARK UNBOUND:                -1.259
REMARK  Name = 
REMARK  8 active torsions:
REMARK  status: ('A' for Active; 'I' for Inactive)
REMARK    1  A    between atoms: C_1  and  C_2
REMARK    2  A    between atoms: C_2  and  N_3
REMARK    3  A    between atoms: C_2  and  C_25
REMARK    4  A    between atoms: N_3  and  C_4
REMARK    5  A    between atoms: C_4  and  C_5
REMARK    6  A    between atoms: C_8  and  C_9
REMARK    7  A    between atoms: C_9  and  N_10
REMARK    8  A    between atoms: C_11  and  C_13
REMARK                            x       y       z     vdW  Elec       q    Type
REMARK                         _______ _______ _______ _____ _____    ______ ____
ROOT
ATOM      1  C   UNL     1      48.687   7.698  16.492  0.00  0.00    +0.000 A 
ATOM      2  C   UNL     1      48.280   8.936  15.974  0.00  0.00    +0.000 A 
ATOM      3  C   UNL     1      48.112   9.115  14.598  0.00  0.00    +0.000 A 
ATOM      4  C   UNL     1      48.355   8.057  13.711  0.00  0.00    +0.000 A 
ATOM      5  C   UNL     1      48.822   6.840  14.220  0.00  0.00    +0.000 A 
ATOM      6  C   UNL     1      48.978   6.658  15.598  0.00  0.00    +0.000 A 
ENDROOT
BRANCH   1   7
ATOM      7  C   UNL     1      48.783   7.477  17.987  0.00  0.00    +0.000 C 
BRANCH   7   8
ATOM      8  N   UNL     1      47.524   6.946  18.507  0.00  0.00    +0.000 NA
ATOM      9  H   UNL     1      47.109   7.649  19.122  0.00  0.00    +0.000 HD
BRANCH   8  11
ATOM     10  C   UNL     1      48.702   5.865  20.437  0.00  0.00    +0.000 C 
ATOM     11  C   UNL     1      47.678   5.716  19.304  0.00  0.00    +0.000 C 
BRANCH  11  12
ATOM     12  C   UNL     1      48.096   4.545  18.409  0.00  0.00    +0.000 A 
ATOM     13  C   UNL     1      47.238   4.071  17.413  0.00  0.00    +0.000 A 
ATOM     14  C   UNL     1      47.669   3.046  16.576  0.00  0.00    +0.000 A 
ATOM     15  C   UNL     1      48.933   2.506  16.763  0.00  0.00    +0.000 A 
ATOM     16  C   UNL     1      49.714   3.010  17.790  0.00  0.00    +0.000 A 
ATOM     17  N   UNL     1      49.329   4.013  18.612  0.00  0.00    +0.000 NA
ENDBRANCH  11  12
ENDBRANCH   8  11
ENDBRANCH   7   8
ENDBRANCH   1   7
BRANCH   4  18
ATOM     18  C   UNL     1      48.140   8.232  12.232  0.00  0.00    +0.000 C 
BRANCH  18  19
ATOM     19  N   UNL     1      47.494   7.080  11.662  0.00  0.00    +0.000 N 
ATOM     20  C   UNL     1      46.146   7.073  11.423  0.00  0.00    +0.000 C 
ATOM     21  O   UNL     1      45.442   8.058  11.638  0.00  0.00    +0.000 OA
ATOM     22  H   UNL     1      48.009   6.206  11.680  0.00  0.00    +0.000 HD
BRANCH  20  23
ATOM     23  C   UNL     1      45.589   5.849  10.836  0.00  0.00    +0.000 A 
ATOM     24  C   UNL     1      45.798   5.580   9.490  0.00  0.00    +0.000 A 
ATOM     25  S   UNL     1      45.135   4.096   8.978  0.00  0.00    +0.000 S 
ATOM     26  C   UNL     1      44.499   3.784  10.526  0.00  0.00    +0.000 A 
ATOM     27  N   UNL     1      43.780   2.656  10.770  0.00  0.00    +0.000 NA
ATOM     28  C   UNL     1      43.335   2.559  11.978  0.00  0.00    +0.000 A 
ATOM     29  N   UNL     1      43.545   3.486  12.963  0.00  0.00    +0.000 N 
ATOM     30  C   UNL     1      44.288   4.628  12.771  0.00  0.00    +0.000 A 
ATOM     31  O   UNL     1      44.488   5.417  13.688  0.00  0.00    +0.000 OA
ATOM     32  C   UNL     1      44.803   4.789  11.425  0.00  0.00    +0.000 A 
ATOM     33  H   UNL     1      43.174   3.338  13.889  0.00  0.00    +0.000 HD
ENDBRANCH  20  23
ENDBRANCH  18  19
ENDBRANCH   4  18
TORSDOF 7
ENDMDL
MODEL 6
REMARK VINA RESULT:    -7.136      2.846      8.323
REMARK INTER + INTRA:         -11.315
REMARK INTER:                  -9.643
REMARK INTRA:                  -1.672
REMARK UNBOUND:                -1.259
REMARK  Name = 
REMARK  8 active torsions:
REMARK  status: ('A' for Active; 'I' for Inactive)
REMARK    1  A    between atoms: C_1  and  C_2
REMARK    2  A    between atoms: C_2  and  N_3
REMARK    3  A    between atoms: C_2  and  C_25
REMARK    4  A    between atoms: N_3  and  C_4
REMARK    5  A    between atoms: C_4  and  C_5
REMARK    6  A    between atoms: C_8  and  C_9
REMARK    7  A    between atoms: C_9  and  N_10
REMARK    8  A    between atoms: C_11  and  C_13
REMARK                            x       y       z     vdW  Elec       q    Type
REMARK                         _______ _______ _______ _____ _____    ______ ____
ROOT
ATOM      1  C   UNL     1      49.058   8.024  16.072  0.00  0.00    +0.000 A 
ATOM      2  C   UNL     1      48.245   9.034  15.539  0.00  0.00    +0.000 A 
ATOM      3  C   UNL     1      47.797   8.969  14.218  0.00  0.00    +0.000 A 
ATOM      4  C   UNL     1      48.160   7.892  13.399  0.00  0.00    +0.000 A 
ATOM      5  C   UNL     1      49.023   6.914  13.908  0.00  0.00    +0.000 A 
ATOM      6  C   UNL     1      49.460   6.974  15.235  0.00  0.00    +0.000 A 
ENDROOT
BRANCH   1   7
ATOM      7  C   UNL     1      49.470   8.047  17.529  0.00  0.00    +0.000 C 
BRANCH   7   8
ATOM      8  N   UNL     1      48.378   7.572  18.377  0.00  0.00    +0.000 NA
ATOM      9  H   UNL     1      48.136   8.315  19.034  0.00  0.00    +0.000 HD
BRANCH   8  11
ATOM     10  C   UNL     1      50.140   6.444  19.758  0.00  0.00    +0.000 C 
ATOM     11  C   UNL     1      48.720   6.384  19.180  0.00  0.00    +0.000 C 
BRANCH  11  12
ATOM     12  C   UNL     1      48.580   5.110  18.341  0.00  0.00    +0.000 A 
ATOM     13  C   UNL     1      49.691   4.302  18.085  0.00  0.00    +0.000 A 
ATOM     14  C   UNL     1      49.521   3.120  17.370  0.00  0.00    +0.000 A 
ATOM     15  C   UNL     1      48.256   2.781  16.912  0.00  0.00    +0.000 A 
ATOM     16  C   UNL     1      47.210   3.648  17.182  0.00  0.00    +0.000 A 
ATOM     17  N   UNL     1      47.340   4.797  17.884  0.00  0.00    +0.000 NA
ENDBRANCH  11  12
ENDBRANCH   8  11
ENDBRANCH   7   8
ENDBRANCH   1   7
BRANCH   4  18
ATOM     18  C   UNL     1      47.650   7.796  11.986  0.00  0.00    +0.000 C 
BRANCH  18  19
ATOM     19  N   UNL     1      46.958   6.554  11.766  0.00  0.00    +0.000 N 
ATOM     20  C   UNL     1      45.591   6.491  11.810  0.00  0.00    +0.000 C 
ATOM     21  O   UNL     1      44.899   7.491  11.989  0.00  0.00    +0.000 OA
ATOM     22  H   UNL     1      47.506   5.702  11.831  0.00  0.00    +0.000 HD
BRANCH  20  23
ATOM     23  C   UNL     1      44.986   5.177  11.570  0.00  0.00    +0.000 A 
ATOM     24  C   UNL     1      44.297   4.542  12.596  0.00  0.00    +0.000 A 
ATOM     25  S   UNL     1      43.609   3.051  12.139  0.00  0.00    +0.000 S 
ATOM     26  C   UNL     1      44.250   3.176  10.567  0.00  0.00    +0.000 A 
ATOM     27  N   UNL     1      44.044   2.193   9.650  0.00  0.00    +0.000 NA
ATOM     28  C   UNL     1      44.608   2.402   8.508  0.00  0.00    +0.000 A 
ATOM     29  N   UNL     1      45.357   3.506   8.199  0.00  0.00    +0.000 N 
ATOM     30  C   UNL     1      45.570   4.538   9.084  0.00  0.00    +0.000 A 
ATOM     31  O   UNL     1      46.214   5.529   8.759  0.00  0.00    +0.000 OA
ATOM     32  C   UNL     1      44.964   4.346  10.387  0.00  0.00    +0.000 A 
ATOM     33  H   UNL     1      45.760   3.607   7.281  0.00  0.00    +0.000 HD
ENDBRANCH  20  23
ENDBRANCH  18  19
ENDBRANCH   4  18
TORSDOF 7
ENDMDL
MODEL 7
REMARK VINA RESULT:    -7.115      4.879      9.600
REMARK INTER + INTRA:         -11.285
REMARK INTER:                 -10.385
REMARK INTRA:                  -0.900
REMARK UNBOUND:                -1.259
REMARK  Name = 
REMARK  8 active torsions:
REMARK  status: ('A' for Active; 'I' for Inactive)
REMARK    1  A    between atoms: C_1  and  C_2
REMARK    2  A    between atoms: C_2  and  N_3
REMARK    3  A    between atoms: C_2  and  C_25
REMARK    4  A    between atoms: N_3  and  C_4
REMARK    5  A    between atoms: C_4  and  C_5
REMARK    6  A    between atoms: C_8  and  C_9
REMARK    7  A    between atoms: C_9  and  N_10
REMARK    8  A    between atoms: C_11  and  C_13
REMARK                            x       y       z     vdW  Elec       q    Type
REMARK                         _______ _______ _______ _____ _____    ______ ____
ROOT
ATOM      1  C   UNL     1      51.462   2.988  17.752  0.00  0.00    +0.000 A 
ATOM      2  C   UNL     1      50.840   4.212  18.033  0.00  0.00    +0.000 A 
ATOM      3  C   UNL     1      49.475   4.392  17.794  0.00  0.00    +0.000 A 
ATOM      4  C   UNL     1      48.705   3.349  17.261  0.00  0.00    +0.000 A 
ATOM      5  C   UNL     1      49.337   2.147  16.919  0.00  0.00    +0.000 A 
ATOM      6  C   UNL     1      50.700   1.964  17.171  0.00  0.00    +0.000 A 
ENDROOT
BRANCH   1   7
ATOM      7  C   UNL     1      52.921   2.762  18.094  0.00  0.00    +0.000 C 
BRANCH   7   8
ATOM      8  N   UNL     1      53.126   1.399  18.582  0.00  0.00    +0.000 NA
ATOM      9  H   UNL     1      52.985   1.396  19.593  0.00  0.00    +0.000 HD
BRANCH   8  11
ATOM     10  C   UNL     1      55.091   1.394  17.027  0.00  0.00    +0.000 C 
ATOM     11  C   UNL     1      54.482   0.876  18.336  0.00  0.00    +0.000 C 
BRANCH  11  12
ATOM     12  C   UNL     1      54.469  -0.656  18.306  0.00  0.00    +0.000 A 
ATOM     13  C   UNL     1      54.964  -1.349  17.198  0.00  0.00    +0.000 A 
ATOM     14  C   UNL     1      54.995  -2.740  17.225  0.00  0.00    +0.000 A 
ATOM     15  C   UNL     1      54.514  -3.406  18.343  0.00  0.00    +0.000 A 
ATOM     16  C   UNL     1      54.013  -2.650  19.389  0.00  0.00    +0.000 A 
ATOM     17  N   UNL     1      53.981  -1.298  19.399  0.00  0.00    +0.000 NA
ENDBRANCH  11  12
ENDBRANCH   8  11
ENDBRANCH   7   8
ENDBRANCH   1   7
BRANCH   4  18
ATOM     18  C   UNL     1      47.228   3.524  17.035  0.00  0.00    +0.000 C 
BRANCH  18  19
ATOM     19  N   UNL     1      46.971   4.510  16.020  0.00  0.00    +0.000 N 
ATOM     20  C   UNL     1      47.039   4.190  14.690  0.00  0.00    +0.000 C 
ATOM     21  O   UNL     1      47.273   3.046  14.308  0.00  0.00    +0.000 OA
ATOM     22  H   UNL     1      46.989   5.484  16.308  0.00  0.00    +0.000 HD
BRANCH  20  23
ATOM     23  C   UNL     1      46.756   5.271  13.739  0.00  0.00    +0.000 A 
ATOM     24  C   UNL     1      47.729   6.228  13.482  0.00  0.00    +0.000 A 
ATOM     25  S   UNL     1      47.264   7.380  12.315  0.00  0.00    +0.000 S 
ATOM     26  C   UNL     1      45.726   6.670  12.148  0.00  0.00    +0.000 A 
ATOM     27  N   UNL     1      44.804   7.196  11.299  0.00  0.00    +0.000 NA
ATOM     28  C   UNL     1      43.671   6.576  11.291  0.00  0.00    +0.000 A 
ATOM     29  N   UNL     1      43.380   5.476  12.053  0.00  0.00    +0.000 N 
ATOM     30  C   UNL     1      44.288   4.893  12.906  0.00  0.00    +0.000 A 
ATOM     31  O   UNL     1      44.004   3.886  13.543  0.00  0.00    +0.000 OA
ATOM     32  C   UNL     1      45.575   5.560  12.959  0.00  0.00    +0.000 A 
ATOM     33  H   UNL     1      42.474   5.037  11.987  0.00  0.00    +0.000 HD
ENDBRANCH  20  23
ENDBRANCH  18  19
ENDBRANCH   4  18
TORSDOF 7
ENDMDL
MODEL 8
REMARK VINA RESULT:    -6.844      4.096      5.602
REMARK INTER + INTRA:         -10.903
REMARK INTER:                  -9.667
REMARK INTRA:                  -1.236
REMARK UNBOUND:                -1.259
REMARK  Name = 
REMARK  8 active torsions:
REMARK  status: ('A' for Active; 'I' for Inactive)
REMARK    1  A    between atoms: C_1  and  C_2
REMARK    2  A    between atoms: C_2  and  N_3
REMARK    3  A    between atoms: C_2  and  C_25
REMARK    4  A    between atoms: N_3  and  C_4
REMARK    5  A    between atoms: C_4  and  C_5
REMARK    6  A    between atoms: C_8  and  C_9
REMARK    7  A    between atoms: C_9  and  N_10
REMARK    8  A    between atoms: C_11  and  C_13
REMARK                            x       y       z     vdW  Elec       q    Type
REMARK                         _______ _______ _______ _____ _____    ______ ____
ROOT
ATOM      1  C   UNL     1      45.732   6.325  11.891  0.00  0.00    +0.000 A 
ATOM      2  C   UNL     1      45.129   7.583  11.752  0.00  0.00    +0.000 A 
ATOM      3  C   UNL     1      45.816   8.749  12.100  0.00  0.00    +0.000 A 
ATOM      4  C   UNL     1      47.123   8.678  12.602  0.00  0.00    +0.000 A 
ATOM      5  C   UNL     1      47.704   7.420  12.801  0.00  0.00    +0.000 A 
ATOM      6  C   UNL     1      47.020   6.255  12.441  0.00  0.00    +0.000 A 
ENDROOT
BRANCH   1   7
ATOM      7  C   UNL     1      45.022   5.069  11.431  0.00  0.00    +0.000 C 
BRANCH   7   8
ATOM      8  N   UNL     1      44.788   5.114   9.988  0.00  0.00    +0.000 NA
ATOM      9  H   UNL     1      44.056   5.802   9.803  0.00  0.00    +0.000 HD
BRANCH   8  11
ATOM     10  C   UNL     1      43.944   2.809  10.492  0.00  0.00    +0.000 C 
ATOM     11  C   UNL     1      44.327   3.834   9.419  0.00  0.00    +0.000 C 
BRANCH  11  12
ATOM     12  C   UNL     1      45.407   3.229   8.516  0.00  0.00    +0.000 A 
ATOM     13  C   UNL     1      45.755   1.881   8.631  0.00  0.00    +0.000 A 
ATOM     14  C   UNL     1      46.696   1.345   7.757  0.00  0.00    +0.000 A 
ATOM     15  C   UNL     1      47.280   2.166   6.805  0.00  0.00    +0.000 A 
ATOM     16  C   UNL     1      46.904   3.499   6.772  0.00  0.00    +0.000 A 
ATOM     17  N   UNL     1      45.984   4.047   7.598  0.00  0.00    +0.000 NA
ENDBRANCH  11  12
ENDBRANCH   8  11
ENDBRANCH   7   8
ENDBRANCH   1   7
BRANCH   4  18
ATOM     18  C   UNL     1      47.883   9.931  12.944  0.00  0.00    +0.000 C 
BRANCH  18  19
ATOM     19  N   UNL     1      49.245   9.852  12.488  0.00  0.00    +0.000 N 
ATOM     20  C   UNL     1      49.616  10.379  11.280  0.00  0.00    +0.000 C 
ATOM     21  O   UNL     1      48.821  10.978  10.560  0.00  0.00    +0.000 OA
ATOM     22  H   UNL     1      49.852   9.188  12.959  0.00  0.00    +0.000 HD
BRANCH  20  23
ATOM     23  C   UNL     1      51.030  10.248  10.913  0.00  0.00    +0.000 A 
ATOM     24  C   UNL     1      51.792  11.390  10.706  0.00  0.00    +0.000 A 
ATOM     25  S   UNL     1      53.425  11.068  10.341  0.00  0.00    +0.000 S 
ATOM     26  C   UNL     1      53.161   9.387  10.396  0.00  0.00    +0.000 A 
ATOM     27  N   UNL     1      54.173   8.514  10.147  0.00  0.00    +0.000 NA
ATOM     28  C   UNL     1      53.829   7.270  10.194  0.00  0.00    +0.000 A 
ATOM     29  N   UNL     1      52.565   6.822  10.471  0.00  0.00    +0.000 N 
ATOM     30  C   UNL     1      51.516   7.665  10.756  0.00  0.00    +0.000 A 
ATOM     31  O   UNL     1      50.407   7.226  11.038  0.00  0.00    +0.000 OA
ATOM     32  C   UNL     1      51.850   9.076  10.705  0.00  0.00    +0.000 A 
ATOM     33  H   UNL     1      52.371   5.833  10.501  0.00  0.00    +0.000 HD
ENDBRANCH  20  23
ENDBRANCH  18  19
ENDBRANCH   4  18
TORSDOF 7
ENDMDL
MODEL 9
REMARK VINA RESULT:    -6.700      3.764      9.181
REMARK INTER + INTRA:         -10.701
REMARK INTER:                  -9.069
REMARK INTRA:                  -1.632
REMARK UNBOUND:                -1.259
REMARK  Name = 
REMARK  8 active torsions:
REMARK  status: ('A' for Active; 'I' for Inactive)
REMARK    1  A    between atoms: C_1  and  C_2
REMARK    2  A    between atoms: C_2  and  N_3
REMARK    3  A    between atoms: C_2  and  C_25
REMARK    4  A    between atoms: N_3  and  C_4
REMARK    5  A    between atoms: C_4  and  C_5
REMARK    6  A    between atoms: C_8  and  C_9
REMARK    7  A    between atoms: C_9  and  N_10
REMARK    8  A    between atoms: C_11  and  C_13
REMARK                            x       y       z     vdW  Elec       q    Type
REMARK                         _______ _______ _______ _____ _____    ______ ____
ROOT
ATOM      1  C   UNL     1      48.638   5.813  20.182  0.00  0.00    +0.000 A 
ATOM      2  C   UNL     1      49.433   4.807  19.615  0.00  0.00    +0.000 A 
ATOM      3  C   UNL     1      49.000   4.104  18.488  0.00  0.00    +0.000 A 
ATOM      4  C   UNL     1      47.757   4.389  17.909  0.00  0.00    +0.000 A 
ATOM      5  C   UNL     1      46.934   5.349  18.511  0.00  0.00    +0.000 A 
ATOM      6  C   UNL     1      47.373   6.060  19.631  0.00  0.00    +0.000 A 
ENDROOT
BRANCH   1   7
ATOM      7  C   UNL     1      49.144   6.636  21.349  0.00  0.00    +0.000 C 
BRANCH   7   8
ATOM      8  N   UNL     1      49.244   8.046  20.973  0.00  0.00    +0.000 NA
ATOM      9  H   UNL     1      48.340   8.344  20.605  0.00  0.00    +0.000 HD
BRANCH   8  11
ATOM     10  C   UNL     1      51.172   9.485  20.274  0.00  0.00    +0.000 C 
ATOM     11  C   UNL     1      50.245   8.315  19.925  0.00  0.00    +0.000 C 
BRANCH  11  12
ATOM     12  C   UNL     1      49.557   8.608  18.588  0.00  0.00    +0.000 A 
ATOM     13  C   UNL     1      49.872   7.862  17.449  0.00  0.00    +0.000 A 
ATOM     14  C   UNL     1      49.187   8.112  16.263  0.00  0.00    +0.000 A 
ATOM     15  C   UNL     1      48.221   9.107  16.235  0.00  0.00    +0.000 A 
ATOM     16  C   UNL     1      47.986   9.821  17.398  0.00  0.00    +0.000 A 
ATOM     17  N   UNL     1      48.625   9.596  18.568  0.00  0.00    +0.000 NA
ENDBRANCH  11  12
ENDBRANCH   8  11
ENDBRANCH   7   8
ENDBRANCH   1   7
BRANCH   4  18
ATOM     18  C   UNL     1      47.300   3.662  16.673  0.00  0.00    +0.000 C 
BRANCH  18  19
ATOM     19  N   UNL     1      46.737   4.573  15.712  0.00  0.00    +0.000 N 
ATOM     20  C   UNL     1      46.761   4.290  14.373  0.00  0.00    +0.000 C 
ATOM     21  O   UNL     1      47.216   3.234  13.939  0.00  0.00    +0.000 OA
ATOM     22  H   UNL     1      46.558   5.522  16.026  0.00  0.00    +0.000 HD
BRANCH  20  23
ATOM     23  C   UNL     1      46.157   5.286  13.480  0.00  0.00    +0.000 A 
ATOM     24  C   UNL     1      46.857   6.446  13.177  0.00  0.00    +0.000 A 
ATOM     25  S   UNL     1      46.043   7.472  12.086  0.00  0.00    +0.000 S 
ATOM     26  C   UNL     1      44.702   6.425  12.019  0.00  0.00    +0.000 A 
ATOM     27  N   UNL     1      43.616   6.731  11.262  0.00  0.00    +0.000 NA
ATOM     28  C   UNL     1      42.661   5.865  11.324  0.00  0.00    +0.000 A 
ATOM     29  N   UNL     1      42.695   4.719  12.073  0.00  0.00    +0.000 N 
ATOM     30  C   UNL     1      43.782   4.354  12.833  0.00  0.00    +0.000 A 
ATOM     31  O   UNL     1      43.793   3.301  13.460  0.00  0.00    +0.000 OA
ATOM     32  C   UNL     1      44.880   5.301  12.805  0.00  0.00    +0.000 A 
ATOM     33  H   UNL     1      41.914   4.082  12.065  0.00  0.00    +0.000 HD
ENDBRANCH  20  23
ENDBRANCH  18  19
ENDBRANCH   4  18
TORSDOF 7
ENDMDL
