MODEL 1
REMARK VINA RESULT:    -8.318      0.000      0.000
REMARK INTER + INTRA:         -12.741
REMARK INTER:                 -11.722
REMARK INTRA:                  -1.018
REMARK UNBOUND:                -1.018
REMARK  Name = 
REMARK  7 active torsions:
REMARK  status: ('A' for Active; 'I' for Inactive)
REMARK    1  A    between atoms: C_2  and  C_4
REMARK    2  A    between atoms: C_7  and  O_8
REMARK    3  A    between atoms: O_8  and  C_9
REMARK    4  A    between atoms: C_9  and  C_10
REMARK    5  A    between atoms: C_10  and  C_11
REMARK    6  A    between atoms: C_15  and  O_16
REMARK    7  A    between atoms: O_16  and  C_17
REMARK                            x       y       z     vdW  Elec       q    Type
REMARK                         _______ _______ _______ _____ _____    ______ ____
ROOT
ATOM      1  C   UNL     1      43.339   4.782  11.026  0.00  0.00    +0.000 C 
ENDROOT
BRANCH   1   2
ATOM      2  O   UNL     1      43.436   3.469  10.468  0.00  0.00    +0.000 OA
BRANCH   2   6
ATOM      3  C   UNL     1      46.381   2.647   7.629  0.00  0.00    +0.000 A 
ATOM      4  C   UNL     1      45.896   3.955   7.729  0.00  0.00    +0.000 A 
ATOM      5  C   UNL     1      44.909   4.269   8.668  0.00  0.00    +0.000 A 
ATOM      6  C   UNL     1      44.396   3.281   9.513  0.00  0.00    +0.000 A 
ATOM      7  C   UNL     1      44.872   1.973   9.398  0.00  0.00    +0.000 A 
ATOM      8  C   UNL     1      45.855   1.651   8.457  0.00  0.00    +0.000 A 
BRANCH   3  10
ATOM      9  N   UNL     1      47.552   3.075   5.539  0.00  0.00    +0.000 N 
ATOM     10  C   UNL     1      47.431   2.279   6.647  0.00  0.00    +0.000 C 
ATOM     11  O   UNL     1      48.182   1.332   6.827  0.00  0.00    +0.000 OA
ATOM     12  H   UNL     1      48.340   2.879   4.933  0.00  0.00    +0.000 HD
ATOM     13  H   UNL     1      47.141   3.994   5.488  0.00  0.00    +0.000 HD
ENDBRANCH   3  10
ENDBRANCH   2   6
ENDBRANCH   1   2
BRANCH   1  14
ATOM     14  C   UNL     1      43.788   4.737  12.485  0.00  0.00    +0.000 C 
BRANCH  14  15
ATOM     15  C   UNL     1      45.205   5.232  12.640  0.00  0.00    +0.000 A 
ATOM     16  C   UNL     1      45.749   6.133  11.718  0.00  0.00    +0.000 A 
ATOM     17  C   UNL     1      47.041   6.629  11.898  0.00  0.00    +0.000 A 
ATOM     18  C   UNL     1      47.807   6.231  12.999  0.00  0.00    +0.000 A 
ATOM     19  C   UNL     1      47.277   5.328  13.917  0.00  0.00    +0.000 A 
ATOM     20  C   UNL     1      45.978   4.841  13.742  0.00  0.00    +0.000 A 
BRANCH  19  21
ATOM     21  O   UNL     1      47.919   4.889  15.048  0.00  0.00    +0.000 OA
BRANCH  21  22
ATOM     22  C   UNL     1      47.179   4.126  16.029  0.00  0.00    +0.000 C 
ATOM     23  C   UNL     1      47.136   4.658  17.476  0.00  0.00    +0.000 C 
ATOM     24  N   UNL     1      47.621   3.367  17.985  0.00  0.00    +0.000 NA
ATOM     25  C   UNL     1      47.937   2.921  16.622  0.00  0.00    +0.000 C 
ATOM     26  H   UNL     1      46.911   2.805  18.453  0.00  0.00    +0.000 HD
ENDBRANCH  21  22
ENDBRANCH  19  21
ENDBRANCH  14  15
ENDBRANCH   1  14
TORSDOF 7
ENDMDL
MODEL 2
REMARK VINA RESULT:    -7.496      2.581      3.632
REMARK INTER + INTRA:         -11.582
REMARK INTER:                 -10.601
REMARK INTRA:                  -0.981
REMARK UNBOUND:                -1.018
REMARK  Name = 
REMARK  7 active torsions:
REMARK  status: ('A' for Active; 'I' for Inactive)
REMARK    1  A    between atoms: C_2  and  C_4
REMARK    2  A    between atoms: C_7  and  O_8
REMARK    3  A    between atoms: O_8  and  C_9
REMARK    4  A    between atoms: C_9  and  C_10
REMARK    5  A    between atoms: C_10  and  C_11
REMARK    6  A    between atoms: C_15  and  O_16
REMARK    7  A    between atoms: O_16  and  C_17
REMARK                            x       y       z     vdW  Elec       q    Type
REMARK                         _______ _______ _______ _____ _____    ______ ____
ROOT
ATOM      1  C   UNL     1      43.131   4.807  10.991  0.00  0.00    +0.000 C 
ENDROOT
BRANCH   1   2
ATOM      2  O   UNL     1      43.482   3.464  10.649  0.00  0.00    +0.000 OA
BRANCH   2   6
ATOM      3  C   UNL     1      46.354   2.739   7.711  0.00  0.00    +0.000 A 
ATOM      4  C   UNL     1      45.979   4.062   7.966  0.00  0.00    +0.000 A 
ATOM      5  C   UNL     1      45.020   4.345   8.943  0.00  0.00    +0.000 A 
ATOM      6  C   UNL     1      44.424   3.310   9.671  0.00  0.00    +0.000 A 
ATOM      7  C   UNL     1      44.791   1.990   9.400  0.00  0.00    +0.000 A 
ATOM      8  C   UNL     1      45.746   1.700   8.421  0.00  0.00    +0.000 A 
BRANCH   3  10
ATOM      9  N   UNL     1      47.403   3.184   5.559  0.00  0.00    +0.000 N 
ATOM     10  C   UNL     1      47.372   2.403   6.684  0.00  0.00    +0.000 C 
ATOM     11  O   UNL     1      48.175   1.495   6.843  0.00  0.00    +0.000 OA
ATOM     12  H   UNL     1      48.169   3.015   4.920  0.00  0.00    +0.000 HD
ATOM     13  H   UNL     1      46.946   4.082   5.515  0.00  0.00    +0.000 HD
ENDBRANCH   3  10
ENDBRANCH   2   6
ENDBRANCH   1   2
BRANCH   1  14
ATOM     14  C   UNL     1      43.369   5.018  12.485  0.00  0.00    +0.000 C 
BRANCH  14  15
ATOM     15  C   UNL     1      44.820   5.310  12.774  0.00  0.00    +0.000 A 
ATOM     16  C   UNL     1      45.622   4.364  13.423  0.00  0.00    +0.000 A 
ATOM     17  C   UNL     1      46.977   4.619  13.639  0.00  0.00    +0.000 A 
ATOM     18  C   UNL     1      47.549   5.822  13.211  0.00  0.00    +0.000 A 
ATOM     19  C   UNL     1      46.758   6.773  12.571  0.00  0.00    +0.000 A 
ATOM     20  C   UNL     1      45.403   6.511  12.345  0.00  0.00    +0.000 A 
BRANCH  19  21
ATOM     21  O   UNL     1      47.212   7.972  12.081  0.00  0.00    +0.000 OA
BRANCH  21  22
ATOM     22  C   UNL     1      46.869   9.194  12.776  0.00  0.00    +0.000 C 
ATOM     23  C   UNL     1      46.115  10.285  11.989  0.00  0.00    +0.000 C 
ATOM     24  N   UNL     1      47.132  11.281  12.360  0.00  0.00    +0.000 NA
ATOM     25  C   UNL     1      48.012  10.226  12.878  0.00  0.00    +0.000 C 
ATOM     26  H   UNL     1      46.827  11.953  13.063  0.00  0.00    +0.000 HD
ENDBRANCH  21  22
ENDBRANCH  19  21
ENDBRANCH  14  15
ENDBRANCH   1  14
TORSDOF 7
ENDMDL
MODEL 3
REMARK VINA RESULT:    -6.966      2.652      3.338
REMARK INTER + INTRA:         -10.835
REMARK INTER:                 -10.280
REMARK INTRA:                  -0.555
REMARK UNBOUND:                -1.018
REMARK  Name = 
REMARK  7 active torsions:
REMARK  status: ('A' for Active; 'I' for Inactive)
REMARK    1  A    between atoms: C_2  and  C_4
REMARK    2  A    between atoms: C_7  and  O_8
REMARK    3  A    between atoms: O_8  and  C_9
REMARK    4  A    between atoms: C_9  and  C_10
REMARK    5  A    between atoms: C_10  and  C_11
REMARK    6  A    between atoms: C_15  and  O_16
REMARK    7  A    between atoms: O_16  and  C_17
REMARK                            x       y       z     vdW  Elec       q    Type
REMARK                         _______ _______ _______ _____ _____    ______ ____
ROOT
ATOM      1  C   UNL     1      43.707   4.791  10.787  0.00  0.00    +0.000 C 
ENDROOT
BRANCH   1   2
ATOM      2  O   UNL     1      43.543   3.500  10.194  0.00  0.00    +0.000 OA
BRANCH   2   6
ATOM      3  C   UNL     1      46.493   2.548   7.401  0.00  0.00    +0.000 A 
ATOM      4  C   UNL     1      46.001   1.531   8.225  0.00  0.00    +0.000 A 
ATOM      5  C   UNL     1      45.012   1.811   9.173  0.00  0.00    +0.000 A 
ATOM      6  C   UNL     1      44.509   3.108   9.309  0.00  0.00    +0.000 A 
ATOM      7  C   UNL     1      45.016   4.123   8.495  0.00  0.00    +0.000 A 
ATOM      8  C   UNL     1      46.008   3.851   7.548  0.00  0.00    +0.000 A 
BRANCH   3  10
ATOM      9  N   UNL     1      47.477   3.014   5.223  0.00  0.00    +0.000 N 
ATOM     10  C   UNL     1      47.540   2.286   6.381  0.00  0.00    +0.000 C 
ATOM     11  O   UNL     1      48.442   1.483   6.572  0.00  0.00    +0.000 OA
ATOM     12  H   UNL     1      48.255   2.905   4.585  0.00  0.00    +0.000 HD
ATOM     13  H   UNL     1      46.920   3.851   5.144  0.00  0.00    +0.000 HD
ENDBRANCH   3  10
ENDBRANCH   2   6
ENDBRANCH   1   2
BRANCH   1  14
ATOM     14  C   UNL     1      44.998   4.802  11.605  0.00  0.00    +0.000 C 
BRANCH  14  15
ATOM     15  C   UNL     1      45.451   6.210  11.897  0.00  0.00    +0.000 A 
ATOM     16  C   UNL     1      44.679   7.305  11.492  0.00  0.00    +0.000 A 
ATOM     17  C   UNL     1      45.076   8.604  11.813  0.00  0.00    +0.000 A 
ATOM     18  C   UNL     1      46.250   8.826  12.542  0.00  0.00    +0.000 A 
ATOM     19  C   UNL     1      47.029   7.744  12.942  0.00  0.00    +0.000 A 
ATOM     20  C   UNL     1      46.623   6.443  12.630  0.00  0.00    +0.000 A 
BRANCH  19  21
ATOM     21  O   UNL     1      48.180   7.835  13.684  0.00  0.00    +0.000 OA
BRANCH  21  22
ATOM     22  C   UNL     1      49.340   8.482  13.110  0.00  0.00    +0.000 C 
ATOM     23  C   UNL     1      50.064   7.769  11.950  0.00  0.00    +0.000 C 
ATOM     24  N   UNL     1      51.343   7.854  12.670  0.00  0.00    +0.000 NA
ATOM     25  C   UNL     1      50.653   8.276  13.896  0.00  0.00    +0.000 C 
ATOM     26  H   UNL     1      51.992   8.545  12.297  0.00  0.00    +0.000 HD
ENDBRANCH  21  22
ENDBRANCH  19  21
ENDBRANCH  14  15
ENDBRANCH   1  14
TORSDOF 7
ENDMDL
MODEL 4
REMARK VINA RESULT:    -6.854      1.721      8.267
REMARK INTER + INTRA:         -10.677
REMARK INTER:                 -10.088
REMARK INTRA:                  -0.589
REMARK UNBOUND:                -1.018
REMARK  Name = 
REMARK  7 active torsions:
REMARK  status: ('A' for Active; 'I' for Inactive)
REMARK    1  A    between atoms: C_2  and  C_4
REMARK    2  A    between atoms: C_7  and  O_8
REMARK    3  A    between atoms: O_8  and  C_9
REMARK    4  A    between atoms: C_9  and  C_10
REMARK    5  A    between atoms: C_10  and  C_11
REMARK    6  A    between atoms: C_15  and  O_16
REMARK    7  A    between atoms: O_16  and  C_17
REMARK                            x       y       z     vdW  Elec       q    Type
REMARK                         _______ _______ _______ _____ _____    ______ ____
ROOT
ATOM      1  C   UNL     1      45.701   6.074  12.654  0.00  0.00    +0.000 C 
ENDROOT
BRANCH   1   2
ATOM      2  O   UNL     1      47.112   6.089  12.888  0.00  0.00    +0.000 OA
BRANCH   2   6
ATOM      3  C   UNL     1      48.203   4.823  16.711  0.00  0.00    +0.000 A 
ATOM      4  C   UNL     1      48.821   5.961  16.183  0.00  0.00    +0.000 A 
ATOM      5  C   UNL     1      48.482   6.416  14.905  0.00  0.00    +0.000 A 
ATOM      6  C   UNL     1      47.526   5.738  14.143  0.00  0.00    +0.000 A 
ATOM      7  C   UNL     1      46.924   4.592  14.669  0.00  0.00    +0.000 A 
ATOM      8  C   UNL     1      47.262   4.130  15.944  0.00  0.00    +0.000 A 
BRANCH   3  10
ATOM      9  N   UNL     1      49.567   3.419  18.158  0.00  0.00    +0.000 N 
ATOM     10  C   UNL     1      48.536   4.315  18.065  0.00  0.00    +0.000 C 
ATOM     11  O   UNL     1      47.945   4.701  19.064  0.00  0.00    +0.000 OA
ATOM     12  H   UNL     1      49.855   3.165  19.095  0.00  0.00    +0.000 HD
ATOM     13  H   UNL     1      50.233   3.285  17.412  0.00  0.00    +0.000 HD
ENDBRANCH   3  10
ENDBRANCH   2   6
ENDBRANCH   1   2
BRANCH   1  14
ATOM     14  C   UNL     1      45.438   6.398  11.184  0.00  0.00    +0.000 C 
BRANCH  14  15
ATOM     15  C   UNL     1      45.213   5.144  10.377  0.00  0.00    +0.000 A 
ATOM     16  C   UNL     1      44.401   4.117  10.869  0.00  0.00    +0.000 A 
ATOM     17  C   UNL     1      44.152   2.983  10.093  0.00  0.00    +0.000 A 
ATOM     18  C   UNL     1      44.713   2.860   8.818  0.00  0.00    +0.000 A 
ATOM     19  C   UNL     1      45.530   3.873   8.322  0.00  0.00    +0.000 A 
ATOM     20  C   UNL     1      45.768   5.014   9.096  0.00  0.00    +0.000 A 
BRANCH  19  21
ATOM     21  O   UNL     1      46.109   3.879   7.078  0.00  0.00    +0.000 OA
BRANCH  21  22
ATOM     22  C   UNL     1      46.522   2.626   6.486  0.00  0.00    +0.000 C 
ATOM     23  C   UNL     1      47.793   1.950   7.038  0.00  0.00    +0.000 C 
ATOM     24  N   UNL     1      48.367   1.880   5.686  0.00  0.00    +0.000 NA
ATOM     25  C   UNL     1      47.312   2.760   5.167  0.00  0.00    +0.000 C 
ATOM     26  H   UNL     1      48.370   0.946   5.278  0.00  0.00    +0.000 HD
ENDBRANCH  21  22
ENDBRANCH  19  21
ENDBRANCH  14  15
ENDBRANCH   1  14
TORSDOF 7
ENDMDL
MODEL 5
REMARK VINA RESULT:    -6.715      3.118      7.421
REMARK INTER + INTRA:         -10.481
REMARK INTER:                  -9.705
REMARK INTRA:                  -0.776
REMARK UNBOUND:                -1.018
REMARK  Name = 
REMARK  7 active torsions:
REMARK  status: ('A' for Active; 'I' for Inactive)
REMARK    1  A    between atoms: C_2  and  C_4
REMARK    2  A    between atoms: C_7  and  O_8
REMARK    3  A    between atoms: O_8  and  C_9
REMARK    4  A    between atoms: C_9  and  C_10
REMARK    5  A    between atoms: C_10  and  C_11
REMARK    6  A    between atoms: C_15  and  O_16
REMARK    7  A    between atoms: O_16  and  C_17
REMARK                            x       y       z     vdW  Elec       q    Type
REMARK                         _______ _______ _______ _____ _____    ______ ____
ROOT
ATOM      1  C   UNL     1      45.219   6.122  12.601  0.00  0.00    +0.000 C 
ENDROOT
BRANCH   1   2
ATOM      2  O   UNL     1      45.744   7.355  13.100  0.00  0.00    +0.000 OA
BRANCH   2   6
ATOM      3  C   UNL     1      49.649   8.176  11.884  0.00  0.00    +0.000 A 
ATOM      4  C   UNL     1      48.685   9.181  11.755  0.00  0.00    +0.000 A 
ATOM      5  C   UNL     1      47.365   8.943  12.152  0.00  0.00    +0.000 A 
ATOM      6  C   UNL     1      46.997   7.701  12.677  0.00  0.00    +0.000 A 
ATOM      7  C   UNL     1      47.961   6.697  12.789  0.00  0.00    +0.000 A 
ATOM      8  C   UNL     1      49.281   6.926  12.390  0.00  0.00    +0.000 A 
BRANCH   3  10
ATOM      9  N   UNL     1      51.722   7.329  10.930  0.00  0.00    +0.000 N 
ATOM     10  C   UNL     1      51.060   8.395  11.478  0.00  0.00    +0.000 C 
ATOM     11  O   UNL     1      51.603   9.485  11.588  0.00  0.00    +0.000 OA
ATOM     12  H   UNL     1      52.644   7.520  10.558  0.00  0.00    +0.000 HD
ATOM     13  H   UNL     1      51.239   6.514  10.586  0.00  0.00    +0.000 HD
ENDBRANCH   3  10
ENDBRANCH   2   6
ENDBRANCH   1   2
BRANCH   1  14
ATOM     14  C   UNL     1      44.793   6.315  11.147  0.00  0.00    +0.000 C 
BRANCH  14  15
ATOM     15  C   UNL     1      44.852   5.018  10.380  0.00  0.00    +0.000 A 
ATOM     16  C   UNL     1      44.199   3.877  10.859  0.00  0.00    +0.000 A 
ATOM     17  C   UNL     1      44.212   2.695  10.117  0.00  0.00    +0.000 A 
ATOM     18  C   UNL     1      44.878   2.636   8.889  0.00  0.00    +0.000 A 
ATOM     19  C   UNL     1      45.538   3.764   8.406  0.00  0.00    +0.000 A 
ATOM     20  C   UNL     1      45.513   4.951   9.145  0.00  0.00    +0.000 A 
BRANCH  19  21
ATOM     21  O   UNL     1      46.197   3.836   7.205  0.00  0.00    +0.000 OA
BRANCH  21  22
ATOM     22  C   UNL     1      46.619   2.613   6.557  0.00  0.00    +0.000 C 
ATOM     23  C   UNL     1      47.987   2.022   6.952  0.00  0.00    +0.000 C 
ATOM     24  N   UNL     1      48.403   1.992   5.542  0.00  0.00    +0.000 NA
ATOM     25  C   UNL     1      47.239   2.801   5.156  0.00  0.00    +0.000 C 
ATOM     26  H   UNL     1      48.419   1.061   5.127  0.00  0.00    +0.000 HD
ENDBRANCH  21  22
ENDBRANCH  19  21
ENDBRANCH  14  15
ENDBRANCH   1  14
TORSDOF 7
ENDMDL
MODEL 6
REMARK VINA RESULT:    -6.020      1.905      8.373
REMARK INTER + INTRA:          -9.501
REMARK INTER:                  -9.025
REMARK INTRA:                  -0.477
REMARK UNBOUND:                -1.018
REMARK  Name = 
REMARK  7 active torsions:
REMARK  status: ('A' for Active; 'I' for Inactive)
REMARK    1  A    between atoms: C_2  and  C_4
REMARK    2  A    between atoms: C_7  and  O_8
REMARK    3  A    between atoms: O_8  and  C_9
REMARK    4  A    between atoms: C_9  and  C_10
REMARK    5  A    between atoms: C_10  and  C_11
REMARK    6  A    between atoms: C_15  and  O_16
REMARK    7  A    between atoms: O_16  and  C_17
REMARK                            x       y       z     vdW  Elec       q    Type
REMARK                         _______ _______ _______ _____ _____    ______ ____
ROOT
ATOM      1  C   UNL     1      47.711   5.900  13.449  0.00  0.00    +0.000 C 
ENDROOT
BRANCH   1   2
ATOM      2  O   UNL     1      47.199   4.771  14.163  0.00  0.00    +0.000 OA
BRANCH   2   6
ATOM      3  C   UNL     1      48.566   4.581  18.100  0.00  0.00    +0.000 A 
ATOM      4  C   UNL     1      47.784   3.529  17.613  0.00  0.00    +0.000 A 
ATOM      5  C   UNL     1      47.307   3.556  16.299  0.00  0.00    +0.000 A 
ATOM      6  C   UNL     1      47.604   4.636  15.461  0.00  0.00    +0.000 A 
ATOM      7  C   UNL     1      48.372   5.691  15.958  0.00  0.00    +0.000 A 
ATOM      8  C   UNL     1      48.847   5.672  17.273  0.00  0.00    +0.000 A 
BRANCH   3  10
ATOM      9  N   UNL     1      48.416   3.828  20.410  0.00  0.00    +0.000 N 
ATOM     10  C   UNL     1      49.091   4.582  19.488  0.00  0.00    +0.000 C 
ATOM     11  O   UNL     1      50.103   5.196  19.796  0.00  0.00    +0.000 OA
ATOM     12  H   UNL     1      48.846   3.750  21.324  0.00  0.00    +0.000 HD
ATOM     13  H   UNL     1      47.754   3.115  20.142  0.00  0.00    +0.000 HD
ENDBRANCH   3  10
ENDBRANCH   2   6
ENDBRANCH   1   2
BRANCH   1  14
ATOM     14  C   UNL     1      46.544   6.788  13.022  0.00  0.00    +0.000 C 
BRANCH  14  15
ATOM     15  C   UNL     1      45.552   6.025  12.180  0.00  0.00    +0.000 A 
ATOM     16  C   UNL     1      44.294   5.687  12.694  0.00  0.00    +0.000 A 
ATOM     17  C   UNL     1      43.360   5.029  11.892  0.00  0.00    +0.000 A 
ATOM     18  C   UNL     1      43.670   4.699  10.568  0.00  0.00    +0.000 A 
ATOM     19  C   UNL     1      44.922   5.023  10.051  0.00  0.00    +0.000 A 
ATOM     20  C   UNL     1      45.852   5.693  10.852  0.00  0.00    +0.000 A 
BRANCH  19  21
ATOM     21  O   UNL     1      45.328   4.779   8.763  0.00  0.00    +0.000 OA
BRANCH  21  22
ATOM     22  C   UNL     1      45.115   3.467   8.193  0.00  0.00    +0.000 C 
ATOM     23  C   UNL     1      45.378   2.239   9.087  0.00  0.00    +0.000 C 
ATOM     24  N   UNL     1      46.285   1.673   8.078  0.00  0.00    +0.000 NA
ATOM     25  C   UNL     1      46.280   2.937   7.330  0.00  0.00    +0.000 C 
ATOM     26  H   UNL     1      45.901   0.882   7.563  0.00  0.00    +0.000 HD
ENDBRANCH  21  22
ENDBRANCH  19  21
ENDBRANCH  14  15
ENDBRANCH   1  14
TORSDOF 7
ENDMDL
MODEL 7
REMARK VINA RESULT:    -6.015      4.142      5.912
REMARK INTER + INTRA:          -9.495
REMARK INTER:                  -8.897
REMARK INTRA:                  -0.598
REMARK UNBOUND:                -1.018
REMARK  Name = 
REMARK  7 active torsions:
REMARK  status: ('A' for Active; 'I' for Inactive)
REMARK    1  A    between atoms: C_2  and  C_4
REMARK    2  A    between atoms: C_7  and  O_8
REMARK    3  A    between atoms: O_8  and  C_9
REMARK    4  A    between atoms: C_9  and  C_10
REMARK    5  A    between atoms: C_10  and  C_11
REMARK    6  A    between atoms: C_15  and  O_16
REMARK    7  A    between atoms: O_16  and  C_17
REMARK                            x       y       z     vdW  Elec       q    Type
REMARK                         _______ _______ _______ _____ _____    ______ ____
ROOT
ATOM      1  C   UNL     1      49.249   7.497  13.539  0.00  0.00    +0.000 C 
ENDROOT
BRANCH   1   2
ATOM      2  O   UNL     1      48.713   6.208  13.226  0.00  0.00    +0.000 OA
BRANCH   2   6
ATOM      3  C   UNL     1      44.592   5.747  12.764  0.00  0.00    +0.000 A 
ATOM      4  C   UNL     1      45.174   6.963  12.390  0.00  0.00    +0.000 A 
ATOM      5  C   UNL     1      46.552   7.155  12.530  0.00  0.00    +0.000 A 
ATOM      6  C   UNL     1      47.360   6.137  13.047  0.00  0.00    +0.000 A 
ATOM      7  C   UNL     1      46.771   4.931  13.434  0.00  0.00    +0.000 A 
ATOM      8  C   UNL     1      45.393   4.735  13.301  0.00  0.00    +0.000 A 
BRANCH   3  10
ATOM      9  N   UNL     1      42.466   6.255  11.692  0.00  0.00    +0.000 N 
ATOM     10  C   UNL     1      43.134   5.507  12.625  0.00  0.00    +0.000 C 
ATOM     11  O   UNL     1      42.553   4.656  13.283  0.00  0.00    +0.000 OA
ATOM     12  H   UNL     1      41.498   6.007  11.531  0.00  0.00    +0.000 HD
ATOM     13  H   UNL     1      42.947   6.763  10.965  0.00  0.00    +0.000 HD
ENDBRANCH   3  10
ENDBRANCH   2   6
ENDBRANCH   1   2
BRANCH   1  14
ATOM     14  C   UNL     1      49.052   7.768  15.030  0.00  0.00    +0.000 C 
BRANCH  14  15
ATOM     15  C   UNL     1      49.913   6.859  15.871  0.00  0.00    +0.000 A 
ATOM     16  C   UNL     1      51.307   6.977  15.847  0.00  0.00    +0.000 A 
ATOM     17  C   UNL     1      52.096   6.170  16.670  0.00  0.00    +0.000 A 
ATOM     18  C   UNL     1      51.503   5.236  17.525  0.00  0.00    +0.000 A 
ATOM     19  C   UNL     1      50.116   5.105  17.550  0.00  0.00    +0.000 A 
ATOM     20  C   UNL     1      49.328   5.923  16.734  0.00  0.00    +0.000 A 
BRANCH  19  21
ATOM     21  O   UNL     1      49.421   4.248  18.366  0.00  0.00    +0.000 OA
BRANCH  21  22
ATOM     22  C   UNL     1      49.151   2.903  17.910  0.00  0.00    +0.000 C 
ATOM     23  C   UNL     1      50.276   2.151  17.169  0.00  0.00    +0.000 C 
ATOM     24  N   UNL     1      49.376   1.879  16.038  0.00  0.00    +0.000 NA
ATOM     25  C   UNL     1      48.378   2.812  16.578  0.00  0.00    +0.000 C 
ATOM     26  H   UNL     1      49.056   0.914  15.978  0.00  0.00    +0.000 HD
ENDBRANCH  21  22
ENDBRANCH  19  21
ENDBRANCH  14  15
ENDBRANCH   1  14
TORSDOF 7
ENDMDL
MODEL 8
REMARK VINA RESULT:    -6.001      2.837      7.488
REMARK INTER + INTRA:          -9.476
REMARK INTER:                  -8.481
REMARK INTRA:                  -0.995
REMARK UNBOUND:                -1.018
REMARK  Name = 
REMARK  7 active torsions:
REMARK  status: ('A' for Active; 'I' for Inactive)
REMARK    1  A    between atoms: C_2  and  C_4
REMARK    2  A    between atoms: C_7  and  O_8
REMARK    3  A    between atoms: O_8  and  C_9
REMARK    4  A    between atoms: C_9  and  C_10
REMARK    5  A    between atoms: C_10  and  C_11
REMARK    6  A    between atoms: C_15  and  O_16
REMARK    7  A    between atoms: O_16  and  C_17
REMARK                            x       y       z     vdW  Elec       q    Type
REMARK                         _______ _______ _______ _____ _____    ______ ____
ROOT
ATOM      1  C   UNL     1      49.278   7.060  12.913  0.00  0.00    +0.000 C 
ENDROOT
BRANCH   1   2
ATOM      2  O   UNL     1      48.830   7.389  14.230  0.00  0.00    +0.000 OA
BRANCH   2   6
ATOM      3  C   UNL     1      47.819   4.288  16.832  0.00  0.00    +0.000 A 
ATOM      4  C   UNL     1      47.244   4.304  15.557  0.00  0.00    +0.000 A 
ATOM      5  C   UNL     1      47.559   5.327  14.657  0.00  0.00    +0.000 A 
ATOM      6  C   UNL     1      48.446   6.344  15.023  0.00  0.00    +0.000 A 
ATOM      7  C   UNL     1      49.004   6.332  16.303  0.00  0.00    +0.000 A 
ATOM      8  C   UNL     1      48.690   5.315  17.209  0.00  0.00    +0.000 A 
BRANCH   3  10
ATOM      9  N   UNL     1      48.354   3.092  18.884  0.00  0.00    +0.000 N 
ATOM     10  C   UNL     1      47.512   3.216  17.811  0.00  0.00    +0.000 C 
ATOM     11  O   UNL     1      46.532   2.494  17.693  0.00  0.00    +0.000 OA
ATOM     12  H   UNL     1      48.073   2.431  19.598  0.00  0.00    +0.000 HD
ATOM     13  H   UNL     1      49.000   3.820  19.148  0.00  0.00    +0.000 HD
ENDBRANCH   3  10
ENDBRANCH   2   6
ENDBRANCH   1   2
BRANCH   1  14
ATOM     14  C   UNL     1      48.595   7.987  11.909  0.00  0.00    +0.000 C 
BRANCH  14  15
ATOM     15  C   UNL     1      47.116   7.703  11.818  0.00  0.00    +0.000 A 
ATOM     16  C   UNL     1      46.184   8.611  12.333  0.00  0.00    +0.000 A 
ATOM     17  C   UNL     1      44.816   8.368  12.196  0.00  0.00    +0.000 A 
ATOM     18  C   UNL     1      44.362   7.216  11.546  0.00  0.00    +0.000 A 
ATOM     19  C   UNL     1      45.281   6.303  11.037  0.00  0.00    +0.000 A 
ATOM     20  C   UNL     1      46.651   6.553  11.164  0.00  0.00    +0.000 A 
BRANCH  19  21
ATOM     21  O   UNL     1      44.957   5.157  10.355  0.00  0.00    +0.000 OA
BRANCH  21  22
ATOM     22  C   UNL     1      44.842   3.912  11.082  0.00  0.00    +0.000 C 
ATOM     23  C   UNL     1      44.273   2.689  10.335  0.00  0.00    +0.000 C 
ATOM     24  N   UNL     1      43.264   2.491  11.386  0.00  0.00    +0.000 NA
ATOM     25  C   UNL     1      43.591   3.796  11.978  0.00  0.00    +0.000 C 
ATOM     26  H   UNL     1      43.444   1.698  12.000  0.00  0.00    +0.000 HD
ENDBRANCH  21  22
ENDBRANCH  19  21
ENDBRANCH  14  15
ENDBRANCH   1  14
TORSDOF 7
ENDMDL
MODEL 9
REMARK VINA RESULT:    -5.944      3.129      5.153
REMARK INTER + INTRA:          -9.395
REMARK INTER:                  -8.495
REMARK INTRA:                  -0.900
REMARK UNBOUND:                -1.018
REMARK  Name = 
REMARK  7 active torsions:
REMARK  status: ('A' for Active; 'I' for Inactive)
REMARK    1  A    between atoms: C_2  and  C_4
REMARK    2  A    between atoms: C_7  and  O_8
REMARK    3  A    between atoms: O_8  and  C_9
REMARK    4  A    between atoms: C_9  and  C_10
REMARK    5  A    between atoms: C_10  and  C_11
REMARK    6  A    between atoms: C_15  and  O_16
REMARK    7  A    between atoms: O_16  and  C_17
REMARK                            x       y       z     vdW  Elec       q    Type
REMARK                         _______ _______ _______ _____ _____    ______ ____
ROOT
ATOM      1  C   UNL     1      48.891   7.325  12.704  0.00  0.00    +0.000 C 
ENDROOT
BRANCH   1   2
ATOM      2  O   UNL     1      47.474   7.523  12.696  0.00  0.00    +0.000 OA
BRANCH   2   6
ATOM      3  C   UNL     1      45.014   4.256  11.869  0.00  0.00    +0.000 A 
ATOM      4  C   UNL     1      45.877   4.182  12.968  0.00  0.00    +0.000 A 
ATOM      5  C   UNL     1      46.716   5.257  13.277  0.00  0.00    +0.000 A 
ATOM      6  C   UNL     1      46.705   6.412  12.491  0.00  0.00    +0.000 A 
ATOM      7  C   UNL     1      45.854   6.474  11.385  0.00  0.00    +0.000 A 
ATOM      8  C   UNL     1      45.015   5.401  11.068  0.00  0.00    +0.000 A 
BRANCH   3  10
ATOM      9  N   UNL     1      43.699   2.320  12.536  0.00  0.00    +0.000 N 
ATOM     10  C   UNL     1      44.107   3.136  11.515  0.00  0.00    +0.000 C 
ATOM     11  O   UNL     1      43.707   2.965  10.373  0.00  0.00    +0.000 OA
ATOM     12  H   UNL     1      42.997   1.629  12.301  0.00  0.00    +0.000 HD
ATOM     13  H   UNL     1      43.791   2.582  13.506  0.00  0.00    +0.000 HD
ENDBRANCH   3  10
ENDBRANCH   2   6
ENDBRANCH   1   2
BRANCH   1  14
ATOM     14  C   UNL     1      49.519   8.270  13.727  0.00  0.00    +0.000 C 
BRANCH  14  15
ATOM     15  C   UNL     1      50.150   7.506  14.865  0.00  0.00    +0.000 A 
ATOM     16  C   UNL     1      51.527   7.591  15.101  0.00  0.00    +0.000 A 
ATOM     17  C   UNL     1      52.097   6.925  16.187  0.00  0.00    +0.000 A 
ATOM     18  C   UNL     1      51.300   6.166  17.050  0.00  0.00    +0.000 A 
ATOM     19  C   UNL     1      49.930   6.068  16.819  0.00  0.00    +0.000 A 
ATOM     20  C   UNL     1      49.360   6.745  15.737  0.00  0.00    +0.000 A 
BRANCH  19  21
ATOM     21  O   UNL     1      49.046   5.380  17.611  0.00  0.00    +0.000 OA
BRANCH  21  22
ATOM     22  C   UNL     1      48.500   4.128  17.136  0.00  0.00    +0.000 C 
ATOM     23  C   UNL     1      46.998   4.079  16.792  0.00  0.00    +0.000 C 
ATOM     24  N   UNL     1      46.811   2.924  17.682  0.00  0.00    +0.000 NA
ATOM     25  C   UNL     1      48.156   3.108  18.242  0.00  0.00    +0.000 C 
ATOM     26  H   UNL     1      46.678   2.036  17.199  0.00  0.00    +0.000 HD
ENDBRANCH  21  22
ENDBRANCH  19  21
ENDBRANCH  14  15
ENDBRANCH   1  14
TORSDOF 7
ENDMDL
