MODEL 1
REMARK VINA RESULT:    -8.412      0.000      0.000
REMARK INTER + INTRA:         -11.888
REMARK INTER:                 -10.871
REMARK INTRA:                  -1.017
REMARK UNBOUND:                -1.017
REMARK  Name = 
REMARK  5 active torsions:
REMARK  status: ('A' for Active; 'I' for Inactive)
REMARK    1  A    between atoms: C_2  and  C_4
REMARK    2  A    between atoms: C_8  and  O_9
REMARK    3  A    between atoms: O_9  and  C_10
REMARK    4  A    between atoms: C_10  and  C_11
REMARK    5  A    between atoms: C_15  and  C_16
REMARK                            x       y       z     vdW  Elec       q    Type
REMARK                         _______ _______ _______ _____ _____    ______ ____
ROOT
ATOM      1  C   UNL     1      43.444   6.293  10.944  0.00  0.00    +0.000 C 
ENDROOT
BRANCH   1   2
ATOM      2  C   UNL     1      43.772   4.833  10.763  0.00  0.00    +0.000 A 
ATOM      3  C   UNL     1      43.113   3.857  11.516  0.00  0.00    +0.000 A 
ATOM      4  C   UNL     1      43.343   2.508  11.265  0.00  0.00    +0.000 A 
ATOM      5  C   UNL     1      44.226   2.126  10.251  0.00  0.00    +0.000 A 
ATOM      6  C   UNL     1      44.892   3.077   9.457  0.00  0.00    +0.000 A 
ATOM      7  C   UNL     1      44.679   4.433   9.766  0.00  0.00    +0.000 A 
BRANCH   6   8
ATOM      8  C   UNL     1      45.689   2.676   8.272  0.00  0.00    +0.000 A 
ATOM      9  C   UNL     1      45.928   3.590   7.227  0.00  0.00    +0.000 A 
ATOM     10  C   UNL     1      46.757   3.273   6.148  0.00  0.00    +0.000 A 
ATOM     11  C   UNL     1      47.379   2.033   6.093  0.00  0.00    +0.000 A 
ATOM     12  C   UNL     1      47.153   1.102   7.103  0.00  0.00    +0.000 A 
ATOM     13  C   UNL     1      46.311   1.418   8.176  0.00  0.00    +0.000 A 
ENDBRANCH   6   8
ENDBRANCH   1   2
BRANCH   1  14
ATOM     14  O   UNL     1      43.890   6.769  12.211  0.00  0.00    +0.000 OA
BRANCH  14  19
ATOM     15  C   UNL     1      46.873   5.366  13.746  0.00  0.00    +0.000 A 
ATOM     16  C   UNL     1      47.905   6.089  13.131  0.00  0.00    +0.000 A 
ATOM     17  C   UNL     1      47.601   7.057  12.178  0.00  0.00    +0.000 A 
ATOM     18  C   UNL     1      46.269   7.310  11.841  0.00  0.00    +0.000 A 
ATOM     19  C   UNL     1      45.230   6.607  12.459  0.00  0.00    +0.000 A 
ATOM     20  C   UNL     1      45.537   5.641  13.419  0.00  0.00    +0.000 A 
BRANCH  15  22
ATOM     21  N   UNL     1      47.358   4.736  16.037  0.00  0.00    +0.000 N 
ATOM     22  C   UNL     1      47.232   4.328  14.740  0.00  0.00    +0.000 C 
ATOM     23  O   UNL     1      47.372   3.148  14.426  0.00  0.00    +0.000 OA
ATOM     24  H   UNL     1      47.513   4.014  16.733  0.00  0.00    +0.000 HD
ATOM     25  H   UNL     1      47.028   5.637  16.356  0.00  0.00    +0.000 HD
ENDBRANCH  15  22
ENDBRANCH  14  19
ENDBRANCH   1  14
TORSDOF 5
ENDMDL
MODEL 2
REMARK VINA RESULT:    -7.613      2.351      3.106
REMARK INTER + INTRA:         -10.855
REMARK INTER:                  -9.882
REMARK INTRA:                  -0.973
REMARK UNBOUND:                -1.017
REMARK  Name = 
REMARK  5 active torsions:
REMARK  status: ('A' for Active; 'I' for Inactive)
REMARK    1  A    between atoms: C_2  and  C_4
REMARK    2  A    between atoms: C_8  and  O_9
REMARK    3  A    between atoms: O_9  and  C_10
REMARK    4  A    between atoms: C_10  and  C_11
REMARK    5  A    between atoms: C_15  and  C_16
REMARK                            x       y       z     vdW  Elec       q    Type
REMARK                         _______ _______ _______ _____ _____    ______ ____
ROOT
ATOM      1  C   UNL     1      44.281   6.617  11.395  0.00  0.00    +0.000 C 
ENDROOT
BRANCH   1   2
ATOM      2  C   UNL     1      44.260   5.138  11.097  0.00  0.00    +0.000 A 
ATOM      3  C   UNL     1      43.378   4.290  11.772  0.00  0.00    +0.000 A 
ATOM      4  C   UNL     1      43.289   2.948  11.413  0.00  0.00    +0.000 A 
ATOM      5  C   UNL     1      44.073   2.449  10.370  0.00  0.00    +0.000 A 
ATOM      6  C   UNL     1      44.957   3.276   9.652  0.00  0.00    +0.000 A 
ATOM      7  C   UNL     1      45.063   4.616  10.068  0.00  0.00    +0.000 A 
BRANCH   6   8
ATOM      8  C   UNL     1      45.656   2.793   8.436  0.00  0.00    +0.000 A 
ATOM      9  C   UNL     1      45.900   3.664   7.357  0.00  0.00    +0.000 A 
ATOM     10  C   UNL     1      46.644   3.264   6.244  0.00  0.00    +0.000 A 
ATOM     11  C   UNL     1      47.172   1.981   6.187  0.00  0.00    +0.000 A 
ATOM     12  C   UNL     1      46.936   1.091   7.231  0.00  0.00    +0.000 A 
ATOM     13  C   UNL     1      46.180   1.491   8.339  0.00  0.00    +0.000 A 
ENDBRANCH   6   8
ENDBRANCH   1   2
BRANCH   1  14
ATOM     14  O   UNL     1      44.914   6.882  12.644  0.00  0.00    +0.000 OA
BRANCH  14  19
ATOM     15  C   UNL     1      47.739   9.124  12.179  0.00  0.00    +0.000 A 
ATOM     16  C   UNL     1      48.840   8.273  12.356  0.00  0.00    +0.000 A 
ATOM     17  C   UNL     1      48.636   6.928  12.645  0.00  0.00    +0.000 A 
ATOM     18  C   UNL     1      47.336   6.426  12.753  0.00  0.00    +0.000 A 
ATOM     19  C   UNL     1      46.231   7.260  12.564  0.00  0.00    +0.000 A 
ATOM     20  C   UNL     1      46.438   8.609  12.267  0.00  0.00    +0.000 A 
BRANCH  15  22
ATOM     21  N   UNL     1      47.346  11.463  12.684  0.00  0.00    +0.000 N 
ATOM     22  C   UNL     1      47.991  10.556  11.893  0.00  0.00    +0.000 C 
ATOM     23  O   UNL     1      48.772  10.916  11.015  0.00  0.00    +0.000 OA
ATOM     24  H   UNL     1      47.585  12.440  12.552  0.00  0.00    +0.000 HD
ATOM     25  H   UNL     1      46.888  11.201  13.547  0.00  0.00    +0.000 HD
ENDBRANCH  15  22
ENDBRANCH  14  19
ENDBRANCH   1  14
TORSDOF 5
ENDMDL
MODEL 3
REMARK VINA RESULT:    -7.567      1.952      2.283
REMARK INTER + INTRA:         -10.795
REMARK INTER:                  -9.903
REMARK INTRA:                  -0.892
REMARK UNBOUND:                -1.017
REMARK  Name = 
REMARK  5 active torsions:
REMARK  status: ('A' for Active; 'I' for Inactive)
REMARK    1  A    between atoms: C_2  and  C_4
REMARK    2  A    between atoms: C_8  and  O_9
REMARK    3  A    between atoms: O_9  and  C_10
REMARK    4  A    between atoms: C_10  and  C_11
REMARK    5  A    between atoms: C_15  and  C_16
REMARK                            x       y       z     vdW  Elec       q    Type
REMARK                         _______ _______ _______ _____ _____    ______ ____
ROOT
ATOM      1  C   UNL     1      44.145   6.613  11.272  0.00  0.00    +0.000 C 
ENDROOT
BRANCH   1   2
ATOM      2  C   UNL     1      44.204   5.128  11.014  0.00  0.00    +0.000 A 
ATOM      3  C   UNL     1      43.376   4.251  11.720  0.00  0.00    +0.000 A 
ATOM      4  C   UNL     1      43.359   2.897  11.398  0.00  0.00    +0.000 A 
ATOM      5  C   UNL     1      44.162   2.414  10.362  0.00  0.00    +0.000 A 
ATOM      6  C   UNL     1      44.993   3.269   9.613  0.00  0.00    +0.000 A 
ATOM      7  C   UNL     1      45.027   4.623   9.993  0.00  0.00    +0.000 A 
BRANCH   6   8
ATOM      8  C   UNL     1      45.709   2.792   8.405  0.00  0.00    +0.000 A 
ATOM      9  C   UNL     1      46.029   3.684   7.364  0.00  0.00    +0.000 A 
ATOM     10  C   UNL     1      46.789   3.285   6.262  0.00  0.00    +0.000 A 
ATOM     11  C   UNL     1      47.259   1.981   6.179  0.00  0.00    +0.000 A 
ATOM     12  C   UNL     1      46.948   1.071   7.185  0.00  0.00    +0.000 A 
ATOM     13  C   UNL     1      46.175   1.470   8.281  0.00  0.00    +0.000 A 
ENDBRANCH   6   8
ENDBRANCH   1   2
BRANCH   1  14
ATOM     14  O   UNL     1      44.717   6.940  12.536  0.00  0.00    +0.000 OA
BRANCH  14  19
ATOM     15  C   UNL     1      48.170   8.069  12.716  0.00  0.00    +0.000 A 
ATOM     16  C   UNL     1      48.058   9.442  12.456  0.00  0.00    +0.000 A 
ATOM     17  C   UNL     1      46.809  10.001  12.207  0.00  0.00    +0.000 A 
ATOM     18  C   UNL     1      45.668   9.195  12.221  0.00  0.00    +0.000 A 
ATOM     19  C   UNL     1      45.764   7.827  12.494  0.00  0.00    +0.000 A 
ATOM     20  C   UNL     1      47.017   7.270  12.751  0.00  0.00    +0.000 A 
BRANCH  15  22
ATOM     21  N   UNL     1      50.280   7.240  11.854  0.00  0.00    +0.000 N 
ATOM     22  C   UNL     1      49.517   7.501  12.956  0.00  0.00    +0.000 C 
ATOM     23  O   UNL     1      49.949   7.310  14.091  0.00  0.00    +0.000 OA
ATOM     24  H   UNL     1      51.234   6.938  12.017  0.00  0.00    +0.000 HD
ATOM     25  H   UNL     1      50.047   7.597  10.937  0.00  0.00    +0.000 HD
ENDBRANCH  15  22
ENDBRANCH  14  19
ENDBRANCH   1  14
TORSDOF 5
ENDMDL
MODEL 4
REMARK VINA RESULT:    -7.129      1.643      2.370
REMARK INTER + INTRA:         -10.230
REMARK INTER:                  -9.380
REMARK INTRA:                  -0.849
REMARK UNBOUND:                -1.017
REMARK  Name = 
REMARK  5 active torsions:
REMARK  status: ('A' for Active; 'I' for Inactive)
REMARK    1  A    between atoms: C_2  and  C_4
REMARK    2  A    between atoms: C_8  and  O_9
REMARK    3  A    between atoms: O_9  and  C_10
REMARK    4  A    between atoms: C_10  and  C_11
REMARK    5  A    between atoms: C_15  and  C_16
REMARK                            x       y       z     vdW  Elec       q    Type
REMARK                         _______ _______ _______ _____ _____    ______ ____
ROOT
ATOM      1  C   UNL     1      45.583   6.085  12.611  0.00  0.00    +0.000 C 
ENDROOT
BRANCH   1   2
ATOM      2  C   UNL     1      45.033   4.898  11.862  0.00  0.00    +0.000 A 
ATOM      3  C   UNL     1      43.782   4.368  12.189  0.00  0.00    +0.000 A 
ATOM      4  C   UNL     1      43.235   3.345  11.422  0.00  0.00    +0.000 A 
ATOM      5  C   UNL     1      43.931   2.851  10.315  0.00  0.00    +0.000 A 
ATOM      6  C   UNL     1      45.183   3.372   9.940  0.00  0.00    +0.000 A 
ATOM      7  C   UNL     1      45.734   4.372  10.763  0.00  0.00    +0.000 A 
BRANCH   6   8
ATOM      8  C   UNL     1      45.840   2.975   8.672  0.00  0.00    +0.000 A 
ATOM      9  C   UNL     1      46.171   1.628   8.428  0.00  0.00    +0.000 A 
ATOM     10  C   UNL     1      46.698   1.210   7.203  0.00  0.00    +0.000 A 
ATOM     11  C   UNL     1      46.897   2.131   6.183  0.00  0.00    +0.000 A 
ATOM     12  C   UNL     1      46.593   3.473   6.397  0.00  0.00    +0.000 A 
ATOM     13  C   UNL     1      46.078   3.890   7.630  0.00  0.00    +0.000 A 
ENDBRANCH   6   8
ENDBRANCH   1   2
BRANCH   1  14
ATOM     14  O   UNL     1      47.006   6.036  12.681  0.00  0.00    +0.000 OA
BRANCH  14  19
ATOM     15  C   UNL     1      47.774   4.615  15.940  0.00  0.00    +0.000 A 
ATOM     16  C   UNL     1      48.502   5.641  16.559  0.00  0.00    +0.000 A 
ATOM     17  C   UNL     1      48.750   6.826  15.874  0.00  0.00    +0.000 A 
ATOM     18  C   UNL     1      48.268   6.994  14.573  0.00  0.00    +0.000 A 
ATOM     19  C   UNL     1      47.529   5.985  13.950  0.00  0.00    +0.000 A 
ATOM     20  C   UNL     1      47.275   4.799  14.642  0.00  0.00    +0.000 A 
BRANCH  15  22
ATOM     21  N   UNL     1      48.552   2.433  16.660  0.00  0.00    +0.000 N 
ATOM     22  C   UNL     1      47.546   3.357  16.689  0.00  0.00    +0.000 C 
ATOM     23  O   UNL     1      46.522   3.165  17.341  0.00  0.00    +0.000 OA
ATOM     24  H   UNL     1      48.438   1.612  17.245  0.00  0.00    +0.000 HD
ATOM     25  H   UNL     1      49.482   2.655  16.332  0.00  0.00    +0.000 HD
ENDBRANCH  15  22
ENDBRANCH  14  19
ENDBRANCH   1  14
TORSDOF 5
ENDMDL
MODEL 5
REMARK VINA RESULT:    -7.034      2.762      4.141
REMARK INTER + INTRA:         -10.106
REMARK INTER:                  -9.203
REMARK INTRA:                  -0.903
REMARK UNBOUND:                -1.017
REMARK  Name = 
REMARK  5 active torsions:
REMARK  status: ('A' for Active; 'I' for Inactive)
REMARK    1  A    between atoms: C_2  and  C_4
REMARK    2  A    between atoms: C_8  and  O_9
REMARK    3  A    between atoms: O_9  and  C_10
REMARK    4  A    between atoms: C_10  and  C_11
REMARK    5  A    between atoms: C_15  and  C_16
REMARK                            x       y       z     vdW  Elec       q    Type
REMARK                         _______ _______ _______ _____ _____    ______ ____
ROOT
ATOM      1  C   UNL     1      44.991   6.009  12.603  0.00  0.00    +0.000 C 
ENDROOT
BRANCH   1   2
ATOM      2  C   UNL     1      44.681   4.718  11.887  0.00  0.00    +0.000 A 
ATOM      3  C   UNL     1      43.573   3.950  12.253  0.00  0.00    +0.000 A 
ATOM      4  C   UNL     1      43.232   2.820  11.517  0.00  0.00    +0.000 A 
ATOM      5  C   UNL     1      43.992   2.457  10.401  0.00  0.00    +0.000 A 
ATOM      6  C   UNL     1      45.102   3.216   9.987  0.00  0.00    +0.000 A 
ATOM      7  C   UNL     1      45.452   4.324  10.779  0.00  0.00    +0.000 A 
BRANCH   6   8
ATOM      8  C   UNL     1      45.799   2.936   8.709  0.00  0.00    +0.000 A 
ATOM      9  C   UNL     1      46.167   1.620   8.367  0.00  0.00    +0.000 A 
ATOM     10  C   UNL     1      46.734   1.313   7.127  0.00  0.00    +0.000 A 
ATOM     11  C   UNL     1      46.938   2.317   6.190  0.00  0.00    +0.000 A 
ATOM     12  C   UNL     1      46.599   3.631   6.503  0.00  0.00    +0.000 A 
ATOM     13  C   UNL     1      46.044   3.937   7.751  0.00  0.00    +0.000 A 
ENDBRANCH   6   8
ENDBRANCH   1   2
BRANCH   1  14
ATOM     14  O   UNL     1      45.992   6.753  11.914  0.00  0.00    +0.000 OA
BRANCH  14  19
ATOM     15  C   UNL     1      44.117   9.782  11.183  0.00  0.00    +0.000 A 
ATOM     16  C   UNL     1      45.027  10.795  11.514  0.00  0.00    +0.000 A 
ATOM     17  C   UNL     1      46.288  10.463  12.000  0.00  0.00    +0.000 A 
ATOM     18  C   UNL     1      46.646   9.121  12.151  0.00  0.00    +0.000 A 
ATOM     19  C   UNL     1      45.753   8.100  11.810  0.00  0.00    +0.000 A 
ATOM     20  C   UNL     1      44.491   8.436  11.316  0.00  0.00    +0.000 A 
BRANCH  15  22
ATOM     21  N   UNL     1      41.740   9.336  11.001  0.00  0.00    +0.000 N 
ATOM     22  C   UNL     1      42.775  10.170  10.688  0.00  0.00    +0.000 C 
ATOM     23  O   UNL     1      42.589  11.211  10.062  0.00  0.00    +0.000 OA
ATOM     24  H   UNL     1      40.808   9.643  10.744  0.00  0.00    +0.000 HD
ATOM     25  H   UNL     1      41.821   8.608  11.698  0.00  0.00    +0.000 HD
ENDBRANCH  15  22
ENDBRANCH  14  19
ENDBRANCH   1  14
TORSDOF 5
ENDMDL
MODEL 6
REMARK VINA RESULT:    -6.973      2.388      4.559
REMARK INTER + INTRA:         -10.028
REMARK INTER:                  -9.045
REMARK INTRA:                  -0.984
REMARK UNBOUND:                -1.017
REMARK  Name = 
REMARK  5 active torsions:
REMARK  status: ('A' for Active; 'I' for Inactive)
REMARK    1  A    between atoms: C_2  and  C_4
REMARK    2  A    between atoms: C_8  and  O_9
REMARK    3  A    between atoms: O_9  and  C_10
REMARK    4  A    between atoms: C_10  and  C_11
REMARK    5  A    between atoms: C_15  and  C_16
REMARK                            x       y       z     vdW  Elec       q    Type
REMARK                         _______ _______ _______ _____ _____    ______ ____
ROOT
ATOM      1  C   UNL     1      48.548   7.674  13.487  0.00  0.00    +0.000 C 
ENDROOT
BRANCH   1   2
ATOM      2  C   UNL     1      47.183   7.540  12.859  0.00  0.00    +0.000 A 
ATOM      3  C   UNL     1      46.286   8.612  12.873  0.00  0.00    +0.000 A 
ATOM      4  C   UNL     1      45.074   8.517  12.197  0.00  0.00    +0.000 A 
ATOM      5  C   UNL     1      44.755   7.352  11.493  0.00  0.00    +0.000 A 
ATOM      6  C   UNL     1      45.640   6.260  11.437  0.00  0.00    +0.000 A 
ATOM      7  C   UNL     1      46.836   6.365  12.170  0.00  0.00    +0.000 A 
BRANCH   6   8
ATOM      8  C   UNL     1      45.384   5.099  10.550  0.00  0.00    +0.000 A 
ATOM      9  C   UNL     1      44.697   3.968  11.032  0.00  0.00    +0.000 A 
ATOM     10  C   UNL     1      44.354   2.904  10.194  0.00  0.00    +0.000 A 
ATOM     11  C   UNL     1      44.680   2.950   8.845  0.00  0.00    +0.000 A 
ATOM     12  C   UNL     1      45.372   4.048   8.340  0.00  0.00    +0.000 A 
ATOM     13  C   UNL     1      45.726   5.106   9.186  0.00  0.00    +0.000 A 
ENDBRANCH   6   8
ENDBRANCH   1   2
BRANCH   1  14
ATOM     14  O   UNL     1      48.947   6.458  14.115  0.00  0.00    +0.000 OA
BRANCH  14  19
ATOM     15  C   UNL     1      48.000   4.958  17.290  0.00  0.00    +0.000 A 
ATOM     16  C   UNL     1      48.175   6.015  18.194  0.00  0.00    +0.000 A 
ATOM     17  C   UNL     1      48.627   7.249  17.739  0.00  0.00    +0.000 A 
ATOM     18  C   UNL     1      48.899   7.435  16.381  0.00  0.00    +0.000 A 
ATOM     19  C   UNL     1      48.714   6.394  15.467  0.00  0.00    +0.000 A 
ATOM     20  C   UNL     1      48.254   5.158  15.925  0.00  0.00    +0.000 A 
BRANCH  15  22
ATOM     21  N   UNL     1      48.249   3.114  18.846  0.00  0.00    +0.000 N 
ATOM     22  C   UNL     1      47.537   3.650  17.811  0.00  0.00    +0.000 C 
ATOM     23  O   UNL     1      46.539   3.089  17.365  0.00  0.00    +0.000 OA
ATOM     24  H   UNL     1      47.883   2.266  19.265  0.00  0.00    +0.000 HD
ATOM     25  H   UNL     1      48.921   3.652  19.377  0.00  0.00    +0.000 HD
ENDBRANCH  15  22
ENDBRANCH  14  19
ENDBRANCH   1  14
TORSDOF 5
ENDMDL
MODEL 7
REMARK VINA RESULT:    -6.919      1.768      2.051
REMARK INTER + INTRA:          -9.957
REMARK INTER:                  -9.031
REMARK INTRA:                  -0.926
REMARK UNBOUND:                -1.017
REMARK  Name = 
REMARK  5 active torsions:
REMARK  status: ('A' for Active; 'I' for Inactive)
REMARK    1  A    between atoms: C_2  and  C_4
REMARK    2  A    between atoms: C_8  and  O_9
REMARK    3  A    between atoms: O_9  and  C_10
REMARK    4  A    between atoms: C_10  and  C_11
REMARK    5  A    between atoms: C_15  and  C_16
REMARK                            x       y       z     vdW  Elec       q    Type
REMARK                         _______ _______ _______ _____ _____    ______ ____
ROOT
ATOM      1  C   UNL     1      45.273   6.181  12.430  0.00  0.00    +0.000 C 
ENDROOT
BRANCH   1   2
ATOM      2  C   UNL     1      44.847   4.875  11.806  0.00  0.00    +0.000 A 
ATOM      3  C   UNL     1      43.715   4.201  12.271  0.00  0.00    +0.000 A 
ATOM      4  C   UNL     1      43.267   3.056  11.619  0.00  0.00    +0.000 A 
ATOM      5  C   UNL     1      43.943   2.585  10.489  0.00  0.00    +0.000 A 
ATOM      6  C   UNL     1      45.073   3.248   9.977  0.00  0.00    +0.000 A 
ATOM      7  C   UNL     1      45.532   4.373  10.686  0.00  0.00    +0.000 A 
BRANCH   6   8
ATOM      8  C   UNL     1      45.683   2.855   8.684  0.00  0.00    +0.000 A 
ATOM      9  C   UNL     1      45.956   3.821   7.697  0.00  0.00    +0.000 A 
ATOM     10  C   UNL     1      46.621   3.495   6.512  0.00  0.00    +0.000 A 
ATOM     11  C   UNL     1      47.041   2.190   6.289  0.00  0.00    +0.000 A 
ATOM     12  C   UNL     1      46.774   1.208   7.239  0.00  0.00    +0.000 A 
ATOM     13  C   UNL     1      46.096   1.536   8.419  0.00  0.00    +0.000 A 
ENDBRANCH   6   8
ENDBRANCH   1   2
BRANCH   1  14
ATOM     14  O   UNL     1      46.191   6.878  11.592  0.00  0.00    +0.000 OA
BRANCH  14  19
ATOM     15  C   UNL     1      48.660   7.229  14.238  0.00  0.00    +0.000 A 
ATOM     16  C   UNL     1      49.807   7.629  13.538  0.00  0.00    +0.000 A 
ATOM     17  C   UNL     1      49.759   7.775  12.155  0.00  0.00    +0.000 A 
ATOM     18  C   UNL     1      48.568   7.529  11.468  0.00  0.00    +0.000 A 
ATOM     19  C   UNL     1      47.413   7.144  12.156  0.00  0.00    +0.000 A 
ATOM     20  C   UNL     1      47.462   7.005  13.545  0.00  0.00    +0.000 A 
BRANCH  15  22
ATOM     21  N   UNL     1      48.783   5.782  16.180  0.00  0.00    +0.000 N 
ATOM     22  C   UNL     1      48.751   7.063  15.708  0.00  0.00    +0.000 C 
ATOM     23  O   UNL     1      48.835   8.025  16.467  0.00  0.00    +0.000 OA
ATOM     24  H   UNL     1      48.936   5.663  17.176  0.00  0.00    +0.000 HD
ATOM     25  H   UNL     1      48.947   4.986  15.578  0.00  0.00    +0.000 HD
ENDBRANCH  15  22
ENDBRANCH  14  19
ENDBRANCH   1  14
TORSDOF 5
ENDMDL
MODEL 8
REMARK VINA RESULT:    -6.614      4.186      9.095
REMARK INTER + INTRA:          -9.564
REMARK INTER:                  -8.789
REMARK INTRA:                  -0.775
REMARK UNBOUND:                -1.017
REMARK  Name = 
REMARK  5 active torsions:
REMARK  status: ('A' for Active; 'I' for Inactive)
REMARK    1  A    between atoms: C_2  and  C_4
REMARK    2  A    between atoms: C_8  and  O_9
REMARK    3  A    between atoms: O_9  and  C_10
REMARK    4  A    between atoms: C_10  and  C_11
REMARK    5  A    between atoms: C_15  and  C_16
REMARK                            x       y       z     vdW  Elec       q    Type
REMARK                         _______ _______ _______ _____ _____    ______ ____
ROOT
ATOM      1  C   UNL     1      47.199   3.876  15.240  0.00  0.00    +0.000 C 
ENDROOT
BRANCH   1   2
ATOM      2  C   UNL     1      47.728   3.944  16.651  0.00  0.00    +0.000 A 
ATOM      3  C   UNL     1      48.694   3.035  17.092  0.00  0.00    +0.000 A 
ATOM      4  C   UNL     1      49.256   3.173  18.357  0.00  0.00    +0.000 A 
ATOM      5  C   UNL     1      48.863   4.227  19.186  0.00  0.00    +0.000 A 
ATOM      6  C   UNL     1      47.910   5.176  18.770  0.00  0.00    +0.000 A 
ATOM      7  C   UNL     1      47.323   4.983  17.506  0.00  0.00    +0.000 A 
BRANCH   6   8
ATOM      8  C   UNL     1      47.623   6.389  19.572  0.00  0.00    +0.000 A 
ATOM      9  C   UNL     1      47.509   6.311  20.974  0.00  0.00    +0.000 A 
ATOM     10  C   UNL     1      47.339   7.452  21.762  0.00  0.00    +0.000 A 
ATOM     11  C   UNL     1      47.289   8.706  21.167  0.00  0.00    +0.000 A 
ATOM     12  C   UNL     1      47.385   8.816  19.783  0.00  0.00    +0.000 A 
ATOM     13  C   UNL     1      47.541   7.670  18.994  0.00  0.00    +0.000 A 
ENDBRANCH   6   8
ENDBRANCH   1   2
BRANCH   1  14
ATOM     14  O   UNL     1      47.596   5.018  14.486  0.00  0.00    +0.000 OA
BRANCH  14  19
ATOM     15  C   UNL     1      45.054   4.433  11.951  0.00  0.00    +0.000 A 
ATOM     16  C   UNL     1      45.230   5.519  11.082  0.00  0.00    +0.000 A 
ATOM     17  C   UNL     1      46.209   6.471  11.351  0.00  0.00    +0.000 A 
ATOM     18  C   UNL     1      47.018   6.339  12.483  0.00  0.00    +0.000 A 
ATOM     19  C   UNL     1      46.862   5.253  13.349  0.00  0.00    +0.000 A 
ATOM     20  C   UNL     1      45.884   4.296  13.073  0.00  0.00    +0.000 A 
BRANCH  15  22
ATOM     21  N   UNL     1      43.845   2.410  12.520  0.00  0.00    +0.000 N 
ATOM     22  C   UNL     1      43.989   3.450  11.647  0.00  0.00    +0.000 C 
ATOM     23  O   UNL     1      43.240   3.580  10.681  0.00  0.00    +0.000 OA
ATOM     24  H   UNL     1      43.060   1.786  12.367  0.00  0.00    +0.000 HD
ATOM     25  H   UNL     1      44.283   2.402  13.432  0.00  0.00    +0.000 HD
ENDBRANCH  15  22
ENDBRANCH  14  19
ENDBRANCH   1  14
TORSDOF 5
ENDMDL
MODEL 9
REMARK VINA RESULT:    -6.475      3.012      7.516
REMARK INTER + INTRA:          -9.384
REMARK INTER:                  -8.446
REMARK INTRA:                  -0.938
REMARK UNBOUND:                -1.017
REMARK  Name = 
REMARK  5 active torsions:
REMARK  status: ('A' for Active; 'I' for Inactive)
REMARK    1  A    between atoms: C_2  and  C_4
REMARK    2  A    between atoms: C_8  and  O_9
REMARK    3  A    between atoms: O_9  and  C_10
REMARK    4  A    between atoms: C_10  and  C_11
REMARK    5  A    between atoms: C_15  and  C_16
REMARK                            x       y       z     vdW  Elec       q    Type
REMARK                         _______ _______ _______ _____ _____    ______ ____
ROOT
ATOM      1  C   UNL     1      46.223   6.932  12.276  0.00  0.00    +0.000 C 
ENDROOT
BRANCH   1   2
ATOM      2  C   UNL     1      47.305   7.021  13.322  0.00  0.00    +0.000 A 
ATOM      3  C   UNL     1      48.094   8.170  13.433  0.00  0.00    +0.000 A 
ATOM      4  C   UNL     1      49.015   8.287  14.469  0.00  0.00    +0.000 A 
ATOM      5  C   UNL     1      49.145   7.261  15.410  0.00  0.00    +0.000 A 
ATOM      6  C   UNL     1      48.353   6.099  15.346  0.00  0.00    +0.000 A 
ATOM      7  C   UNL     1      47.467   5.986  14.259  0.00  0.00    +0.000 A 
BRANCH   6   8
ATOM      8  C   UNL     1      48.364   5.093  16.436  0.00  0.00    +0.000 A 
ATOM      9  C   UNL     1      47.302   4.180  16.577  0.00  0.00    +0.000 A 
ATOM     10  C   UNL     1      47.332   3.159  17.531  0.00  0.00    +0.000 A 
ATOM     11  C   UNL     1      48.435   3.019  18.362  0.00  0.00    +0.000 A 
ATOM     12  C   UNL     1      49.496   3.915  18.257  0.00  0.00    +0.000 A 
ATOM     13  C   UNL     1      49.456   4.945  17.310  0.00  0.00    +0.000 A 
ENDBRANCH   6   8
ENDBRANCH   1   2
BRANCH   1  14
ATOM     14  O   UNL     1      45.069   6.268  12.784  0.00  0.00    +0.000 OA
BRANCH  14  19
ATOM     15  C   UNL     1      44.725   4.066   9.910  0.00  0.00    +0.000 A 
ATOM     16  C   UNL     1      43.981   2.997  10.429  0.00  0.00    +0.000 A 
ATOM     17  C   UNL     1      43.594   3.005  11.765  0.00  0.00    +0.000 A 
ATOM     18  C   UNL     1      43.942   4.081  12.586  0.00  0.00    +0.000 A 
ATOM     19  C   UNL     1      44.671   5.160  12.077  0.00  0.00    +0.000 A 
ATOM     20  C   UNL     1      45.052   5.153  10.734  0.00  0.00    +0.000 A 
BRANCH  15  22
ATOM     21  N   UNL     1      44.397   3.224   7.660  0.00  0.00    +0.000 N 
ATOM     22  C   UNL     1      45.139   4.015   8.489  0.00  0.00    +0.000 C 
ATOM     23  O   UNL     1      46.078   4.683   8.061  0.00  0.00    +0.000 OA
ATOM     24  H   UNL     1      44.620   3.257   6.671  0.00  0.00    +0.000 HD
ATOM     25  H   UNL     1      43.496   2.852   7.928  0.00  0.00    +0.000 HD
ENDBRANCH  15  22
ENDBRANCH  14  19
ENDBRANCH   1  14
TORSDOF 5
ENDMDL
