MODEL 1
REMARK VINA RESULT:    -7.887      0.000      0.000
REMARK INTER + INTRA:         -10.031
REMARK INTER:                  -9.271
REMARK INTRA:                  -0.760
REMARK UNBOUND:                -0.760
REMARK  Name = 
REMARK  3 active torsions:
REMARK  status: ('A' for Active; 'I' for Inactive)
REMARK    1  A    between atoms: N_5  and  C_6
REMARK    2  A    between atoms: C_6  and  C_7
REMARK    3  A    between atoms: C_11  and  C_12
REMARK                            x       y       z     vdW  Elec       q    Type
REMARK                         _______ _______ _______ _____ _____    ______ ____
ROOT
ATOM      1  C   UNL     1      45.516   5.115  11.784  0.00  0.00    +0.000 A 
ATOM      2  C   UNL     1      46.075   6.241  11.159  0.00  0.00    +0.000 A 
ATOM      3  C   UNL     1      47.090   6.973  11.769  0.00  0.00    +0.000 A 
ATOM      4  C   UNL     1      47.574   6.587  13.021  0.00  0.00    +0.000 A 
ATOM      5  C   UNL     1      47.087   5.439  13.664  0.00  0.00    +0.000 A 
ATOM      6  C   UNL     1      46.088   4.699  13.002  0.00  0.00    +0.000 A 
ENDROOT
BRANCH   5   7
ATOM      7  C   UNL     1      47.526   5.065  15.023  0.00  0.00    +0.000 A 
ATOM      8  C   UNL     1      47.091   3.894  15.660  0.00  0.00    +0.000 A 
ATOM      9  C   UNL     1      47.484   3.611  16.969  0.00  0.00    +0.000 A 
ATOM     10  C   UNL     1      48.318   4.506  17.615  0.00  0.00    +0.000 A 
ATOM     11  N   UNL     1      48.770   5.642  17.049  0.00  0.00    +0.000 NA
ATOM     12  C   UNL     1      48.361   5.892  15.780  0.00  0.00    +0.000 A 
ENDBRANCH   5   7
BRANCH   1  13
ATOM     13  C   UNL     1      44.248   4.465  11.232  0.00  0.00    +0.000 C 
ATOM     14  C   UNL     1      43.008   4.394  12.126  0.00  0.00    +0.000 C 
ATOM     15  C   UNL     1      43.082   5.423  11.054  0.00  0.00    +0.000 C 
BRANCH  13  20
ATOM     16  C   UNL     1      46.636   2.428   7.017  0.00  0.00    +0.000 A 
ATOM     17  C   UNL     1      46.245   3.741   7.241  0.00  0.00    +0.000 A 
ATOM     18  C   UNL     1      45.545   4.063   8.410  0.00  0.00    +0.000 A 
ATOM     19  C   UNL     1      45.248   3.065   9.322  0.00  0.00    +0.000 A 
ATOM     20  N   UNL     1      44.471   3.243  10.462  0.00  0.00    +0.000 N 
ATOM     21  N   UNL     1      45.633   1.786   9.113  0.00  0.00    +0.000 NA
ATOM     22  C   UNL     1      46.313   1.495   7.982  0.00  0.00    +0.000 A 
ATOM     23  H   UNL     1      44.478   2.361  10.966  0.00  0.00    +0.000 HD
ENDBRANCH  13  20
ENDBRANCH   1  13
TORSDOF 3
ENDMDL
MODEL 2
REMARK VINA RESULT:    -7.867      2.104      3.619
REMARK INTER + INTRA:         -10.007
REMARK INTER:                  -8.981
REMARK INTRA:                  -1.026
REMARK UNBOUND:                -0.760
REMARK  Name = 
REMARK  3 active torsions:
REMARK  status: ('A' for Active; 'I' for Inactive)
REMARK    1  A    between atoms: N_5  and  C_6
REMARK    2  A    between atoms: C_6  and  C_7
REMARK    3  A    between atoms: C_11  and  C_12
REMARK                            x       y       z     vdW  Elec       q    Type
REMARK                         _______ _______ _______ _____ _____    ______ ____
ROOT
ATOM      1  C   UNL     1      45.117   5.347  12.295  0.00  0.00    +0.000 A 
ATOM      2  C   UNL     1      45.588   4.456  13.272  0.00  0.00    +0.000 A 
ATOM      3  C   UNL     1      46.825   4.647  13.883  0.00  0.00    +0.000 A 
ATOM      4  C   UNL     1      47.615   5.742  13.532  0.00  0.00    +0.000 A 
ATOM      5  C   UNL     1      47.167   6.691  12.601  0.00  0.00    +0.000 A 
ATOM      6  C   UNL     1      45.896   6.490  12.030  0.00  0.00    +0.000 A 
ENDROOT
BRANCH   5   7
ATOM      7  C   UNL     1      48.025   7.808  12.156  0.00  0.00    +0.000 A 
ATOM      8  C   UNL     1      49.367   7.628  11.792  0.00  0.00    +0.000 A 
ATOM      9  C   UNL     1      50.158   8.722  11.436  0.00  0.00    +0.000 A 
ATOM     10  C   UNL     1      49.584   9.980  11.443  0.00  0.00    +0.000 A 
ATOM     11  N   UNL     1      48.300  10.210  11.779  0.00  0.00    +0.000 NA
ATOM     12  C   UNL     1      47.562   9.126  12.128  0.00  0.00    +0.000 A 
ENDBRANCH   5   7
BRANCH   1  13
ATOM     13  C   UNL     1      43.885   5.006  11.456  0.00  0.00    +0.000 C 
ATOM     14  C   UNL     1      42.497   5.227  12.063  0.00  0.00    +0.000 C 
ATOM     15  C   UNL     1      43.033   6.208  11.081  0.00  0.00    +0.000 C 
BRANCH  13  20
ATOM     16  C   UNL     1      46.374   2.588   7.511  0.00  0.00    +0.000 A 
ATOM     17  C   UNL     1      46.188   3.949   7.713  0.00  0.00    +0.000 A 
ATOM     18  C   UNL     1      45.420   4.387   8.798  0.00  0.00    +0.000 A 
ATOM     19  C   UNL     1      44.852   3.454   9.649  0.00  0.00    +0.000 A 
ATOM     20  N   UNL     1      43.986   3.764  10.695  0.00  0.00    +0.000 N 
ATOM     21  N   UNL     1      45.036   2.129   9.462  0.00  0.00    +0.000 NA
ATOM     22  C   UNL     1      45.786   1.725   8.413  0.00  0.00    +0.000 A 
ATOM     23  H   UNL     1      43.784   2.894  11.179  0.00  0.00    +0.000 HD
ENDBRANCH  13  20
ENDBRANCH   1  13
TORSDOF 3
ENDMDL
MODEL 3
REMARK VINA RESULT:    -6.808      3.324      7.375
REMARK INTER + INTRA:          -8.762
REMARK INTER:                  -8.347
REMARK INTRA:                  -0.415
REMARK UNBOUND:                -0.760
REMARK  Name = 
REMARK  3 active torsions:
REMARK  status: ('A' for Active; 'I' for Inactive)
REMARK    1  A    between atoms: N_5  and  C_6
REMARK    2  A    between atoms: C_6  and  C_7
REMARK    3  A    between atoms: C_11  and  C_12
REMARK                            x       y       z     vdW  Elec       q    Type
REMARK                         _______ _______ _______ _____ _____    ______ ____
ROOT
ATOM      1  C   UNL     1      44.919   6.425  11.754  0.00  0.00    +0.000 A 
ATOM      2  C   UNL     1      43.567   6.195  12.052  0.00  0.00    +0.000 A 
ATOM      3  C   UNL     1      42.852   5.180  11.419  0.00  0.00    +0.000 A 
ATOM      4  C   UNL     1      43.482   4.367  10.475  0.00  0.00    +0.000 A 
ATOM      5  C   UNL     1      44.846   4.521  10.181  0.00  0.00    +0.000 A 
ATOM      6  C   UNL     1      45.548   5.530  10.867  0.00  0.00    +0.000 A 
ENDROOT
BRANCH   5   7
ATOM      7  C   UNL     1      45.506   3.727   9.126  0.00  0.00    +0.000 A 
ATOM      8  C   UNL     1      46.114   4.316   8.008  0.00  0.00    +0.000 A 
ATOM      9  C   UNL     1      46.673   3.524   7.004  0.00  0.00    +0.000 A 
ATOM     10  C   UNL     1      46.621   2.148   7.145  0.00  0.00    +0.000 A 
ATOM     11  N   UNL     1      46.055   1.530   8.199  0.00  0.00    +0.000 NA
ATOM     12  C   UNL     1      45.513   2.329   9.152  0.00  0.00    +0.000 A 
ENDBRANCH   5   7
BRANCH   1  13
ATOM     13  C   UNL     1      45.627   7.680  12.261  0.00  0.00    +0.000 C 
ATOM     14  C   UNL     1      46.680   7.538  13.362  0.00  0.00    +0.000 C 
ATOM     15  C   UNL     1      47.115   7.726  11.952  0.00  0.00    +0.000 C 
BRANCH  13  20
ATOM     16  C   UNL     1      44.791  12.670  10.843  0.00  0.00    +0.000 A 
ATOM     17  C   UNL     1      45.981  11.955  10.835  0.00  0.00    +0.000 A 
ATOM     18  C   UNL     1      46.003  10.647  11.332  0.00  0.00    +0.000 A 
ATOM     19  C   UNL     1      44.838  10.089  11.830  0.00  0.00    +0.000 A 
ATOM     20  N   UNL     1      44.760   8.842  12.444  0.00  0.00    +0.000 N 
ATOM     21  N   UNL     1      43.675  10.777  11.833  0.00  0.00    +0.000 NA
ATOM     22  C   UNL     1      43.672  12.037  11.344  0.00  0.00    +0.000 A 
ATOM     23  H   UNL     1      43.780   8.673  12.648  0.00  0.00    +0.000 HD
ENDBRANCH  13  20
ENDBRANCH   1  13
TORSDOF 3
ENDMDL
MODEL 4
REMARK VINA RESULT:    -6.691      1.928      7.404
REMARK INTER + INTRA:          -8.624
REMARK INTER:                  -7.731
REMARK INTRA:                  -0.893
REMARK UNBOUND:                -0.760
REMARK  Name = 
REMARK  3 active torsions:
REMARK  status: ('A' for Active; 'I' for Inactive)
REMARK    1  A    between atoms: N_5  and  C_6
REMARK    2  A    between atoms: C_6  and  C_7
REMARK    3  A    between atoms: C_11  and  C_12
REMARK                            x       y       z     vdW  Elec       q    Type
REMARK                         _______ _______ _______ _____ _____    ______ ____
ROOT
ATOM      1  C   UNL     1      47.383   7.619  12.318  0.00  0.00    +0.000 A 
ATOM      2  C   UNL     1      46.454   8.655  12.496  0.00  0.00    +0.000 A 
ATOM      3  C   UNL     1      45.147   8.539  12.029  0.00  0.00    +0.000 A 
ATOM      4  C   UNL     1      44.740   7.373  11.377  0.00  0.00    +0.000 A 
ATOM      5  C   UNL     1      45.615   6.287  11.221  0.00  0.00    +0.000 A 
ATOM      6  C   UNL     1      46.917   6.423  11.739  0.00  0.00    +0.000 A 
ENDROOT
BRANCH   5   7
ATOM      7  C   UNL     1      45.227   5.082  10.460  0.00  0.00    +0.000 A 
ATOM      8  C   UNL     1      45.595   4.885   9.122  0.00  0.00    +0.000 A 
ATOM      9  C   UNL     1      45.155   3.760   8.423  0.00  0.00    +0.000 A 
ATOM     10  C   UNL     1      44.359   2.843   9.086  0.00  0.00    +0.000 A 
ATOM     11  N   UNL     1      43.981   2.978  10.372  0.00  0.00    +0.000 NA
ATOM     12  C   UNL     1      44.418   4.088  11.018  0.00  0.00    +0.000 A 
ENDBRANCH   5   7
BRANCH   1  13
ATOM     13  C   UNL     1      48.867   7.842  12.607  0.00  0.00    +0.000 C 
ATOM     14  C   UNL     1      49.833   7.993  11.429  0.00  0.00    +0.000 C 
ATOM     15  C   UNL     1      49.390   9.202  12.174  0.00  0.00    +0.000 C 
BRANCH  13  20
ATOM     16  C   UNL     1      48.886   7.096  17.808  0.00  0.00    +0.000 A 
ATOM     17  C   UNL     1      48.608   8.258  17.101  0.00  0.00    +0.000 A 
ATOM     18  C   UNL     1      48.737   8.264  15.707  0.00  0.00    +0.000 A 
ATOM     19  C   UNL     1      49.146   7.113  15.056  0.00  0.00    +0.000 A 
ATOM     20  N   UNL     1      49.410   7.029  13.692  0.00  0.00    +0.000 N 
ATOM     21  N   UNL     1      49.409   5.977  15.739  0.00  0.00    +0.000 NA
ATOM     22  C   UNL     1      49.274   5.988  17.083  0.00  0.00    +0.000 A 
ATOM     23  H   UNL     1      49.626   6.057  13.492  0.00  0.00    +0.000 HD
ENDBRANCH  13  20
ENDBRANCH   1  13
TORSDOF 3
ENDMDL
MODEL 5
REMARK VINA RESULT:    -6.001      2.165      7.588
REMARK INTER + INTRA:          -7.813
REMARK INTER:                  -7.247
REMARK INTRA:                  -0.567
REMARK UNBOUND:                -0.760
REMARK  Name = 
REMARK  3 active torsions:
REMARK  status: ('A' for Active; 'I' for Inactive)
REMARK    1  A    between atoms: N_5  and  C_6
REMARK    2  A    between atoms: C_6  and  C_7
REMARK    3  A    between atoms: C_11  and  C_12
REMARK                            x       y       z     vdW  Elec       q    Type
REMARK                         _______ _______ _______ _____ _____    ______ ____
ROOT
ATOM      1  C   UNL     1      47.920   5.384  15.550  0.00  0.00    +0.000 A 
ATOM      2  C   UNL     1      48.787   6.411  15.145  0.00  0.00    +0.000 A 
ATOM      3  C   UNL     1      48.730   6.935  13.856  0.00  0.00    +0.000 A 
ATOM      4  C   UNL     1      47.793   6.444  12.945  0.00  0.00    +0.000 A 
ATOM      5  C   UNL     1      46.868   5.456  13.316  0.00  0.00    +0.000 A 
ATOM      6  C   UNL     1      46.929   4.976  14.638  0.00  0.00    +0.000 A 
ENDROOT
BRANCH   5   7
ATOM      7  C   UNL     1      45.929   4.867  12.341  0.00  0.00    +0.000 A 
ATOM      8  C   UNL     1      45.564   5.522  11.156  0.00  0.00    +0.000 A 
ATOM      9  C   UNL     1      44.625   4.955  10.292  0.00  0.00    +0.000 A 
ATOM     10  C   UNL     1      44.074   3.732  10.630  0.00  0.00    +0.000 A 
ATOM     11  N   UNL     1      44.392   3.057  11.752  0.00  0.00    +0.000 NA
ATOM     12  C   UNL     1      45.300   3.641  12.574  0.00  0.00    +0.000 A 
ENDBRANCH   5   7
BRANCH   1  13
ATOM     13  C   UNL     1      48.146   4.647  16.870  0.00  0.00    +0.000 C 
ATOM     14  C   UNL     1      47.049   4.695  17.937  0.00  0.00    +0.000 C 
ATOM     15  C   UNL     1      47.205   3.476  17.100  0.00  0.00    +0.000 C 
BRANCH  13  20
ATOM     16  C   UNL     1      52.704   2.170  17.701  0.00  0.00    +0.000 A 
ATOM     17  C   UNL     1      51.437   1.624  17.543  0.00  0.00    +0.000 A 
ATOM     18  C   UNL     1      50.333   2.472  17.409  0.00  0.00    +0.000 A 
ATOM     19  C   UNL     1      50.519   3.843  17.443  0.00  0.00    +0.000 A 
ATOM     20  N   UNL     1      49.490   4.780  17.425  0.00  0.00    +0.000 N 
ATOM     21  N   UNL     1      51.751   4.380  17.588  0.00  0.00    +0.000 NA
ATOM     22  C   UNL     1      52.806   3.546  17.710  0.00  0.00    +0.000 A 
ATOM     23  H   UNL     1      49.926   5.697  17.395  0.00  0.00    +0.000 HD
ENDBRANCH  13  20
ENDBRANCH   1  13
TORSDOF 3
ENDMDL
MODEL 6
REMARK VINA RESULT:    -5.764      2.439      7.177
REMARK INTER + INTRA:          -7.535
REMARK INTER:                  -6.852
REMARK INTRA:                  -0.683
REMARK UNBOUND:                -0.760
REMARK  Name = 
REMARK  3 active torsions:
REMARK  status: ('A' for Active; 'I' for Inactive)
REMARK    1  A    between atoms: N_5  and  C_6
REMARK    2  A    between atoms: C_6  and  C_7
REMARK    3  A    between atoms: C_11  and  C_12
REMARK                            x       y       z     vdW  Elec       q    Type
REMARK                         _______ _______ _______ _____ _____    ______ ____
ROOT
ATOM      1  C   UNL     1      48.970   7.606  14.676  0.00  0.00    +0.000 A 
ATOM      2  C   UNL     1      49.876   8.096  13.723  0.00  0.00    +0.000 A 
ATOM      3  C   UNL     1      49.707   7.831  12.366  0.00  0.00    +0.000 A 
ATOM      4  C   UNL     1      48.618   7.073  11.933  0.00  0.00    +0.000 A 
ATOM      5  C   UNL     1      47.654   6.605  12.840  0.00  0.00    +0.000 A 
ATOM      6  C   UNL     1      47.834   6.924  14.199  0.00  0.00    +0.000 A 
ENDROOT
BRANCH   5   7
ATOM      7  C   UNL     1      46.544   5.732  12.410  0.00  0.00    +0.000 A 
ATOM      8  C   UNL     1      45.856   5.925  11.204  0.00  0.00    +0.000 A 
ATOM      9  C   UNL     1      44.773   5.113  10.866  0.00  0.00    +0.000 A 
ATOM     10  C   UNL     1      44.403   4.110  11.744  0.00  0.00    +0.000 A 
ATOM     11  N   UNL     1      45.031   3.876  12.913  0.00  0.00    +0.000 NA
ATOM     12  C   UNL     1      46.073   4.690  13.214  0.00  0.00    +0.000 A 
ENDBRANCH   5   7
BRANCH   1  13
ATOM     13  C   UNL     1      49.287   7.688  16.168  0.00  0.00    +0.000 C 
ATOM     14  C   UNL     1      49.925   8.966  16.717  0.00  0.00    +0.000 C 
ATOM     15  C   UNL     1      48.472   8.724  16.925  0.00  0.00    +0.000 C 
BRANCH  13  20
ATOM     16  C   UNL     1      48.249   2.760  17.669  0.00  0.00    +0.000 A 
ATOM     17  C   UNL     1      47.379   3.838  17.571  0.00  0.00    +0.000 A 
ATOM     18  C   UNL     1      47.878   5.098  17.224  0.00  0.00    +0.000 A 
ATOM     19  C   UNL     1      49.233   5.252  16.989  0.00  0.00    +0.000 A 
ATOM     20  N   UNL     1      49.858   6.471  16.741  0.00  0.00    +0.000 N 
ATOM     21  N   UNL     1      50.084   4.205  17.075  0.00  0.00    +0.000 NA
ATOM     22  C   UNL     1      49.583   2.995  17.406  0.00  0.00    +0.000 A 
ATOM     23  H   UNL     1      50.834   6.268  16.546  0.00  0.00    +0.000 HD
ENDBRANCH  13  20
ENDBRANCH   1  13
TORSDOF 3
ENDMDL
MODEL 7
REMARK VINA RESULT:    -5.746      2.673      3.364
REMARK INTER + INTRA:          -7.514
REMARK INTER:                  -7.632
REMARK INTRA:                   0.118
REMARK UNBOUND:                -0.760
REMARK  Name = 
REMARK  3 active torsions:
REMARK  status: ('A' for Active; 'I' for Inactive)
REMARK    1  A    between atoms: N_5  and  C_6
REMARK    2  A    between atoms: C_6  and  C_7
REMARK    3  A    between atoms: C_11  and  C_12
REMARK                            x       y       z     vdW  Elec       q    Type
REMARK                         _______ _______ _______ _____ _____    ______ ____
ROOT
ATOM      1  C   UNL     1      44.473   4.860  11.251  0.00  0.00    +0.000 A 
ATOM      2  C   UNL     1      43.315   5.591  10.945  0.00  0.00    +0.000 A 
ATOM      3  C   UNL     1      43.304   6.982  11.004  0.00  0.00    +0.000 A 
ATOM      4  C   UNL     1      44.462   7.674  11.365  0.00  0.00    +0.000 A 
ATOM      5  C   UNL     1      45.661   6.994  11.629  0.00  0.00    +0.000 A 
ATOM      6  C   UNL     1      45.647   5.590  11.523  0.00  0.00    +0.000 A 
ENDROOT
BRANCH   5   7
ATOM      7  C   UNL     1      46.869   7.703  12.094  0.00  0.00    +0.000 A 
ATOM      8  C   UNL     1      48.144   7.442  11.572  0.00  0.00    +0.000 A 
ATOM      9  C   UNL     1      49.268   8.093  12.084  0.00  0.00    +0.000 A 
ATOM     10  C   UNL     1      49.090   9.006  13.108  0.00  0.00    +0.000 A 
ATOM     11  N   UNL     1      47.889   9.300  13.642  0.00  0.00    +0.000 NA
ATOM     12  C   UNL     1      46.819   8.642  13.128  0.00  0.00    +0.000 A 
ENDBRANCH   5   7
BRANCH   1  13
ATOM     13  C   UNL     1      44.417   3.343  11.425  0.00  0.00    +0.000 C 
ATOM     14  C   UNL     1      45.100   2.715  12.642  0.00  0.00    +0.000 C 
ATOM     15  C   UNL     1      43.622   2.882  12.636  0.00  0.00    +0.000 C 
BRANCH  13  20
ATOM     16  C   UNL     1      46.824   3.284   6.755  0.00  0.00    +0.000 A 
ATOM     17  C   UNL     1      46.469   4.378   7.533  0.00  0.00    +0.000 A 
ATOM     18  C   UNL     1      45.757   4.177   8.720  0.00  0.00    +0.000 A 
ATOM     19  C   UNL     1      45.411   2.891   9.098  0.00  0.00    +0.000 A 
ATOM     20  N   UNL     1      44.617   2.578  10.197  0.00  0.00    +0.000 N 
ATOM     21  N   UNL     1      45.761   1.822   8.349  0.00  0.00    +0.000 NA
ATOM     22  C   UNL     1      46.454   2.034   7.208  0.00  0.00    +0.000 A 
ATOM     23  H   UNL     1      44.587   1.564  10.261  0.00  0.00    +0.000 HD
ENDBRANCH  13  20
ENDBRANCH   1  13
TORSDOF 3
ENDMDL
MODEL 8
REMARK VINA RESULT:    -5.720      4.088      6.460
REMARK INTER + INTRA:          -7.483
REMARK INTER:                  -7.443
REMARK INTRA:                  -0.040
REMARK UNBOUND:                -0.760
REMARK  Name = 
REMARK  3 active torsions:
REMARK  status: ('A' for Active; 'I' for Inactive)
REMARK    1  A    between atoms: N_5  and  C_6
REMARK    2  A    between atoms: C_6  and  C_7
REMARK    3  A    between atoms: C_11  and  C_12
REMARK                            x       y       z     vdW  Elec       q    Type
REMARK                         _______ _______ _______ _____ _____    ______ ____
ROOT
ATOM      1  C   UNL     1      45.489   8.063  11.964  0.00  0.00    +0.000 A 
ATOM      2  C   UNL     1      46.645   8.803  12.253  0.00  0.00    +0.000 A 
ATOM      3  C   UNL     1      46.683  10.183  12.064  0.00  0.00    +0.000 A 
ATOM      4  C   UNL     1      45.554  10.853  11.588  0.00  0.00    +0.000 A 
ATOM      5  C   UNL     1      44.357  10.167  11.334  0.00  0.00    +0.000 A 
ATOM      6  C   UNL     1      44.342   8.779  11.572  0.00  0.00    +0.000 A 
ENDROOT
BRANCH   5   7
ATOM      7  C   UNL     1      43.182  10.845  10.750  0.00  0.00    +0.000 A 
ATOM      8  C   UNL     1      42.026  11.122  11.493  0.00  0.00    +0.000 A 
ATOM      9  C   UNL     1      40.916  11.710  10.884  0.00  0.00    +0.000 A 
ATOM     10  C   UNL     1      40.990  12.020   9.538  0.00  0.00    +0.000 A 
ATOM     11  N   UNL     1      42.077  11.781   8.779  0.00  0.00    +0.000 NA
ATOM     12  C   UNL     1      43.134  11.200   9.399  0.00  0.00    +0.000 A 
ENDBRANCH   5   7
BRANCH   1  13
ATOM     13  C   UNL     1      45.527   6.535  11.936  0.00  0.00    +0.000 C 
ATOM     14  C   UNL     1      46.029   5.789  13.174  0.00  0.00    +0.000 C 
ATOM     15  C   UNL     1      44.568   5.869  12.909  0.00  0.00    +0.000 C 
BRANCH  13  20
ATOM     16  C   UNL     1      44.719   2.763   8.369  0.00  0.00    +0.000 A 
ATOM     17  C   UNL     1      44.353   2.782   9.708  0.00  0.00    +0.000 A 
ATOM     18  C   UNL     1      44.737   3.860  10.513  0.00  0.00    +0.000 A 
ATOM     19  C   UNL     1      45.481   4.889   9.962  0.00  0.00    +0.000 A 
ATOM     20  N   UNL     1      46.008   5.956  10.684  0.00  0.00    +0.000 N 
ATOM     21  N   UNL     1      45.834   4.880   8.658  0.00  0.00    +0.000 NA
ATOM     22  C   UNL     1      45.449   3.833   7.895  0.00  0.00    +0.000 A 
ATOM     23  H   UNL     1      46.447   6.579  10.013  0.00  0.00    +0.000 HD
ENDBRANCH  13  20
ENDBRANCH   1  13
TORSDOF 3
ENDMDL
MODEL 9
REMARK VINA RESULT:    -5.591      4.304      7.047
REMARK INTER + INTRA:          -7.332
REMARK INTER:                  -6.908
REMARK INTRA:                  -0.424
REMARK UNBOUND:                -0.760
REMARK  Name = 
REMARK  3 active torsions:
REMARK  status: ('A' for Active; 'I' for Inactive)
REMARK    1  A    between atoms: N_5  and  C_6
REMARK    2  A    between atoms: C_6  and  C_7
REMARK    3  A    between atoms: C_11  and  C_12
REMARK                            x       y       z     vdW  Elec       q    Type
REMARK                         _______ _______ _______ _____ _____    ______ ____
ROOT
ATOM      1  C   UNL     1      46.638   9.613  12.241  0.00  0.00    +0.000 A 
ATOM      2  C   UNL     1      47.738   9.332  13.066  0.00  0.00    +0.000 A 
ATOM      3  C   UNL     1      47.908   8.072  13.635  0.00  0.00    +0.000 A 
ATOM      4  C   UNL     1      46.979   7.061  13.381  0.00  0.00    +0.000 A 
ATOM      5  C   UNL     1      45.891   7.275  12.520  0.00  0.00    +0.000 A 
ATOM      6  C   UNL     1      45.771   8.548  11.931  0.00  0.00    +0.000 A 
ENDROOT
BRANCH   5   7
ATOM      7  C   UNL     1      44.855   6.244  12.308  0.00  0.00    +0.000 A 
ATOM      8  C   UNL     1      44.835   5.038  13.022  0.00  0.00    +0.000 A 
ATOM      9  C   UNL     1      43.872   4.066  12.745  0.00  0.00    +0.000 A 
ATOM     10  C   UNL     1      42.937   4.327  11.760  0.00  0.00    +0.000 A 
ATOM     11  N   UNL     1      42.906   5.470  11.048  0.00  0.00    +0.000 NA
ATOM     12  C   UNL     1      43.862   6.389  11.335  0.00  0.00    +0.000 A 
ENDBRANCH   5   7
BRANCH   1  13
ATOM     13  C   UNL     1      46.324  11.049  11.822  0.00  0.00    +0.000 C 
ATOM     14  C   UNL     1      47.356  12.142  12.107  0.00  0.00    +0.000 C 
ATOM     15  C   UNL     1      47.229  11.594  10.730  0.00  0.00    +0.000 C 
BRANCH  13  20
ATOM     16  C   UNL     1      41.387  10.933  10.028  0.00  0.00    +0.000 A 
ATOM     17  C   UNL     1      42.571  10.809   9.314  0.00  0.00    +0.000 A 
ATOM     18  C   UNL     1      43.795  10.949   9.978  0.00  0.00    +0.000 A 
ATOM     19  C   UNL     1      43.804  11.215  11.337  0.00  0.00    +0.000 A 
ATOM     20  N   UNL     1      44.951  11.477  12.082  0.00  0.00    +0.000 N 
ATOM     21  N   UNL     1      42.655  11.328  12.038  0.00  0.00    +0.000 NA
ATOM     22  C   UNL     1      41.483  11.184  11.381  0.00  0.00    +0.000 A 
ATOM     23  H   UNL     1      44.659  11.571  13.050  0.00  0.00    +0.000 HD
ENDBRANCH  13  20
ENDBRANCH   1  13
TORSDOF 3
ENDMDL
