MODEL 1
REMARK VINA RESULT:    -8.007      0.000      0.000
REMARK INTER + INTRA:         -11.619
REMARK INTER:                 -10.816
REMARK INTRA:                  -0.803
REMARK UNBOUND:                -0.803
REMARK  Name = 
REMARK  8 active torsions:
REMARK  status: ('A' for Active; 'I' for Inactive)
REMARK    1  A    between atoms: C_1  and  C_2
REMARK    2  A    between atoms: C_6  and  C_7
REMARK    3  A    between atoms: C_7  and  N_8
REMARK    4  A    between atoms: N_8  and  C_9
REMARK    5  A    between atoms: C_12  and  C_13
REMARK    6  A    between atoms: C_13  and  N_14
REMARK    7  A    between atoms: C_15  and  C_17
REMARK    8  A    between atoms: C_29  and  C_30
REMARK                            x       y       z     vdW  Elec       q    Type
REMARK                         _______ _______ _______ _____ _____    ______ ____
ROOT
ATOM      1  C   UNL     1      45.387   4.781  11.362  0.00  0.00    +0.000 A 
ATOM      2  C   UNL     1      45.920   6.009  10.948  0.00  0.00    +0.000 A 
ATOM      3  C   UNL     1      46.890   6.678  11.714  0.00  0.00    +0.000 A 
ATOM      4  C   UNL     1      47.329   6.143  12.930  0.00  0.00    +0.000 A 
ATOM      5  C   UNL     1      46.722   4.975  13.397  0.00  0.00    +0.000 A 
ATOM      6  C   UNL     1      45.760   4.317  12.629  0.00  0.00    +0.000 A 
ENDROOT
BRANCH   1   7
ATOM      7  N   UNL     1      44.416   4.138  10.574  0.00  0.00    +0.000 N 
ATOM      8  H   UNL     1      43.491   4.189  10.986  0.00  0.00    +0.000 HD
BRANCH   7   9
ATOM      9  C   UNL     1      44.389   4.484   9.151  0.00  0.00    +0.000 C 
BRANCH   9  15
ATOM     10  C   UNL     1      46.651   0.124   7.685  0.00  0.00    +0.000 C 
ATOM     11  C   UNL     1      46.533   1.626   7.692  0.00  0.00    +0.000 A 
ATOM     12  C   UNL     1      47.480   2.379   6.981  0.00  0.00    +0.000 A 
ATOM     13  C   UNL     1      47.405   3.768   6.952  0.00  0.00    +0.000 A 
ATOM     14  C   UNL     1      46.378   4.420   7.628  0.00  0.00    +0.000 A 
ATOM     15  C   UNL     1      45.415   3.698   8.359  0.00  0.00    +0.000 A 
ATOM     16  C   UNL     1      45.500   2.285   8.406  0.00  0.00    +0.000 A 
ATOM     17  C   UNL     1      44.528   1.456   9.212  0.00  0.00    +0.000 C 
ENDBRANCH   9  15
ENDBRANCH   7   9
ENDBRANCH   1   7
BRANCH   4  18
ATOM     18  C   UNL     1      48.411   6.794  13.745  0.00  0.00    +0.000 C 
BRANCH  18  19
ATOM     19  N   UNL     1      48.184   6.661  15.160  0.00  0.00    +0.000 N 
ATOM     20  C   UNL     1      48.901   7.424  16.047  0.00  0.00    +0.000 C 
ATOM     21  O   UNL     1      49.711   8.266  15.669  0.00  0.00    +0.000 OA
ATOM     22  H   UNL     1      47.707   5.824  15.484  0.00  0.00    +0.000 HD
BRANCH  20  23
ATOM     23  C   UNL     1      48.615   7.233  17.473  0.00  0.00    +0.000 A 
ATOM     24  C   UNL     1      48.184   8.312  18.233  0.00  0.00    +0.000 A 
ATOM     25  S   UNL     1      47.863   7.921  19.861  0.00  0.00    +0.000 S 
ATOM     26  C   UNL     1      48.337   6.304  19.620  0.00  0.00    +0.000 A 
ATOM     27  N   UNL     1      48.331   5.415  20.649  0.00  0.00    +0.000 NA
ATOM     28  C   UNL     1      48.739   4.232  20.332  0.00  0.00    +0.000 A 
ATOM     29  N   UNL     1      49.145   3.857  19.078  0.00  0.00    +0.000 N 
ATOM     30  C   UNL     1      49.141   4.712  18.001  0.00  0.00    +0.000 A 
ATOM     31  O   UNL     1      49.472   4.334  16.883  0.00  0.00    +0.000 OA
ATOM     32  C   UNL     1      48.707   6.061  18.306  0.00  0.00    +0.000 A 
ATOM     33  H   UNL     1      49.440   2.908  18.895  0.00  0.00    +0.000 HD
ENDBRANCH  20  23
ENDBRANCH  18  19
ENDBRANCH   4  18
TORSDOF 6
ENDMDL
MODEL 2
REMARK VINA RESULT:    -7.657      1.322      2.586
REMARK INTER + INTRA:         -11.146
REMARK INTER:                  -9.841
REMARK INTRA:                  -1.306
REMARK UNBOUND:                -0.803
REMARK  Name = 
REMARK  8 active torsions:
REMARK  status: ('A' for Active; 'I' for Inactive)
REMARK    1  A    between atoms: C_1  and  C_2
REMARK    2  A    between atoms: C_6  and  C_7
REMARK    3  A    between atoms: C_7  and  N_8
REMARK    4  A    between atoms: N_8  and  C_9
REMARK    5  A    between atoms: C_12  and  C_13
REMARK    6  A    between atoms: C_13  and  N_14
REMARK    7  A    between atoms: C_15  and  C_17
REMARK    8  A    between atoms: C_29  and  C_30
REMARK                            x       y       z     vdW  Elec       q    Type
REMARK                         _______ _______ _______ _____ _____    ______ ____
ROOT
ATOM      1  C   UNL     1      45.081   4.853  11.373  0.00  0.00    +0.000 A 
ATOM      2  C   UNL     1      45.730   4.280  12.475  0.00  0.00    +0.000 A 
ATOM      3  C   UNL     1      46.657   5.010  13.237  0.00  0.00    +0.000 A 
ATOM      4  C   UNL     1      46.976   6.329  12.895  0.00  0.00    +0.000 A 
ATOM      5  C   UNL     1      46.414   6.867  11.735  0.00  0.00    +0.000 A 
ATOM      6  C   UNL     1      45.493   6.134  10.985  0.00  0.00    +0.000 A 
ENDROOT
BRANCH   1   7
ATOM      7  N   UNL     1      44.160   4.095  10.629  0.00  0.00    +0.000 N 
ATOM      8  H   UNL     1      43.202   4.264  10.915  0.00  0.00    +0.000 HD
BRANCH   7   9
ATOM      9  C   UNL     1      44.300   4.135   9.172  0.00  0.00    +0.000 C 
BRANCH   9  15
ATOM     10  C   UNL     1      48.265   2.348   6.459  0.00  0.00    +0.000 C 
ATOM     11  C   UNL     1      47.049   2.152   7.327  0.00  0.00    +0.000 A 
ATOM     12  C   UNL     1      46.643   0.844   7.632  0.00  0.00    +0.000 A 
ATOM     13  C   UNL     1      45.532   0.616   8.437  0.00  0.00    +0.000 A 
ATOM     14  C   UNL     1      44.817   1.693   8.951  0.00  0.00    +0.000 A 
ATOM     15  C   UNL     1      45.188   3.019   8.659  0.00  0.00    +0.000 A 
ATOM     16  C   UNL     1      46.309   3.254   7.824  0.00  0.00    +0.000 A 
ATOM     17  C   UNL     1      46.729   4.651   7.433  0.00  0.00    +0.000 C 
ENDBRANCH   9  15
ENDBRANCH   7   9
ENDBRANCH   1   7
BRANCH   4  18
ATOM     18  C   UNL     1      47.913   7.164  13.722  0.00  0.00    +0.000 C 
BRANCH  18  19
ATOM     19  N   UNL     1      47.856   6.825  15.120  0.00  0.00    +0.000 N 
ATOM     20  C   UNL     1      49.009   6.529  15.804  0.00  0.00    +0.000 C 
ATOM     21  O   UNL     1      50.113   6.590  15.268  0.00  0.00    +0.000 OA
ATOM     22  H   UNL     1      46.958   6.545  15.502  0.00  0.00    +0.000 HD
BRANCH  20  23
ATOM     23  C   UNL     1      48.873   6.193  17.225  0.00  0.00    +0.000 A 
ATOM     24  C   UNL     1      49.221   4.921  17.662  0.00  0.00    +0.000 A 
ATOM     25  S   UNL     1      49.037   4.698  19.341  0.00  0.00    +0.000 S 
ATOM     26  C   UNL     1      48.437   6.279  19.538  0.00  0.00    +0.000 A 
ATOM     27  N   UNL     1      48.049   6.730  20.761  0.00  0.00    +0.000 NA
ATOM     28  C   UNL     1      47.589   7.936  20.761  0.00  0.00    +0.000 A 
ATOM     29  N   UNL     1      47.490   8.734  19.651  0.00  0.00    +0.000 N 
ATOM     30  C   UNL     1      47.896   8.331  18.400  0.00  0.00    +0.000 A 
ATOM     31  O   UNL     1      47.832   9.084  17.434  0.00  0.00    +0.000 OA
ATOM     32  C   UNL     1      48.406   6.976  18.340  0.00  0.00    +0.000 A 
ATOM     33  H   UNL     1      47.133   9.677  19.724  0.00  0.00    +0.000 HD
ENDBRANCH  20  23
ENDBRANCH  18  19
ENDBRANCH   4  18
TORSDOF 6
ENDMDL
MODEL 3
REMARK VINA RESULT:    -7.556      3.237      8.795
REMARK INTER + INTRA:         -11.009
REMARK INTER:                  -9.519
REMARK INTRA:                  -1.490
REMARK UNBOUND:                -0.803
REMARK  Name = 
REMARK  8 active torsions:
REMARK  status: ('A' for Active; 'I' for Inactive)
REMARK    1  A    between atoms: C_1  and  C_2
REMARK    2  A    between atoms: C_6  and  C_7
REMARK    3  A    between atoms: C_7  and  N_8
REMARK    4  A    between atoms: N_8  and  C_9
REMARK    5  A    between atoms: C_12  and  C_13
REMARK    6  A    between atoms: C_13  and  N_14
REMARK    7  A    between atoms: C_15  and  C_17
REMARK    8  A    between atoms: C_29  and  C_30
REMARK                            x       y       z     vdW  Elec       q    Type
REMARK                         _______ _______ _______ _____ _____    ______ ____
ROOT
ATOM      1  C   UNL     1      49.475   7.777  16.135  0.00  0.00    +0.000 A 
ATOM      2  C   UNL     1      48.323   8.539  15.899  0.00  0.00    +0.000 A 
ATOM      3  C   UNL     1      47.737   8.601  14.623  0.00  0.00    +0.000 A 
ATOM      4  C   UNL     1      48.311   7.919  13.544  0.00  0.00    +0.000 A 
ATOM      5  C   UNL     1      49.518   7.247  13.752  0.00  0.00    +0.000 A 
ATOM      6  C   UNL     1      50.092   7.191  15.023  0.00  0.00    +0.000 A 
ENDROOT
BRANCH   1   7
ATOM      7  N   UNL     1      50.037   7.738  17.423  0.00  0.00    +0.000 N 
ATOM      8  H   UNL     1      50.308   8.658  17.753  0.00  0.00    +0.000 HD
BRANCH   7   9
ATOM      9  C   UNL     1      49.291   7.001  18.445  0.00  0.00    +0.000 C 
BRANCH   9  15
ATOM     10  C   UNL     1      50.725   2.220  17.278  0.00  0.00    +0.000 C 
ATOM     11  C   UNL     1      49.687   3.303  17.410  0.00  0.00    +0.000 A 
ATOM     12  C   UNL     1      48.363   3.018  17.042  0.00  0.00    +0.000 A 
ATOM     13  C   UNL     1      47.371   3.985  17.155  0.00  0.00    +0.000 A 
ATOM     14  C   UNL     1      47.687   5.248  17.646  0.00  0.00    +0.000 A 
ATOM     15  C   UNL     1      49.006   5.574  18.017  0.00  0.00    +0.000 A 
ATOM     16  C   UNL     1      50.023   4.597  17.884  0.00  0.00    +0.000 A 
ATOM     17  C   UNL     1      51.465   4.899  18.218  0.00  0.00    +0.000 C 
ENDBRANCH   9  15
ENDBRANCH   7   9
ENDBRANCH   1   7
BRANCH   4  18
ATOM     18  C   UNL     1      47.680   7.907  12.180  0.00  0.00    +0.000 C 
BRANCH  18  19
ATOM     19  N   UNL     1      47.001   6.668  11.904  0.00  0.00    +0.000 N 
ATOM     20  C   UNL     1      45.636   6.589  12.027  0.00  0.00    +0.000 C 
ATOM     21  O   UNL     1      44.955   7.568  12.323  0.00  0.00    +0.000 OA
ATOM     22  H   UNL     1      47.556   5.818  11.894  0.00  0.00    +0.000 HD
BRANCH  20  23
ATOM     23  C   UNL     1      45.015   5.294  11.728  0.00  0.00    +0.000 A 
ATOM     24  C   UNL     1      44.315   4.627  12.726  0.00  0.00    +0.000 A 
ATOM     25  S   UNL     1      43.626   3.155  12.214  0.00  0.00    +0.000 S 
ATOM     26  C   UNL     1      44.281   3.332  10.653  0.00  0.00    +0.000 A 
ATOM     27  N   UNL     1      44.090   2.376   9.704  0.00  0.00    +0.000 NA
ATOM     28  C   UNL     1      44.664   2.625   8.575  0.00  0.00    +0.000 A 
ATOM     29  N   UNL     1      45.406   3.746   8.307  0.00  0.00    +0.000 N 
ATOM     30  C   UNL     1      45.603   4.751   9.225  0.00  0.00    +0.000 A 
ATOM     31  O   UNL     1      46.238   5.761   8.941  0.00  0.00    +0.000 OA
ATOM     32  C   UNL     1      44.992   4.514  10.518  0.00  0.00    +0.000 A 
ATOM     33  H   UNL     1      45.817   3.886   7.395  0.00  0.00    +0.000 HD
ENDBRANCH  20  23
ENDBRANCH  18  19
ENDBRANCH   4  18
TORSDOF 6
ENDMDL
MODEL 4
REMARK VINA RESULT:    -7.207      2.109      3.058
REMARK INTER + INTRA:         -10.539
REMARK INTER:                  -9.454
REMARK INTRA:                  -1.085
REMARK UNBOUND:                -0.803
REMARK  Name = 
REMARK  8 active torsions:
REMARK  status: ('A' for Active; 'I' for Inactive)
REMARK    1  A    between atoms: C_1  and  C_2
REMARK    2  A    between atoms: C_6  and  C_7
REMARK    3  A    between atoms: C_7  and  N_8
REMARK    4  A    between atoms: N_8  and  C_9
REMARK    5  A    between atoms: C_12  and  C_13
REMARK    6  A    between atoms: C_13  and  N_14
REMARK    7  A    between atoms: C_15  and  C_17
REMARK    8  A    between atoms: C_29  and  C_30
REMARK                            x       y       z     vdW  Elec       q    Type
REMARK                         _______ _______ _______ _____ _____    ______ ____
ROOT
ATOM      1  C   UNL     1      45.625   5.277  11.156  0.00  0.00    +0.000 A 
ATOM      2  C   UNL     1      46.249   6.277  11.914  0.00  0.00    +0.000 A 
ATOM      3  C   UNL     1      46.679   6.034  13.229  0.00  0.00    +0.000 A 
ATOM      4  C   UNL     1      46.469   4.787  13.827  0.00  0.00    +0.000 A 
ATOM      5  C   UNL     1      45.752   3.823  13.114  0.00  0.00    +0.000 A 
ATOM      6  C   UNL     1      45.329   4.073  11.808  0.00  0.00    +0.000 A 
ENDROOT
BRANCH   1   7
ATOM      7  N   UNL     1      45.203   5.552   9.843  0.00  0.00    +0.000 N 
ATOM      8  H   UNL     1      45.936   5.977   9.285  0.00  0.00    +0.000 HD
BRANCH   7   9
ATOM      9  C   UNL     1      44.544   4.461   9.122  0.00  0.00    +0.000 C 
BRANCH   9  15
ATOM     10  C   UNL     1      46.668   0.043   7.622  0.00  0.00    +0.000 C 
ATOM     11  C   UNL     1      46.583   1.547   7.621  0.00  0.00    +0.000 A 
ATOM     12  C   UNL     1      47.523   2.275   6.876  0.00  0.00    +0.000 A 
ATOM     13  C   UNL     1      47.477   3.664   6.839  0.00  0.00    +0.000 A 
ATOM     14  C   UNL     1      46.484   4.344   7.540  0.00  0.00    +0.000 A 
ATOM     15  C   UNL     1      45.529   3.648   8.305  0.00  0.00    +0.000 A 
ATOM     16  C   UNL     1      45.586   2.233   8.360  0.00  0.00    +0.000 A 
ATOM     17  C   UNL     1      44.621   1.431   9.202  0.00  0.00    +0.000 C 
ENDBRANCH   9  15
ENDBRANCH   7   9
ENDBRANCH   1   7
BRANCH   4  18
ATOM     18  C   UNL     1      46.972   4.468  15.207  0.00  0.00    +0.000 C 
BRANCH  18  19
ATOM     19  N   UNL     1      48.216   5.132  15.501  0.00  0.00    +0.000 N 
ATOM     20  C   UNL     1      48.473   5.580  16.773  0.00  0.00    +0.000 C 
ATOM     21  O   UNL     1      47.685   5.390  17.697  0.00  0.00    +0.000 OA
ATOM     22  H   UNL     1      48.752   5.497  14.720  0.00  0.00    +0.000 HD
BRANCH  20  23
ATOM     23  C   UNL     1      49.760   6.245  16.997  0.00  0.00    +0.000 A 
ATOM     24  C   UNL     1      50.923   5.487  17.036  0.00  0.00    +0.000 A 
ATOM     25  S   UNL     1      52.336   6.410  17.272  0.00  0.00    +0.000 S 
ATOM     26  C   UNL     1      51.439   7.852  17.381  0.00  0.00    +0.000 A 
ATOM     27  N   UNL     1      52.056   9.041  17.616  0.00  0.00    +0.000 NA
ATOM     28  C   UNL     1      51.254  10.049  17.701  0.00  0.00    +0.000 A 
ATOM     29  N   UNL     1      49.891   9.976  17.565  0.00  0.00    +0.000 N 
ATOM     30  C   UNL     1      49.227   8.801  17.299  0.00  0.00    +0.000 A 
ATOM     31  O   UNL     1      48.011   8.776  17.142  0.00  0.00    +0.000 OA
ATOM     32  C   UNL     1      50.080   7.634  17.210  0.00  0.00    +0.000 A 
ATOM     33  H   UNL     1      49.322  10.808  17.629  0.00  0.00    +0.000 HD
ENDBRANCH  20  23
ENDBRANCH  18  19
ENDBRANCH   4  18
TORSDOF 6
ENDMDL
MODEL 5
REMARK VINA RESULT:    -7.182      2.518      3.935
REMARK INTER + INTRA:         -10.505
REMARK INTER:                  -9.467
REMARK INTRA:                  -1.038
REMARK UNBOUND:                -0.803
REMARK  Name = 
REMARK  8 active torsions:
REMARK  status: ('A' for Active; 'I' for Inactive)
REMARK    1  A    between atoms: C_1  and  C_2
REMARK    2  A    between atoms: C_6  and  C_7
REMARK    3  A    between atoms: C_7  and  N_8
REMARK    4  A    between atoms: N_8  and  C_9
REMARK    5  A    between atoms: C_12  and  C_13
REMARK    6  A    between atoms: C_13  and  N_14
REMARK    7  A    between atoms: C_15  and  C_17
REMARK    8  A    between atoms: C_29  and  C_30
REMARK                            x       y       z     vdW  Elec       q    Type
REMARK                         _______ _______ _______ _____ _____    ______ ____
ROOT
ATOM      1  C   UNL     1      47.283   7.003  12.404  0.00  0.00    +0.000 A 
ATOM      2  C   UNL     1      47.369   8.325  12.861  0.00  0.00    +0.000 A 
ATOM      3  C   UNL     1      47.913   8.628  14.121  0.00  0.00    +0.000 A 
ATOM      4  C   UNL     1      48.359   7.606  14.966  0.00  0.00    +0.000 A 
ATOM      5  C   UNL     1      48.176   6.282  14.559  0.00  0.00    +0.000 A 
ATOM      6  C   UNL     1      47.636   5.992  13.306  0.00  0.00    +0.000 A 
ENDROOT
BRANCH   1   7
ATOM      7  N   UNL     1      46.731   6.734  11.139  0.00  0.00    +0.000 N 
ATOM      8  H   UNL     1      47.174   5.942  10.687  0.00  0.00    +0.000 HD
BRANCH   7   9
ATOM      9  C   UNL     1      45.271   6.646  11.064  0.00  0.00    +0.000 C 
BRANCH   9  15
ATOM     10  C   UNL     1      44.467   1.951   9.169  0.00  0.00    +0.000 C 
ATOM     11  C   UNL     1      44.352   2.984  10.260  0.00  0.00    +0.000 A 
ATOM     12  C   UNL     1      43.682   2.643  11.444  0.00  0.00    +0.000 A 
ATOM     13  C   UNL     1      43.560   3.562  12.480  0.00  0.00    +0.000 A 
ATOM     14  C   UNL     1      44.113   4.832  12.349  0.00  0.00    +0.000 A 
ATOM     15  C   UNL     1      44.785   5.213  11.172  0.00  0.00    +0.000 A 
ATOM     16  C   UNL     1      44.894   4.285  10.107  0.00  0.00    +0.000 A 
ATOM     17  C   UNL     1      45.559   4.649   8.800  0.00  0.00    +0.000 C 
ENDBRANCH   9  15
ENDBRANCH   7   9
ENDBRANCH   1   7
BRANCH   4  18
ATOM     18  C   UNL     1      49.007   7.892  16.292  0.00  0.00    +0.000 C 
BRANCH  18  19
ATOM     19  N   UNL     1      50.034   6.937  16.616  0.00  0.00    +0.000 N 
ATOM     20  C   UNL     1      49.861   6.069  17.665  0.00  0.00    +0.000 C 
ATOM     21  O   UNL     1      48.822   6.046  18.321  0.00  0.00    +0.000 OA
ATOM     22  H   UNL     1      50.965   7.102  16.247  0.00  0.00    +0.000 HD
BRANCH  20  23
ATOM     23  C   UNL     1      50.950   5.124  17.934  0.00  0.00    +0.000 A 
ATOM     24  C   UNL     1      52.131   5.587  18.500  0.00  0.00    +0.000 A 
ATOM     25  S   UNL     1      53.283   4.364  18.780  0.00  0.00    +0.000 S 
ATOM     26  C   UNL     1      52.265   3.178  18.108  0.00  0.00    +0.000 A 
ATOM     27  N   UNL     1      52.671   1.884  18.010  0.00  0.00    +0.000 NA
ATOM     28  C   UNL     1      51.811   1.097  17.457  0.00  0.00    +0.000 A 
ATOM     29  N   UNL     1      50.579   1.485  16.998  0.00  0.00    +0.000 N 
ATOM     30  C   UNL     1      50.114   2.776  17.102  0.00  0.00    +0.000 A 
ATOM     31  O   UNL     1      48.990   3.083  16.720  0.00  0.00    +0.000 OA
ATOM     32  C   UNL     1      51.049   3.706  17.702  0.00  0.00    +0.000 A 
ATOM     33  H   UNL     1      49.946   0.813  16.587  0.00  0.00    +0.000 HD
ENDBRANCH  20  23
ENDBRANCH  18  19
ENDBRANCH   4  18
TORSDOF 6
ENDMDL
MODEL 6
REMARK VINA RESULT:    -7.052      1.281      2.222
REMARK INTER + INTRA:         -10.329
REMARK INTER:                  -8.708
REMARK INTRA:                  -1.622
REMARK UNBOUND:                -0.803
REMARK  Name = 
REMARK  8 active torsions:
REMARK  status: ('A' for Active; 'I' for Inactive)
REMARK    1  A    between atoms: C_1  and  C_2
REMARK    2  A    between atoms: C_6  and  C_7
REMARK    3  A    between atoms: C_7  and  N_8
REMARK    4  A    between atoms: N_8  and  C_9
REMARK    5  A    between atoms: C_12  and  C_13
REMARK    6  A    between atoms: C_13  and  N_14
REMARK    7  A    between atoms: C_15  and  C_17
REMARK    8  A    between atoms: C_29  and  C_30
REMARK                            x       y       z     vdW  Elec       q    Type
REMARK                         _______ _______ _______ _____ _____    ______ ____
ROOT
ATOM      1  C   UNL     1      45.316   5.291  12.846  0.00  0.00    +0.000 A 
ATOM      2  C   UNL     1      46.395   4.569  13.374  0.00  0.00    +0.000 A 
ATOM      3  C   UNL     1      47.577   5.214  13.776  0.00  0.00    +0.000 A 
ATOM      4  C   UNL     1      47.715   6.599  13.631  0.00  0.00    +0.000 A 
ATOM      5  C   UNL     1      46.685   7.306  13.007  0.00  0.00    +0.000 A 
ATOM      6  C   UNL     1      45.514   6.657  12.611  0.00  0.00    +0.000 A 
ENDROOT
BRANCH   1   7
ATOM      7  N   UNL     1      44.147   4.615  12.451  0.00  0.00    +0.000 N 
ATOM      8  H   UNL     1      43.384   4.752  13.105  0.00  0.00    +0.000 HD
BRANCH   7   9
ATOM      9  C   UNL     1      43.709   4.814  11.067  0.00  0.00    +0.000 C 
BRANCH   9  15
ATOM     10  C   UNL     1      46.987   3.786   7.263  0.00  0.00    +0.000 C 
ATOM     11  C   UNL     1      45.937   3.376   8.263  0.00  0.00    +0.000 A 
ATOM     12  C   UNL     1      45.505   2.042   8.278  0.00  0.00    +0.000 A 
ATOM     13  C   UNL     1      44.545   1.617   9.189  0.00  0.00    +0.000 A 
ATOM     14  C   UNL     1      44.009   2.520  10.103  0.00  0.00    +0.000 A 
ATOM     15  C   UNL     1      44.411   3.870  10.112  0.00  0.00    +0.000 A 
ATOM     16  C   UNL     1      45.376   4.309   9.171  0.00  0.00    +0.000 A 
ATOM     17  C   UNL     1      45.813   5.753   9.097  0.00  0.00    +0.000 C 
ENDBRANCH   9  15
ENDBRANCH   7   9
ENDBRANCH   1   7
BRANCH   4  18
ATOM     18  C   UNL     1      48.936   7.333  14.109  0.00  0.00    +0.000 C 
BRANCH  18  19
ATOM     19  N   UNL     1      49.267   7.014  15.473  0.00  0.00    +0.000 N 
ATOM     20  C   UNL     1      48.865   7.843  16.491  0.00  0.00    +0.000 C 
ATOM     21  O   UNL     1      48.180   8.841  16.280  0.00  0.00    +0.000 OA
ATOM     22  H   UNL     1      50.013   6.344  15.634  0.00  0.00    +0.000 HD
BRANCH  20  23
ATOM     23  C   UNL     1      49.238   7.453  17.854  0.00  0.00    +0.000 A 
ATOM     24  C   UNL     1      50.045   8.295  18.609  0.00  0.00    +0.000 A 
ATOM     25  S   UNL     1      50.361   7.716  20.180  0.00  0.00    +0.000 S 
ATOM     26  C   UNL     1      49.471   6.294  19.891  0.00  0.00    +0.000 A 
ATOM     27  N   UNL     1      49.368   5.331  20.846  0.00  0.00    +0.000 NA
ATOM     28  C   UNL     1      48.688   4.295  20.485  0.00  0.00    +0.000 A 
ATOM     29  N   UNL     1      48.096   4.139  19.258  0.00  0.00    +0.000 N 
ATOM     30  C   UNL     1      48.149   5.097  18.273  0.00  0.00    +0.000 A 
ATOM     31  O   UNL     1      47.574   4.945  17.201  0.00  0.00    +0.000 OA
ATOM     32  C   UNL     1      48.916   6.276  18.621  0.00  0.00    +0.000 A 
ATOM     33  H   UNL     1      47.564   3.307  19.045  0.00  0.00    +0.000 HD
ENDBRANCH  20  23
ENDBRANCH  18  19
ENDBRANCH   4  18
TORSDOF 6
ENDMDL
MODEL 7
REMARK VINA RESULT:    -6.975      5.689      8.248
REMARK INTER + INTRA:         -10.225
REMARK INTER:                  -8.961
REMARK INTRA:                  -1.264
REMARK UNBOUND:                -0.803
REMARK  Name = 
REMARK  8 active torsions:
REMARK  status: ('A' for Active; 'I' for Inactive)
REMARK    1  A    between atoms: C_1  and  C_2
REMARK    2  A    between atoms: C_6  and  C_7
REMARK    3  A    between atoms: C_7  and  N_8
REMARK    4  A    between atoms: N_8  and  C_9
REMARK    5  A    between atoms: C_12  and  C_13
REMARK    6  A    between atoms: C_13  and  N_14
REMARK    7  A    between atoms: C_15  and  C_17
REMARK    8  A    between atoms: C_29  and  C_30
REMARK                            x       y       z     vdW  Elec       q    Type
REMARK                         _______ _______ _______ _____ _____    ______ ____
ROOT
ATOM      1  C   UNL     1      46.974   7.672  12.703  0.00  0.00    +0.000 A 
ATOM      2  C   UNL     1      47.943   6.674  12.870  0.00  0.00    +0.000 A 
ATOM      3  C   UNL     1      49.292   6.907  12.554  0.00  0.00    +0.000 A 
ATOM      4  C   UNL     1      49.698   8.142  12.037  0.00  0.00    +0.000 A 
ATOM      5  C   UNL     1      48.719   9.101  11.768  0.00  0.00    +0.000 A 
ATOM      6  C   UNL     1      47.381   8.861  12.086  0.00  0.00    +0.000 A 
ENDROOT
BRANCH   1   7
ATOM      7  N   UNL     1      45.631   7.406  13.026  0.00  0.00    +0.000 N 
ATOM      8  H   UNL     1      45.238   8.109  13.643  0.00  0.00    +0.000 HD
BRANCH   7   9
ATOM      9  C   UNL     1      44.732   7.110  11.908  0.00  0.00    +0.000 C 
BRANCH   9  15
ATOM     10  C   UNL     1      44.933   2.581   9.516  0.00  0.00    +0.000 C 
ATOM     11  C   UNL     1      44.481   3.472  10.644  0.00  0.00    +0.000 A 
ATOM     12  C   UNL     1      43.657   2.931  11.641  0.00  0.00    +0.000 A 
ATOM     13  C   UNL     1      43.223   3.714  12.705  0.00  0.00    +0.000 A 
ATOM     14  C   UNL     1      43.615   5.047  12.789  0.00  0.00    +0.000 A 
ATOM     15  C   UNL     1      44.433   5.628  11.802  0.00  0.00    +0.000 A 
ATOM     16  C   UNL     1      44.861   4.837  10.706  0.00  0.00    +0.000 A 
ATOM     17  C   UNL     1      45.699   5.412   9.590  0.00  0.00    +0.000 C 
ENDBRANCH   9  15
ENDBRANCH   7   9
ENDBRANCH   1   7
BRANCH   4  18
ATOM     18  C   UNL     1      51.140   8.452  11.749  0.00  0.00    +0.000 C 
BRANCH  18  19
ATOM     19  N   UNL     1      51.530   8.052  10.422  0.00  0.00    +0.000 N 
ATOM     20  C   UNL     1      52.623   8.626   9.823  0.00  0.00    +0.000 C 
ATOM     21  O   UNL     1      53.323   9.450  10.408  0.00  0.00    +0.000 OA
ATOM     22  H   UNL     1      50.842   7.566   9.854  0.00  0.00    +0.000 HD
BRANCH  20  23
ATOM     23  C   UNL     1      52.960   8.169   8.471  0.00  0.00    +0.000 A 
ATOM     24  C   UNL     1      52.933   9.074   7.418  0.00  0.00    +0.000 A 
ATOM     25  S   UNL     1      53.379   8.396   5.919  0.00  0.00    +0.000 S 
ATOM     26  C   UNL     1      53.575   6.856   6.615  0.00  0.00    +0.000 A 
ATOM     27  N   UNL     1      53.926   5.786   5.852  0.00  0.00    +0.000 NA
ATOM     28  C   UNL     1      54.013   4.674   6.503  0.00  0.00    +0.000 A 
ATOM     29  N   UNL     1      53.787   4.538   7.848  0.00  0.00    +0.000 N 
ATOM     30  C   UNL     1      53.458   5.595   8.664  0.00  0.00    +0.000 A 
ATOM     31  O   UNL     1      53.303   5.447   9.871  0.00  0.00    +0.000 OA
ATOM     32  C   UNL     1      53.331   6.866   7.980  0.00  0.00    +0.000 A 
ATOM     33  H   UNL     1      53.887   3.639   8.299  0.00  0.00    +0.000 HD
ENDBRANCH  20  23
ENDBRANCH  18  19
ENDBRANCH   4  18
TORSDOF 6
ENDMDL
MODEL 8
REMARK VINA RESULT:    -6.936      3.463      9.889
REMARK INTER + INTRA:         -10.173
REMARK INTER:                  -8.820
REMARK INTRA:                  -1.352
REMARK UNBOUND:                -0.803
REMARK  Name = 
REMARK  8 active torsions:
REMARK  status: ('A' for Active; 'I' for Inactive)
REMARK    1  A    between atoms: C_1  and  C_2
REMARK    2  A    between atoms: C_6  and  C_7
REMARK    3  A    between atoms: C_7  and  N_8
REMARK    4  A    between atoms: N_8  and  C_9
REMARK    5  A    between atoms: C_12  and  C_13
REMARK    6  A    between atoms: C_13  and  N_14
REMARK    7  A    between atoms: C_15  and  C_17
REMARK    8  A    between atoms: C_29  and  C_30
REMARK                            x       y       z     vdW  Elec       q    Type
REMARK                         _______ _______ _______ _____ _____    ______ ____
ROOT
ATOM      1  C   UNL     1      50.207   5.117  18.206  0.00  0.00    +0.000 A 
ATOM      2  C   UNL     1      48.862   5.241  17.833  0.00  0.00    +0.000 A 
ATOM      3  C   UNL     1      48.465   6.134  16.823  0.00  0.00    +0.000 A 
ATOM      4  C   UNL     1      49.406   6.945  16.181  0.00  0.00    +0.000 A 
ATOM      5  C   UNL     1      50.730   6.902  16.624  0.00  0.00    +0.000 A 
ATOM      6  C   UNL     1      51.116   6.012  17.627  0.00  0.00    +0.000 A 
ENDROOT
BRANCH   1   7
ATOM      7  N   UNL     1      50.573   4.216  19.221  0.00  0.00    +0.000 N 
ATOM      8  H   UNL     1      51.329   3.602  18.938  0.00  0.00    +0.000 HD
BRANCH   7   9
ATOM      9  C   UNL     1      50.813   4.784  20.550  0.00  0.00    +0.000 C 
BRANCH   9  15
ATOM     10  C   UNL     1      48.504   9.195  21.771  0.00  0.00    +0.000 C 
ATOM     11  C   UNL     1      48.536   7.692  21.672  0.00  0.00    +0.000 A 
ATOM     12  C   UNL     1      47.429   6.962  22.132  0.00  0.00    +0.000 A 
ATOM     13  C   UNL     1      47.412   5.574  22.052  0.00  0.00    +0.000 A 
ATOM     14  C   UNL     1      48.498   4.898  21.503  0.00  0.00    +0.000 A 
ATOM     15  C   UNL     1      49.629   5.596  21.039  0.00  0.00    +0.000 A 
ATOM     16  C   UNL     1      49.658   7.009  21.137  0.00  0.00    +0.000 A 
ATOM     17  C   UNL     1      50.861   7.812  20.703  0.00  0.00    +0.000 C 
ENDBRANCH   9  15
ENDBRANCH   7   9
ENDBRANCH   1   7
BRANCH   4  18
ATOM     18  C   UNL     1      49.031   7.865  15.052  0.00  0.00    +0.000 C 
BRANCH  18  19
ATOM     19  N   UNL     1      47.796   7.477  14.420  0.00  0.00    +0.000 N 
ATOM     20  C   UNL     1      47.814   6.666  13.314  0.00  0.00    +0.000 C 
ATOM     21  O   UNL     1      48.863   6.212  12.862  0.00  0.00    +0.000 OA
ATOM     22  H   UNL     1      46.967   8.024  14.632  0.00  0.00    +0.000 HD
BRANCH  20  23
ATOM     23  C   UNL     1      46.518   6.314  12.725  0.00  0.00    +0.000 A 
ATOM     24  C   UNL     1      45.720   7.314  12.184  0.00  0.00    +0.000 A 
ATOM     25  S   UNL     1      44.263   6.740  11.511  0.00  0.00    +0.000 S 
ATOM     26  C   UNL     1      44.624   5.139  11.964  0.00  0.00    +0.000 A 
ATOM     27  N   UNL     1      43.752   4.129  11.706  0.00  0.00    +0.000 NA
ATOM     28  C   UNL     1      44.139   2.971  12.127  0.00  0.00    +0.000 A 
ATOM     29  N   UNL     1      45.323   2.733  12.775  0.00  0.00    +0.000 N 
ATOM     30  C   UNL     1      46.248   3.718  13.032  0.00  0.00    +0.000 A 
ATOM     31  O   UNL     1      47.317   3.464  13.578  0.00  0.00    +0.000 OA
ATOM     32  C   UNL     1      45.855   5.042  12.595  0.00  0.00    +0.000 A 
ATOM     33  H   UNL     1      45.572   1.798  13.066  0.00  0.00    +0.000 HD
ENDBRANCH  20  23
ENDBRANCH  18  19
ENDBRANCH   4  18
TORSDOF 6
ENDMDL
MODEL 9
REMARK VINA RESULT:    -6.796      2.306      3.225
REMARK INTER + INTRA:          -9.983
REMARK INTER:                  -8.464
REMARK INTRA:                  -1.519
REMARK UNBOUND:                -0.803
REMARK  Name = 
REMARK  8 active torsions:
REMARK  status: ('A' for Active; 'I' for Inactive)
REMARK    1  A    between atoms: C_1  and  C_2
REMARK    2  A    between atoms: C_6  and  C_7
REMARK    3  A    between atoms: C_7  and  N_8
REMARK    4  A    between atoms: N_8  and  C_9
REMARK    5  A    between atoms: C_12  and  C_13
REMARK    6  A    between atoms: C_13  and  N_14
REMARK    7  A    between atoms: C_15  and  C_17
REMARK    8  A    between atoms: C_29  and  C_30
REMARK                            x       y       z     vdW  Elec       q    Type
REMARK                         _______ _______ _______ _____ _____    ______ ____
ROOT
ATOM      1  C   UNL     1      45.458   5.471  12.946  0.00  0.00    +0.000 A 
ATOM      2  C   UNL     1      46.684   4.902  13.317  0.00  0.00    +0.000 A 
ATOM      3  C   UNL     1      47.794   5.703  13.634  0.00  0.00    +0.000 A 
ATOM      4  C   UNL     1      47.708   7.098  13.560  0.00  0.00    +0.000 A 
ATOM      5  C   UNL     1      46.523   7.664  13.087  0.00  0.00    +0.000 A 
ATOM      6  C   UNL     1      45.425   6.860  12.775  0.00  0.00    +0.000 A 
ENDROOT
BRANCH   1   7
ATOM      7  N   UNL     1      44.367   4.641  12.632  0.00  0.00    +0.000 N 
ATOM      8  H   UNL     1      43.659   4.647  13.358  0.00  0.00    +0.000 HD
BRANCH   7   9
ATOM      9  C   UNL     1      43.774   4.809  11.303  0.00  0.00    +0.000 C 
BRANCH   9  15
ATOM     10  C   UNL     1      46.920   3.966   7.345  0.00  0.00    +0.000 C 
ATOM     11  C   UNL     1      45.896   3.511   8.352  0.00  0.00    +0.000 A 
ATOM     12  C   UNL     1      45.447   2.183   8.304  0.00  0.00    +0.000 A 
ATOM     13  C   UNL     1      44.509   1.717   9.219  0.00  0.00    +0.000 A 
ATOM     14  C   UNL     1      44.014   2.572  10.200  0.00  0.00    +0.000 A 
ATOM     15  C   UNL     1      44.435   3.914  10.273  0.00  0.00    +0.000 A 
ATOM     16  C   UNL     1      45.375   4.396   9.330  0.00  0.00    +0.000 A 
ATOM     17  C   UNL     1      45.829   5.837   9.325  0.00  0.00    +0.000 C 
ENDBRANCH   9  15
ENDBRANCH   7   9
ENDBRANCH   1   7
BRANCH   4  18
ATOM     18  C   UNL     1      48.852   7.990  13.954  0.00  0.00    +0.000 C 
BRANCH  18  19
ATOM     19  N   UNL     1      49.913   7.264  14.602  0.00  0.00    +0.000 N 
ATOM     20  C   UNL     1      50.452   7.732  15.774  0.00  0.00    +0.000 C 
ATOM     21  O   UNL     1      50.022   8.743  16.325  0.00  0.00    +0.000 OA
ATOM     22  H   UNL     1      50.423   6.581  14.050  0.00  0.00    +0.000 HD
BRANCH  20  23
ATOM     23  C   UNL     1      51.528   6.939  16.376  0.00  0.00    +0.000 A 
ATOM     24  C   UNL     1      52.817   7.455  16.414  0.00  0.00    +0.000 A 
ATOM     25  S   UNL     1      53.946   6.429  17.173  0.00  0.00    +0.000 S 
ATOM     26  C   UNL     1      52.762   5.235  17.434  0.00  0.00    +0.000 A 
ATOM     27  N   UNL     1      53.082   4.054  18.028  0.00  0.00    +0.000 NA
ATOM     28  C   UNL     1      52.095   3.229  18.140  0.00  0.00    +0.000 A 
ATOM     29  N   UNL     1      50.815   3.482  17.717  0.00  0.00    +0.000 N 
ATOM     30  C   UNL     1      50.439   4.672  17.137  0.00  0.00    +0.000 A 
ATOM     31  O   UNL     1      49.277   4.883  16.808  0.00  0.00    +0.000 OA
ATOM     32  C   UNL     1      51.515   5.628  16.973  0.00  0.00    +0.000 A 
ATOM     33  H   UNL     1      50.084   2.797  17.848  0.00  0.00    +0.000 HD
ENDBRANCH  20  23
ENDBRANCH  18  19
ENDBRANCH   4  18
TORSDOF 6
ENDMDL
