MODEL 1
REMARK VINA RESULT:    -7.567      0.000      0.000
REMARK INTER + INTRA:         -10.818
REMARK INTER:                 -10.221
REMARK INTRA:                  -0.597
REMARK UNBOUND:                -0.597
REMARK  Name = 
REMARK  7 active torsions:
REMARK  status: ('A' for Active; 'I' for Inactive)
REMARK    1  A    between atoms: C_1  and  C_2
REMARK    2  A    between atoms: C_2  and  N_3
REMARK    3  A    between atoms: N_3  and  C_4
REMARK    4  A    between atoms: C_7  and  C_8
REMARK    5  A    between atoms: C_12  and  N_13
REMARK    6  A    between atoms: N_13  and  C_14
REMARK    7  A    between atoms: C_15  and  C_16
REMARK                            x       y       z     vdW  Elec       q    Type
REMARK                         _______ _______ _______ _____ _____    ______ ____
ROOT
ATOM      1  C   UNL     1      44.426   7.833  11.581  0.00  0.00    +0.000 A 
ATOM      2  N   UNL     1      45.113   8.703  12.353  0.00  0.00    +0.000 NA
ATOM      3  C   UNL     1      46.220   8.246  12.990  0.00  0.00    +0.000 A 
ATOM      4  C   UNL     1      46.696   6.950  12.893  0.00  0.00    +0.000 A 
ATOM      5  C   UNL     1      45.965   6.056  12.106  0.00  0.00    +0.000 A 
ATOM      6  C   UNL     1      44.792   6.468  11.463  0.00  0.00    +0.000 A 
ENDROOT
BRANCH   4   7
ATOM      7  C   UNL     1      47.927   6.465  13.568  0.00  0.00    +0.000 C 
ATOM      8  N   UNL     1      47.902   6.237  14.918  0.00  0.00    +0.000 N 
ATOM      9  O   UNL     1      48.958   6.274  12.942  0.00  0.00    +0.000 OA
ATOM     10  H   UNL     1      47.117   6.369  15.535  0.00  0.00    +0.000 HD
ATOM     11  H   UNL     1      48.770   5.918  15.332  0.00  0.00    +0.000 HD
ENDBRANCH   4   7
BRANCH   1  12
ATOM     12  N   UNL     1      43.271   8.274  10.877  0.00  0.00    +0.000 N 
ATOM     13  H   UNL     1      43.263   7.781   9.988  0.00  0.00    +0.000 HD
BRANCH  12  15
ATOM     14  C   UNL     1      41.838  10.227  10.656  0.00  0.00    +0.000 C 
ATOM     15  C   UNL     1      43.271   9.718  10.638  0.00  0.00    +0.000 C 
ENDBRANCH  12  15
ENDBRANCH   1  12
BRANCH   6  16
ATOM     16  N   UNL     1      44.051   5.612  10.618  0.00  0.00    +0.000 N 
ATOM     17  H   UNL     1      43.062   5.836  10.563  0.00  0.00    +0.000 HD
BRANCH  16  18
ATOM     18  C   UNL     1      44.499   4.542   9.891  0.00  0.00    +0.000 C 
ATOM     19  C   UNL     1      45.279   4.599   8.804  0.00  0.00    +0.000 C 
BRANCH  19  20
ATOM     20  C   UNL     1      45.803   3.379   8.189  0.00  0.00    +0.000 A 
ATOM     21  C   UNL     1      45.597   2.127   8.777  0.00  0.00    +0.000 A 
ATOM     22  C   UNL     1      46.148   0.981   8.198  0.00  0.00    +0.000 A 
ATOM     23  C   UNL     1      46.908   1.082   7.031  0.00  0.00    +0.000 A 
ATOM     24  C   UNL     1      47.105   2.330   6.442  0.00  0.00    +0.000 A 
ATOM     25 CL   UNL     1      48.042   2.460   5.005  0.00  0.00    +0.000 Cl
ATOM     26  C   UNL     1      46.556   3.476   7.013  0.00  0.00    +0.000 A 
ENDBRANCH  19  20
ENDBRANCH  16  18
ENDBRANCH   6  16
TORSDOF 6
ENDMDL
MODEL 2
REMARK VINA RESULT:    -7.279      3.974      7.175
REMARK INTER + INTRA:         -10.429
REMARK INTER:                  -9.626
REMARK INTRA:                  -0.803
REMARK UNBOUND:                -0.597
REMARK  Name = 
REMARK  7 active torsions:
REMARK  status: ('A' for Active; 'I' for Inactive)
REMARK    1  A    between atoms: C_1  and  C_2
REMARK    2  A    between atoms: C_2  and  N_3
REMARK    3  A    between atoms: N_3  and  C_4
REMARK    4  A    between atoms: C_7  and  C_8
REMARK    5  A    between atoms: C_12  and  N_13
REMARK    6  A    between atoms: N_13  and  C_14
REMARK    7  A    between atoms: C_15  and  C_16
REMARK                            x       y       z     vdW  Elec       q    Type
REMARK                         _______ _______ _______ _____ _____    ______ ____
ROOT
ATOM      1  C   UNL     1      44.519   3.091   9.640  0.00  0.00    +0.000 A 
ATOM      2  N   UNL     1      44.639   1.821   9.196  0.00  0.00    +0.000 NA
ATOM      3  C   UNL     1      45.543   1.576   8.215  0.00  0.00    +0.000 A 
ATOM      4  C   UNL     1      46.357   2.540   7.647  0.00  0.00    +0.000 A 
ATOM      5  C   UNL     1      46.210   3.853   8.103  0.00  0.00    +0.000 A 
ATOM      6  C   UNL     1      45.260   4.164   9.083  0.00  0.00    +0.000 A 
ENDROOT
BRANCH   4   7
ATOM      7  C   UNL     1      47.367   2.259   6.596  0.00  0.00    +0.000 C 
ATOM      8  N   UNL     1      47.438   3.080   5.501  0.00  0.00    +0.000 N 
ATOM      9  O   UNL     1      48.128   1.308   6.688  0.00  0.00    +0.000 OA
ATOM     10  H   UNL     1      46.859   3.882   5.314  0.00  0.00    +0.000 HD
ATOM     11  H   UNL     1      48.137   2.838   4.808  0.00  0.00    +0.000 HD
ENDBRANCH   4   7
BRANCH   1  12
ATOM     12  N   UNL     1      43.599   3.390  10.684  0.00  0.00    +0.000 N 
ATOM     13  H   UNL     1      43.466   4.397  10.677  0.00  0.00    +0.000 HD
BRANCH  12  15
ATOM     14  C   UNL     1      43.567   3.936  13.053  0.00  0.00    +0.000 C 
ATOM     15  C   UNL     1      44.077   2.965  12.000  0.00  0.00    +0.000 C 
ENDBRANCH  12  15
ENDBRANCH   1  12
BRANCH   6  16
ATOM     16  N   UNL     1      45.113   5.467   9.608  0.00  0.00    +0.000 N 
ATOM     17  H   UNL     1      44.247   5.928   9.342  0.00  0.00    +0.000 HD
BRANCH  16  18
ATOM     18  C   UNL     1      45.981   6.163  10.406  0.00  0.00    +0.000 C 
ATOM     19  C   UNL     1      46.271   5.887  11.684  0.00  0.00    +0.000 C 
BRANCH  19  20
ATOM     20  C   UNL     1      47.317   6.624  12.394  0.00  0.00    +0.000 A 
ATOM     21  C   UNL     1      48.047   7.634  11.760  0.00  0.00    +0.000 A 
ATOM     22  C   UNL     1      49.074   8.291  12.443  0.00  0.00    +0.000 A 
ATOM     23  C   UNL     1      49.375   7.939  13.761  0.00  0.00    +0.000 A 
ATOM     24  C   UNL     1      48.640   6.938  14.393  0.00  0.00    +0.000 A 
ATOM     25 CL   UNL     1      49.009   6.501  16.016  0.00  0.00    +0.000 Cl
ATOM     26  C   UNL     1      47.613   6.281  13.718  0.00  0.00    +0.000 A 
ENDBRANCH  19  20
ENDBRANCH  16  18
ENDBRANCH   6  16
TORSDOF 6
ENDMDL
MODEL 3
REMARK VINA RESULT:    -6.751      2.146      4.009
REMARK INTER + INTRA:          -9.717
REMARK INTER:                  -9.487
REMARK INTRA:                  -0.229
REMARK UNBOUND:                -0.597
REMARK  Name = 
REMARK  7 active torsions:
REMARK  status: ('A' for Active; 'I' for Inactive)
REMARK    1  A    between atoms: C_1  and  C_2
REMARK    2  A    between atoms: C_2  and  N_3
REMARK    3  A    between atoms: N_3  and  C_4
REMARK    4  A    between atoms: C_7  and  C_8
REMARK    5  A    between atoms: C_12  and  N_13
REMARK    6  A    between atoms: N_13  and  C_14
REMARK    7  A    between atoms: C_15  and  C_16
REMARK                            x       y       z     vdW  Elec       q    Type
REMARK                         _______ _______ _______ _____ _____    ______ ____
ROOT
ATOM      1  C   UNL     1      46.105   6.490  12.672  0.00  0.00    +0.000 A 
ATOM      2  N   UNL     1      46.585   7.570  13.328  0.00  0.00    +0.000 NA
ATOM      3  C   UNL     1      46.068   8.783  13.012  0.00  0.00    +0.000 A 
ATOM      4  C   UNL     1      45.075   8.986  12.070  0.00  0.00    +0.000 A 
ATOM      5  C   UNL     1      44.600   7.863  11.387  0.00  0.00    +0.000 A 
ATOM      6  C   UNL     1      45.132   6.595  11.646  0.00  0.00    +0.000 A 
ENDROOT
BRANCH   4   7
ATOM      7  C   UNL     1      44.491  10.314  11.753  0.00  0.00    +0.000 C 
ATOM      8  N   UNL     1      43.218  10.601  12.169  0.00  0.00    +0.000 N 
ATOM      9  O   UNL     1      45.123  11.148  11.122  0.00  0.00    +0.000 OA
ATOM     10  H   UNL     1      42.603   9.991  12.683  0.00  0.00    +0.000 HD
ATOM     11  H   UNL     1      42.863  11.516  11.918  0.00  0.00    +0.000 HD
ENDBRANCH   4   7
BRANCH   1  12
ATOM     12  N   UNL     1      46.602   5.195  12.987  0.00  0.00    +0.000 N 
ATOM     13  H   UNL     1      45.856   4.536  12.782  0.00  0.00    +0.000 HD
BRANCH  12  15
ATOM     14  C   UNL     1      47.324   3.610  14.685  0.00  0.00    +0.000 C 
ATOM     15  C   UNL     1      47.000   5.066  14.389  0.00  0.00    +0.000 C 
ENDBRANCH  12  15
ENDBRANCH   1  12
BRANCH   6  16
ATOM     16  N   UNL     1      44.647   5.427  11.015  0.00  0.00    +0.000 N 
ATOM     17  H   UNL     1      43.680   5.206  11.237  0.00  0.00    +0.000 HD
BRANCH  16  18
ATOM     18  C   UNL     1      45.312   4.581  10.169  0.00  0.00    +0.000 C 
ATOM     19  C   UNL     1      44.837   4.078   9.023  0.00  0.00    +0.000 C 
BRANCH  19  20
ATOM     20  C   UNL     1      45.693   3.290   8.136  0.00  0.00    +0.000 A 
ATOM     21  C   UNL     1      46.343   3.877   7.047  0.00  0.00    +0.000 A 
ATOM     22  C   UNL     1      47.116   3.094   6.186  0.00  0.00    +0.000 A 
ATOM     23  C   UNL     1      47.240   1.721   6.409  0.00  0.00    +0.000 A 
ATOM     24  C   UNL     1      46.598   1.140   7.500  0.00  0.00    +0.000 A 
ATOM     25 CL   UNL     1      46.746  -0.552   7.778  0.00  0.00    +0.000 Cl
ATOM     26  C   UNL     1      45.828   1.915   8.364  0.00  0.00    +0.000 A 
ENDBRANCH  19  20
ENDBRANCH  16  18
ENDBRANCH   6  16
TORSDOF 6
ENDMDL
MODEL 4
REMARK VINA RESULT:    -6.440      4.368      7.400
REMARK INTER + INTRA:          -9.296
REMARK INTER:                  -8.751
REMARK INTRA:                  -0.545
REMARK UNBOUND:                -0.597
REMARK  Name = 
REMARK  7 active torsions:
REMARK  status: ('A' for Active; 'I' for Inactive)
REMARK    1  A    between atoms: C_1  and  C_2
REMARK    2  A    between atoms: C_2  and  N_3
REMARK    3  A    between atoms: N_3  and  C_4
REMARK    4  A    between atoms: C_7  and  C_8
REMARK    5  A    between atoms: C_12  and  N_13
REMARK    6  A    between atoms: N_13  and  C_14
REMARK    7  A    between atoms: C_15  and  C_16
REMARK                            x       y       z     vdW  Elec       q    Type
REMARK                         _______ _______ _______ _____ _____    ______ ____
ROOT
ATOM      1  C   UNL     1      45.045   4.324  11.673  0.00  0.00    +0.000 A 
ATOM      2  N   UNL     1      44.505   5.255  10.856  0.00  0.00    +0.000 NA
ATOM      3  C   UNL     1      44.650   6.559  11.198  0.00  0.00    +0.000 A 
ATOM      4  C   UNL     1      45.323   6.998  12.325  0.00  0.00    +0.000 A 
ATOM      5  C   UNL     1      45.861   6.025  13.171  0.00  0.00    +0.000 A 
ATOM      6  C   UNL     1      45.700   4.665  12.884  0.00  0.00    +0.000 A 
ENDROOT
BRANCH   4   7
ATOM      7  C   UNL     1      45.506   8.429  12.676  0.00  0.00    +0.000 C 
ATOM      8  N   UNL     1      46.327   8.761  13.722  0.00  0.00    +0.000 N 
ATOM      9  O   UNL     1      44.933   9.312  12.056  0.00  0.00    +0.000 OA
ATOM     10  H   UNL     1      46.839   8.123  14.308  0.00  0.00    +0.000 HD
ATOM     11  H   UNL     1      46.409   9.749  13.928  0.00  0.00    +0.000 HD
ENDBRANCH   4   7
BRANCH   1  12
ATOM     12  N   UNL     1      44.936   2.945  11.341  0.00  0.00    +0.000 N 
ATOM     13  H   UNL     1      45.883   2.584  11.273  0.00  0.00    +0.000 HD
BRANCH  12  15
ATOM     14  C   UNL     1      45.195   2.116   9.070  0.00  0.00    +0.000 C 
ATOM     15  C   UNL     1      44.231   2.720  10.079  0.00  0.00    +0.000 C 
ENDBRANCH  12  15
ENDBRANCH   1  12
BRANCH   6  16
ATOM     16  N   UNL     1      46.270   3.649  13.684  0.00  0.00    +0.000 N 
ATOM     17  H   UNL     1      45.803   2.750  13.610  0.00  0.00    +0.000 HD
BRANCH  16  18
ATOM     18  C   UNL     1      47.344   3.737  14.529  0.00  0.00    +0.000 C 
ATOM     19  C   UNL     1      47.297   3.727  15.867  0.00  0.00    +0.000 C 
BRANCH  19  20
ATOM     20  C   UNL     1      48.524   3.693  16.662  0.00  0.00    +0.000 A 
ATOM     21  C   UNL     1      48.997   4.836  17.314  0.00  0.00    +0.000 A 
ATOM     22  C   UNL     1      50.198   4.792  18.027  0.00  0.00    +0.000 A 
ATOM     23  C   UNL     1      50.931   3.605  18.090  0.00  0.00    +0.000 A 
ATOM     24  C   UNL     1      50.454   2.465  17.446  0.00  0.00    +0.000 A 
ATOM     25 CL   UNL     1      51.356   1.001  17.519  0.00  0.00    +0.000 Cl
ATOM     26  C   UNL     1      49.256   2.502  16.736  0.00  0.00    +0.000 A 
ENDBRANCH  19  20
ENDBRANCH  16  18
ENDBRANCH   6  16
TORSDOF 6
ENDMDL
MODEL 5
REMARK VINA RESULT:    -6.421      4.932      7.790
REMARK INTER + INTRA:          -9.271
REMARK INTER:                  -8.678
REMARK INTRA:                  -0.593
REMARK UNBOUND:                -0.597
REMARK  Name = 
REMARK  7 active torsions:
REMARK  status: ('A' for Active; 'I' for Inactive)
REMARK    1  A    between atoms: C_1  and  C_2
REMARK    2  A    between atoms: C_2  and  N_3
REMARK    3  A    between atoms: N_3  and  C_4
REMARK    4  A    between atoms: C_7  and  C_8
REMARK    5  A    between atoms: C_12  and  N_13
REMARK    6  A    between atoms: N_13  and  C_14
REMARK    7  A    between atoms: C_15  and  C_16
REMARK                            x       y       z     vdW  Elec       q    Type
REMARK                         _______ _______ _______ _____ _____    ______ ____
ROOT
ATOM      1  C   UNL     1      46.012   6.056  12.780  0.00  0.00    +0.000 A 
ATOM      2  N   UNL     1      45.654   6.206  11.486  0.00  0.00    +0.000 NA
ATOM      3  C   UNL     1      45.070   5.151  10.865  0.00  0.00    +0.000 A 
ATOM      4  C   UNL     1      44.809   3.935  11.472  0.00  0.00    +0.000 A 
ATOM      5  C   UNL     1      45.201   3.788  12.805  0.00  0.00    +0.000 A 
ATOM      6  C   UNL     1      45.846   4.832  13.478  0.00  0.00    +0.000 A 
ENDROOT
BRANCH   4   7
ATOM      7  C   UNL     1      44.141   2.795  10.795  0.00  0.00    +0.000 C 
ATOM      8  N   UNL     1      44.748   2.212   9.714  0.00  0.00    +0.000 N 
ATOM      9  O   UNL     1      43.060   2.376  11.179  0.00  0.00    +0.000 OA
ATOM     10  H   UNL     1      45.628   2.478   9.304  0.00  0.00    +0.000 HD
ATOM     11  H   UNL     1      44.246   1.446   9.281  0.00  0.00    +0.000 HD
ENDBRANCH   4   7
BRANCH   1  12
ATOM     12  N   UNL     1      46.607   7.144  13.478  0.00  0.00    +0.000 N 
ATOM     13  H   UNL     1      45.877   7.838  13.615  0.00  0.00    +0.000 HD
BRANCH  12  15
ATOM     14  C   UNL     1      48.956   6.865  12.915  0.00  0.00    +0.000 C 
ATOM     15  C   UNL     1      47.725   7.742  12.748  0.00  0.00    +0.000 C 
ENDBRANCH  12  15
ENDBRANCH   1  12
BRANCH   6  16
ATOM     16  N   UNL     1      46.214   4.744  14.839  0.00  0.00    +0.000 N 
ATOM     17  H   UNL     1      45.454   4.932  15.488  0.00  0.00    +0.000 HD
BRANCH  16  18
ATOM     18  C   UNL     1      47.441   4.449  15.369  0.00  0.00    +0.000 C 
ATOM     19  C   UNL     1      47.668   3.817  16.528  0.00  0.00    +0.000 C 
BRANCH  19  20
ATOM     20  C   UNL     1      49.024   3.440  16.925  0.00  0.00    +0.000 A 
ATOM     21  C   UNL     1      49.479   2.125  16.788  0.00  0.00    +0.000 A 
ATOM     22  C   UNL     1      50.762   1.778  17.220  0.00  0.00    +0.000 A 
ATOM     23  C   UNL     1      51.594   2.742  17.791  0.00  0.00    +0.000 A 
ATOM     24  C   UNL     1      51.141   4.054  17.919  0.00  0.00    +0.000 A 
ATOM     25 CL   UNL     1      52.162   5.246  18.625  0.00  0.00    +0.000 Cl
ATOM     26  C   UNL     1      49.864   4.408  17.488  0.00  0.00    +0.000 A 
ENDBRANCH  19  20
ENDBRANCH  16  18
ENDBRANCH   6  16
TORSDOF 6
ENDMDL
MODEL 6
REMARK VINA RESULT:    -6.285      3.857      7.127
REMARK INTER + INTRA:          -9.086
REMARK INTER:                  -8.491
REMARK INTRA:                  -0.596
REMARK UNBOUND:                -0.597
REMARK  Name = 
REMARK  7 active torsions:
REMARK  status: ('A' for Active; 'I' for Inactive)
REMARK    1  A    between atoms: C_1  and  C_2
REMARK    2  A    between atoms: C_2  and  N_3
REMARK    3  A    between atoms: N_3  and  C_4
REMARK    4  A    between atoms: C_7  and  C_8
REMARK    5  A    between atoms: C_12  and  N_13
REMARK    6  A    between atoms: N_13  and  C_14
REMARK    7  A    between atoms: C_15  and  C_16
REMARK                            x       y       z     vdW  Elec       q    Type
REMARK                         _______ _______ _______ _____ _____    ______ ____
ROOT
ATOM      1  C   UNL     1      46.211   4.792  13.710  0.00  0.00    +0.000 A 
ATOM      2  N   UNL     1      46.101   3.477  13.417  0.00  0.00    +0.000 NA
ATOM      3  C   UNL     1      45.450   3.136  12.277  0.00  0.00    +0.000 A 
ATOM      4  C   UNL     1      44.900   4.045  11.391  0.00  0.00    +0.000 A 
ATOM      5  C   UNL     1      45.005   5.400  11.716  0.00  0.00    +0.000 A 
ATOM      6  C   UNL     1      45.630   5.802  12.902  0.00  0.00    +0.000 A 
ENDROOT
BRANCH   4   7
ATOM      7  C   UNL     1      44.216   3.665  10.130  0.00  0.00    +0.000 C 
ATOM      8  N   UNL     1      43.916   4.638   9.213  0.00  0.00    +0.000 N 
ATOM      9  O   UNL     1      43.911   2.504   9.900  0.00  0.00    +0.000 OA
ATOM     10  H   UNL     1      44.107   5.622   9.298  0.00  0.00    +0.000 HD
ATOM     11  H   UNL     1      43.440   4.327   8.374  0.00  0.00    +0.000 HD
ENDBRANCH   4   7
BRANCH   1  12
ATOM     12  N   UNL     1      46.906   5.197  14.884  0.00  0.00    +0.000 N 
ATOM     13  H   UNL     1      47.754   5.666  14.576  0.00  0.00    +0.000 HD
BRANCH  12  15
ATOM     14  C   UNL     1      48.005   4.595  16.968  0.00  0.00    +0.000 C 
ATOM     15  C   UNL     1      47.254   4.073  15.753  0.00  0.00    +0.000 C 
ENDBRANCH  12  15
ENDBRANCH   1  12
BRANCH   6  16
ATOM     16  N   UNL     1      45.802   7.162  13.245  0.00  0.00    +0.000 N 
ATOM     17  H   UNL     1      45.087   7.528  13.867  0.00  0.00    +0.000 HD
BRANCH  16  18
ATOM     18  C   UNL     1      46.789   8.020  12.840  0.00  0.00    +0.000 C 
ATOM     19  C   UNL     1      47.998   7.671  12.382  0.00  0.00    +0.000 C 
BRANCH  19  20
ATOM     20  C   UNL     1      48.921   8.675  11.854  0.00  0.00    +0.000 A 
ATOM     21  C   UNL     1      48.488   9.972  11.559  0.00  0.00    +0.000 A 
ATOM     22  C   UNL     1      49.375  10.900  11.009  0.00  0.00    +0.000 A 
ATOM     23  C   UNL     1      50.698  10.536  10.750  0.00  0.00    +0.000 A 
ATOM     24  C   UNL     1      51.130   9.246  11.053  0.00  0.00    +0.000 A 
ATOM     25 CL   UNL     1      52.759   8.792  10.735  0.00  0.00    +0.000 Cl
ATOM     26  C   UNL     1      50.251   8.316  11.604  0.00  0.00    +0.000 A 
ENDBRANCH  19  20
ENDBRANCH  16  18
ENDBRANCH   6  16
TORSDOF 6
ENDMDL
MODEL 7
REMARK VINA RESULT:    -6.190      1.946      2.695
REMARK INTER + INTRA:          -8.958
REMARK INTER:                  -8.181
REMARK INTRA:                  -0.776
REMARK UNBOUND:                -0.597
REMARK  Name = 
REMARK  7 active torsions:
REMARK  status: ('A' for Active; 'I' for Inactive)
REMARK    1  A    between atoms: C_1  and  C_2
REMARK    2  A    between atoms: C_2  and  N_3
REMARK    3  A    between atoms: N_3  and  C_4
REMARK    4  A    between atoms: C_7  and  C_8
REMARK    5  A    between atoms: C_12  and  N_13
REMARK    6  A    between atoms: N_13  and  C_14
REMARK    7  A    between atoms: C_15  and  C_16
REMARK                            x       y       z     vdW  Elec       q    Type
REMARK                         _______ _______ _______ _____ _____    ______ ____
ROOT
ATOM      1  C   UNL     1      45.791   9.625  12.440  0.00  0.00    +0.000 A 
ATOM      2  N   UNL     1      46.702  10.608  12.263  0.00  0.00    +0.000 NA
ATOM      3  C   UNL     1      48.010  10.256  12.207  0.00  0.00    +0.000 A 
ATOM      4  C   UNL     1      48.472   8.955  12.310  0.00  0.00    +0.000 A 
ATOM      5  C   UNL     1      47.522   7.951  12.511  0.00  0.00    +0.000 A 
ATOM      6  C   UNL     1      46.163   8.269  12.619  0.00  0.00    +0.000 A 
ENDROOT
BRANCH   4   7
ATOM      7  C   UNL     1      49.904   8.574  12.215  0.00  0.00    +0.000 C 
ATOM      8  N   UNL     1      50.233   7.305  11.817  0.00  0.00    +0.000 N 
ATOM      9  O   UNL     1      50.790   9.368  12.493  0.00  0.00    +0.000 OA
ATOM     10  H   UNL     1      49.592   6.567  11.576  0.00  0.00    +0.000 HD
ATOM     11  H   UNL     1      51.222   7.092  11.780  0.00  0.00    +0.000 HD
ENDBRANCH   4   7
BRANCH   1  12
ATOM     12  N   UNL     1      44.406   9.946  12.483  0.00  0.00    +0.000 N 
ATOM     13  H   UNL     1      43.909   9.079  12.665  0.00  0.00    +0.000 HD
BRANCH  12  15
ATOM     14  C   UNL     1      42.902   9.605  10.603  0.00  0.00    +0.000 C 
ATOM     15  C   UNL     1      43.923  10.538  11.235  0.00  0.00    +0.000 C 
ENDBRANCH  12  15
ENDBRANCH   1  12
BRANCH   6  16
ATOM     16  N   UNL     1      45.165   7.281  12.772  0.00  0.00    +0.000 N 
ATOM     17  H   UNL     1      44.509   7.465  13.527  0.00  0.00    +0.000 HD
BRANCH  16  18
ATOM     18  C   UNL     1      44.988   6.134  12.047  0.00  0.00    +0.000 C 
ATOM     19  C   UNL     1      45.013   6.034  10.711  0.00  0.00    +0.000 C 
BRANCH  19  20
ATOM     20  C   UNL     1      44.944   4.729  10.054  0.00  0.00    +0.000 A 
ATOM     21  C   UNL     1      44.325   3.638  10.672  0.00  0.00    +0.000 A 
ATOM     22  C   UNL     1      44.315   2.389  10.046  0.00  0.00    +0.000 A 
ATOM     23  C   UNL     1      44.924   2.226   8.800  0.00  0.00    +0.000 A 
ATOM     24  C   UNL     1      45.532   3.316   8.181  0.00  0.00    +0.000 A 
ATOM     25 CL   UNL     1      46.285   3.118   6.647  0.00  0.00    +0.000 Cl
ATOM     26  C   UNL     1      45.544   4.565   8.799  0.00  0.00    +0.000 A 
ENDBRANCH  19  20
ENDBRANCH  16  18
ENDBRANCH   6  16
TORSDOF 6
ENDMDL
MODEL 8
REMARK VINA RESULT:    -6.097      4.403      7.122
REMARK INTER + INTRA:          -8.833
REMARK INTER:                  -8.354
REMARK INTRA:                  -0.479
REMARK UNBOUND:                -0.597
REMARK  Name = 
REMARK  7 active torsions:
REMARK  status: ('A' for Active; 'I' for Inactive)
REMARK    1  A    between atoms: C_1  and  C_2
REMARK    2  A    between atoms: C_2  and  N_3
REMARK    3  A    between atoms: N_3  and  C_4
REMARK    4  A    between atoms: C_7  and  C_8
REMARK    5  A    between atoms: C_12  and  N_13
REMARK    6  A    between atoms: N_13  and  C_14
REMARK    7  A    between atoms: C_15  and  C_16
REMARK                            x       y       z     vdW  Elec       q    Type
REMARK                         _______ _______ _______ _____ _____    ______ ____
ROOT
ATOM      1  C   UNL     1      44.737   6.776  11.963  0.00  0.00    +0.000 A 
ATOM      2  N   UNL     1      43.511   6.509  11.460  0.00  0.00    +0.000 NA
ATOM      3  C   UNL     1      43.238   5.229  11.105  0.00  0.00    +0.000 A 
ATOM      4  C   UNL     1      44.129   4.177  11.234  0.00  0.00    +0.000 A 
ATOM      5  C   UNL     1      45.399   4.471  11.738  0.00  0.00    +0.000 A 
ATOM      6  C   UNL     1      45.744   5.784  12.077  0.00  0.00    +0.000 A 
ENDROOT
BRANCH   4   7
ATOM      7  C   UNL     1      43.812   2.772  10.873  0.00  0.00    +0.000 C 
ATOM      8  N   UNL     1      44.526   2.161   9.877  0.00  0.00    +0.000 N 
ATOM      9  O   UNL     1      42.923   2.158  11.443  0.00  0.00    +0.000 OA
ATOM     10  H   UNL     1      45.269   2.569   9.334  0.00  0.00    +0.000 HD
ATOM     11  H   UNL     1      44.263   1.206   9.662  0.00  0.00    +0.000 HD
ENDBRANCH   4   7
BRANCH   1  12
ATOM     12  N   UNL     1      45.059   8.101  12.369  0.00  0.00    +0.000 N 
ATOM     13  H   UNL     1      44.639   8.237  13.284  0.00  0.00    +0.000 HD
BRANCH  12  15
ATOM     14  C   UNL     1      45.278  10.429  11.703  0.00  0.00    +0.000 C 
ATOM     15  C   UNL     1      44.559   9.115  11.441  0.00  0.00    +0.000 C 
ENDBRANCH  12  15
ENDBRANCH   1  12
BRANCH   6  16
ATOM     16  N   UNL     1      46.998   6.117  12.637  0.00  0.00    +0.000 N 
ATOM     17  H   UNL     1      47.603   6.645  12.016  0.00  0.00    +0.000 HD
BRANCH  16  18
ATOM     18  C   UNL     1      47.479   5.812  13.882  0.00  0.00    +0.000 C 
ATOM     19  C   UNL     1      46.997   4.871  14.705  0.00  0.00    +0.000 C 
BRANCH  19  20
ATOM     20  C   UNL     1      47.680   4.547  15.957  0.00  0.00    +0.000 A 
ATOM     21  C   UNL     1      47.535   3.292  16.557  0.00  0.00    +0.000 A 
ATOM     22  C   UNL     1      48.158   3.023  17.778  0.00  0.00    +0.000 A 
ATOM     23  C   UNL     1      48.926   4.006  18.405  0.00  0.00    +0.000 A 
ATOM     24  C   UNL     1      49.076   5.253  17.801  0.00  0.00    +0.000 A 
ATOM     25 CL   UNL     1      50.019   6.468  18.572  0.00  0.00    +0.000 Cl
ATOM     26  C   UNL     1      48.459   5.528  16.582  0.00  0.00    +0.000 A 
ENDBRANCH  19  20
ENDBRANCH  16  18
ENDBRANCH   6  16
TORSDOF 6
ENDMDL
MODEL 9
REMARK VINA RESULT:    -6.001      3.701      6.167
REMARK INTER + INTRA:          -8.704
REMARK INTER:                  -8.053
REMARK INTRA:                  -0.650
REMARK UNBOUND:                -0.597
REMARK  Name = 
REMARK  7 active torsions:
REMARK  status: ('A' for Active; 'I' for Inactive)
REMARK    1  A    between atoms: C_1  and  C_2
REMARK    2  A    between atoms: C_2  and  N_3
REMARK    3  A    between atoms: N_3  and  C_4
REMARK    4  A    between atoms: C_7  and  C_8
REMARK    5  A    between atoms: C_12  and  N_13
REMARK    6  A    between atoms: N_13  and  C_14
REMARK    7  A    between atoms: C_15  and  C_16
REMARK                            x       y       z     vdW  Elec       q    Type
REMARK                         _______ _______ _______ _____ _____    ______ ____
ROOT
ATOM      1  C   UNL     1      44.473   6.967  12.153  0.00  0.00    +0.000 A 
ATOM      2  N   UNL     1      43.402   6.661  11.387  0.00  0.00    +0.000 NA
ATOM      3  C   UNL     1      43.228   5.364  11.032  0.00  0.00    +0.000 A 
ATOM      4  C   UNL     1      44.069   4.333  11.410  0.00  0.00    +0.000 A 
ATOM      5  C   UNL     1      45.182   4.666  12.186  0.00  0.00    +0.000 A 
ATOM      6  C   UNL     1      45.430   5.996  12.543  0.00  0.00    +0.000 A 
ENDROOT
BRANCH   4   7
ATOM      7  C   UNL     1      43.855   2.910  11.044  0.00  0.00    +0.000 C 
ATOM      8  N   UNL     1      44.650   2.340  10.085  0.00  0.00    +0.000 N 
ATOM      9  O   UNL     1      42.979   2.245  11.577  0.00  0.00    +0.000 OA
ATOM     10  H   UNL     1      45.390   2.790   9.573  0.00  0.00    +0.000 HD
ATOM     11  H   UNL     1      44.455   1.370   9.864  0.00  0.00    +0.000 HD
ENDBRANCH   4   7
BRANCH   1  12
ATOM     12  N   UNL     1      44.682   8.312  12.567  0.00  0.00    +0.000 N 
ATOM     13  H   UNL     1      43.938   8.536  13.222  0.00  0.00    +0.000 HD
BRANCH  12  15
ATOM     14  C   UNL     1      45.493  10.477  11.815  0.00  0.00    +0.000 C 
ATOM     15  C   UNL     1      44.659   9.259  11.453  0.00  0.00    +0.000 C 
ENDBRANCH  12  15
ENDBRANCH   1  12
BRANCH   6  16
ATOM     16  N   UNL     1      46.514   6.370  13.368  0.00  0.00    +0.000 N 
ATOM     17  H   UNL     1      46.402   6.112  14.344  0.00  0.00    +0.000 HD
BRANCH  16  18
ATOM     18  C   UNL     1      47.662   7.027  13.014  0.00  0.00    +0.000 C 
ATOM     19  C   UNL     1      47.995   7.423  11.779  0.00  0.00    +0.000 C 
BRANCH  19  20
ATOM     20  C   UNL     1      49.189   8.236  11.546  0.00  0.00    +0.000 A 
ATOM     21  C   UNL     1      49.117   9.632  11.506  0.00  0.00    +0.000 A 
ATOM     22  C   UNL     1      50.262  10.385  11.234  0.00  0.00    +0.000 A 
ATOM     23  C   UNL     1      51.482   9.747  10.999  0.00  0.00    +0.000 A 
ATOM     24  C   UNL     1      51.552   8.356  11.049  0.00  0.00    +0.000 A 
ATOM     25 CL   UNL     1      53.052   7.564  10.758  0.00  0.00    +0.000 Cl
ATOM     26  C   UNL     1      50.415   7.598  11.322  0.00  0.00    +0.000 A 
ENDBRANCH  19  20
ENDBRANCH  16  18
ENDBRANCH   6  16
TORSDOF 6
ENDMDL
