MODEL 1
REMARK VINA RESULT:    -7.814      0.000      0.000
REMARK INTER + INTRA:         -11.591
REMARK INTER:                 -10.555
REMARK INTRA:                  -1.036
REMARK UNBOUND:                -1.036
REMARK  Name = 
REMARK  7 active torsions:
REMARK  status: ('A' for Active; 'I' for Inactive)
REMARK    1  A    between atoms: C_1  and  N_2
REMARK    2  A    between atoms: N_2  and  C_3
REMARK    3  A    between atoms: C_3  and  C_4
REMARK    4  A    between atoms: C_7  and  C_8
REMARK    5  A    between atoms: C_8  and  N_9
REMARK    6  A    between atoms: N_9  and  C_10
REMARK    7  A    between atoms: C_18  and  C_20
REMARK                            x       y       z     vdW  Elec       q    Type
REMARK                         _______ _______ _______ _____ _____    ______ ____
ROOT
ATOM      1  C   UNL     1      47.377   7.357  13.868  0.00  0.00    +0.000 C 
ENDROOT
BRANCH   1   2
ATOM      2  C   UNL     1      46.548   6.496  12.983  0.00  0.00    +0.000 A 
ATOM      3  C   UNL     1      46.147   6.993  11.734  0.00  0.00    +0.000 A 
ATOM      4  C   UNL     1      45.445   6.178  10.862  0.00  0.00    +0.000 A 
ATOM      5  C   UNL     1      45.131   4.865  11.231  0.00  0.00    +0.000 A 
ATOM      6  C   UNL     1      45.508   4.389  12.496  0.00  0.00    +0.000 A 
ATOM      7  C   UNL     1      46.209   5.202  13.375  0.00  0.00    +0.000 A 
BRANCH   5   8
ATOM      8  C   UNL     1      44.377   3.946  10.305  0.00  0.00    +0.000 C 
BRANCH   8   9
ATOM      9  N   UNL     1      44.527   4.338   8.908  0.00  0.00    +0.000 NA
ATOM     10  H   UNL     1      45.125   5.162   8.860  0.00  0.00    +0.000 HD
BRANCH   9  11
ATOM     11  C   UNL     1      45.076   3.270   8.061  0.00  0.00    +0.000 C 
ATOM     12  C   UNL     1      45.561   2.040   8.853  0.00  0.00    +0.000 C 
ATOM     13  C   UNL     1      46.251   1.017   7.956  0.00  0.00    +0.000 C 
ATOM     14  C   UNL     1      47.413   1.653   7.206  0.00  0.00    +0.000 C 
ATOM     15  C   UNL     1      46.940   2.841   6.375  0.00  0.00    +0.000 C 
ATOM     16  C   UNL     1      46.225   3.880   7.238  0.00  0.00    +0.000 C 
ENDBRANCH   9  11
ENDBRANCH   8   9
ENDBRANCH   5   8
ENDBRANCH   1   2
BRANCH   1  18
ATOM     17  C   UNL     1      49.469   6.951  12.511  0.00  0.00    +0.000 C 
ATOM     18  N   UNL     1      48.829   7.185  13.792  0.00  0.00    +0.000 N 
ATOM     19  C   UNL     1      49.684   7.736  14.777  0.00  0.00    +0.000 C 
ATOM     20  O   UNL     1      50.868   7.923  14.559  0.00  0.00    +0.000 OA
BRANCH  19  21
ATOM     21  C   UNL     1      49.103   8.038  16.089  0.00  0.00    +0.000 A 
ATOM     22  C   UNL     1      48.764   9.315  16.514  0.00  0.00    +0.000 A 
ATOM     23  S   UNL     1      48.028   9.369  18.044  0.00  0.00    +0.000 S 
ATOM     24  C   UNL     1      48.075   7.673  18.166  0.00  0.00    +0.000 A 
ATOM     25  N   UNL     1      47.497   7.041  19.218  0.00  0.00    +0.000 NA
ATOM     26  C   UNL     1      47.557   5.752  19.151  0.00  0.00    +0.000 A 
ATOM     27  N   UNL     1      48.184   5.047  18.156  0.00  0.00    +0.000 N 
ATOM     28  C   UNL     1      48.896   5.643  17.137  0.00  0.00    +0.000 A 
ATOM     29  O   UNL     1      49.627   4.993  16.415  0.00  0.00    +0.000 OA
ATOM     30  C   UNL     1      48.726   7.089  17.097  0.00  0.00    +0.000 A 
ATOM     31  H   UNL     1      48.230   4.037  18.185  0.00  0.00    +0.000 HD
ENDBRANCH  19  21
ENDBRANCH   1  18
TORSDOF 6
ENDMDL
MODEL 2
REMARK VINA RESULT:    -7.806      3.229      9.222
REMARK INTER + INTRA:         -11.580
REMARK INTER:                 -10.274
REMARK INTRA:                  -1.306
REMARK UNBOUND:                -1.036
REMARK  Name = 
REMARK  7 active torsions:
REMARK  status: ('A' for Active; 'I' for Inactive)
REMARK    1  A    between atoms: C_1  and  N_2
REMARK    2  A    between atoms: N_2  and  C_3
REMARK    3  A    between atoms: C_3  and  C_4
REMARK    4  A    between atoms: C_7  and  C_8
REMARK    5  A    between atoms: C_8  and  N_9
REMARK    6  A    between atoms: N_9  and  C_10
REMARK    7  A    between atoms: C_18  and  C_20
REMARK                            x       y       z     vdW  Elec       q    Type
REMARK                         _______ _______ _______ _____ _____    ______ ____
ROOT
ATOM      1  C   UNL     1      47.187   6.176  12.582  0.00  0.00    +0.000 C 
ENDROOT
BRANCH   1   2
ATOM      2  C   UNL     1      47.525   5.734  13.961  0.00  0.00    +0.000 A 
ATOM      3  C   UNL     1      48.408   6.510  14.726  0.00  0.00    +0.000 A 
ATOM      4  C   UNL     1      48.671   6.160  16.039  0.00  0.00    +0.000 A 
ATOM      5  C   UNL     1      48.063   5.030  16.598  0.00  0.00    +0.000 A 
ATOM      6  C   UNL     1      47.207   4.242  15.813  0.00  0.00    +0.000 A 
ATOM      7  C   UNL     1      46.942   4.586  14.497  0.00  0.00    +0.000 A 
BRANCH   5   8
ATOM      8  C   UNL     1      48.318   4.625  18.027  0.00  0.00    +0.000 C 
BRANCH   8   9
ATOM      9  N   UNL     1      47.297   5.140  18.931  0.00  0.00    +0.000 NA
ATOM     10  H   UNL     1      46.926   4.367  19.482  0.00  0.00    +0.000 HD
BRANCH   9  11
ATOM     11  C   UNL     1      47.790   6.200  19.822  0.00  0.00    +0.000 C 
ATOM     12  C   UNL     1      47.299   6.063  21.276  0.00  0.00    +0.000 C 
ATOM     13  C   UNL     1      47.714   7.254  22.135  0.00  0.00    +0.000 C 
ATOM     14  C   UNL     1      47.212   8.557  21.529  0.00  0.00    +0.000 C 
ATOM     15  C   UNL     1      47.732   8.733  20.106  0.00  0.00    +0.000 C 
ATOM     16  C   UNL     1      47.352   7.548  19.220  0.00  0.00    +0.000 C 
ENDBRANCH   9  11
ENDBRANCH   8   9
ENDBRANCH   5   8
ENDBRANCH   1   2
BRANCH   1  18
ATOM     17  C   UNL     1      46.378   8.567  12.475  0.00  0.00    +0.000 C 
ATOM     18  N   UNL     1      46.097   7.143  12.442  0.00  0.00    +0.000 N 
ATOM     19  C   UNL     1      44.897   6.802  11.773  0.00  0.00    +0.000 C 
ATOM     20  O   UNL     1      44.150   7.657  11.332  0.00  0.00    +0.000 OA
BRANCH  19  21
ATOM     21  C   UNL     1      44.562   5.379  11.663  0.00  0.00    +0.000 A 
ATOM     22  C   UNL     1      43.892   4.659  12.642  0.00  0.00    +0.000 A 
ATOM     23  S   UNL     1      43.556   3.049  12.218  0.00  0.00    +0.000 S 
ATOM     24  C   UNL     1      44.239   3.275  10.677  0.00  0.00    +0.000 A 
ATOM     25  N   UNL     1      44.184   2.288   9.747  0.00  0.00    +0.000 NA
ATOM     26  C   UNL     1      44.689   2.618   8.604  0.00  0.00    +0.000 A 
ATOM     27  N   UNL     1      45.284   3.823   8.328  0.00  0.00    +0.000 N 
ATOM     28  C   UNL     1      45.480   4.807   9.274  0.00  0.00    +0.000 A 
ATOM     29  O   UNL     1      46.211   5.753   9.056  0.00  0.00    +0.000 OA
ATOM     30  C   UNL     1      44.795   4.531  10.529  0.00  0.00    +0.000 A 
ATOM     31  H   UNL     1      45.697   4.002   7.422  0.00  0.00    +0.000 HD
ENDBRANCH  19  21
ENDBRANCH   1  18
TORSDOF 6
ENDMDL
MODEL 3
REMARK VINA RESULT:    -7.698      3.637      8.490
REMARK INTER + INTRA:         -11.435
REMARK INTER:                 -10.111
REMARK INTRA:                  -1.324
REMARK UNBOUND:                -1.036
REMARK  Name = 
REMARK  7 active torsions:
REMARK  status: ('A' for Active; 'I' for Inactive)
REMARK    1  A    between atoms: C_1  and  N_2
REMARK    2  A    between atoms: N_2  and  C_3
REMARK    3  A    between atoms: C_3  and  C_4
REMARK    4  A    between atoms: C_7  and  C_8
REMARK    5  A    between atoms: C_8  and  N_9
REMARK    6  A    between atoms: N_9  and  C_10
REMARK    7  A    between atoms: C_18  and  C_20
REMARK                            x       y       z     vdW  Elec       q    Type
REMARK                         _______ _______ _______ _____ _____    ______ ____
ROOT
ATOM      1  C   UNL     1      47.166   6.218  12.624  0.00  0.00    +0.000 C 
ENDROOT
BRANCH   1   2
ATOM      2  C   UNL     1      47.495   5.798  14.012  0.00  0.00    +0.000 A 
ATOM      3  C   UNL     1      46.911   4.630  14.524  0.00  0.00    +0.000 A 
ATOM      4  C   UNL     1      47.266   4.177  15.783  0.00  0.00    +0.000 A 
ATOM      5  C   UNL     1      48.201   4.888  16.544  0.00  0.00    +0.000 A 
ATOM      6  C   UNL     1      48.754   6.073  16.036  0.00  0.00    +0.000 A 
ATOM      7  C   UNL     1      48.400   6.533  14.776  0.00  0.00    +0.000 A 
BRANCH   5   8
ATOM      8  C   UNL     1      48.619   4.420  17.915  0.00  0.00    +0.000 C 
BRANCH   8   9
ATOM      9  N   UNL     1      49.052   3.028  17.907  0.00  0.00    +0.000 NA
ATOM     10  H   UNL     1      48.440   2.497  17.288  0.00  0.00    +0.000 HD
BRANCH   9  11
ATOM     11  C   UNL     1      50.452   2.856  17.497  0.00  0.00    +0.000 C 
ATOM     12  C   UNL     1      50.987   1.426  17.710  0.00  0.00    +0.000 C 
ATOM     13  C   UNL     1      52.478   1.322  17.405  0.00  0.00    +0.000 C 
ATOM     14  C   UNL     1      53.271   2.314  18.246  0.00  0.00    +0.000 C 
ATOM     15  C   UNL     1      52.788   3.740  18.007  0.00  0.00    +0.000 C 
ATOM     16  C   UNL     1      51.292   3.878  18.283  0.00  0.00    +0.000 C 
ENDBRANCH   9  11
ENDBRANCH   8   9
ENDBRANCH   5   8
ENDBRANCH   1   2
BRANCH   1  18
ATOM     17  C   UNL     1      46.382   8.615  12.481  0.00  0.00    +0.000 C 
ATOM     18  N   UNL     1      46.087   7.194  12.462  0.00  0.00    +0.000 N 
ATOM     19  C   UNL     1      44.890   6.856  11.787  0.00  0.00    +0.000 C 
ATOM     20  O   UNL     1      44.155   7.713  11.329  0.00  0.00    +0.000 OA
BRANCH  19  21
ATOM     21  C   UNL     1      44.541   5.435  11.691  0.00  0.00    +0.000 A 
ATOM     22  C   UNL     1      43.863   4.733  12.676  0.00  0.00    +0.000 A 
ATOM     23  S   UNL     1      43.512   3.121  12.268  0.00  0.00    +0.000 S 
ATOM     24  C   UNL     1      44.200   3.324  10.727  0.00  0.00    +0.000 A 
ATOM     25  N   UNL     1      44.138   2.328   9.807  0.00  0.00    +0.000 NA
ATOM     26  C   UNL     1      44.648   2.641   8.662  0.00  0.00    +0.000 A 
ATOM     27  N   UNL     1      45.255   3.837   8.374  0.00  0.00    +0.000 N 
ATOM     28  C   UNL     1      45.458   4.829   9.310  0.00  0.00    +0.000 A 
ATOM     29  O   UNL     1      46.199   5.766   9.084  0.00  0.00    +0.000 OA
ATOM     30  C   UNL     1      44.769   4.573  10.567  0.00  0.00    +0.000 A 
ATOM     31  H   UNL     1      45.672   4.003   7.467  0.00  0.00    +0.000 HD
ENDBRANCH  19  21
ENDBRANCH   1  18
TORSDOF 6
ENDMDL
MODEL 4
REMARK VINA RESULT:    -7.695      1.356      2.098
REMARK INTER + INTRA:         -11.431
REMARK INTER:                 -10.315
REMARK INTRA:                  -1.116
REMARK UNBOUND:                -1.036
REMARK  Name = 
REMARK  7 active torsions:
REMARK  status: ('A' for Active; 'I' for Inactive)
REMARK    1  A    between atoms: C_1  and  N_2
REMARK    2  A    between atoms: N_2  and  C_3
REMARK    3  A    between atoms: C_3  and  C_4
REMARK    4  A    between atoms: C_7  and  C_8
REMARK    5  A    between atoms: C_8  and  N_9
REMARK    6  A    between atoms: N_9  and  C_10
REMARK    7  A    between atoms: C_18  and  C_20
REMARK                            x       y       z     vdW  Elec       q    Type
REMARK                         _______ _______ _______ _____ _____    ______ ____
ROOT
ATOM      1  C   UNL     1      47.256   6.771  14.121  0.00  0.00    +0.000 C 
ENDROOT
BRANCH   1   2
ATOM      2  C   UNL     1      46.536   5.987  13.082  0.00  0.00    +0.000 A 
ATOM      3  C   UNL     1      46.187   4.656  13.356  0.00  0.00    +0.000 A 
ATOM      4  C   UNL     1      45.446   3.935  12.435  0.00  0.00    +0.000 A 
ATOM      5  C   UNL     1      45.052   4.533  11.232  0.00  0.00    +0.000 A 
ATOM      6  C   UNL     1      45.436   5.853  10.954  0.00  0.00    +0.000 A 
ATOM      7  C   UNL     1      46.181   6.579  11.871  0.00  0.00    +0.000 A 
BRANCH   5   8
ATOM      8  C   UNL     1      44.237   3.782  10.211  0.00  0.00    +0.000 C 
BRANCH   8   9
ATOM      9  N   UNL     1      44.497   4.250   8.854  0.00  0.00    +0.000 NA
ATOM     10  H   UNL     1      45.104   5.068   8.900  0.00  0.00    +0.000 HD
BRANCH   9  11
ATOM     11  C   UNL     1      45.099   3.225   7.991  0.00  0.00    +0.000 C 
ATOM     12  C   UNL     1      45.608   1.991   8.759  0.00  0.00    +0.000 C 
ATOM     13  C   UNL     1      46.350   1.016   7.850  0.00  0.00    +0.000 C 
ATOM     14  C   UNL     1      47.505   1.711   7.142  0.00  0.00    +0.000 C 
ATOM     15  C   UNL     1      47.010   2.905   6.334  0.00  0.00    +0.000 C 
ATOM     16  C   UNL     1      46.243   3.895   7.209  0.00  0.00    +0.000 C 
ENDBRANCH   9  11
ENDBRANCH   8   9
ENDBRANCH   5   8
ENDBRANCH   1   2
BRANCH   1  18
ATOM     17  C   UNL     1      49.440   7.288  12.961  0.00  0.00    +0.000 C 
ATOM     18  N   UNL     1      48.719   6.729  14.090  0.00  0.00    +0.000 N 
ATOM     19  C   UNL     1      49.474   6.657  15.284  0.00  0.00    +0.000 C 
ATOM     20  O   UNL     1      50.649   6.980  15.315  0.00  0.00    +0.000 OA
BRANCH  19  21
ATOM     21  C   UNL     1      48.804   6.139  16.482  0.00  0.00    +0.000 A 
ATOM     22  C   UNL     1      48.573   4.792  16.723  0.00  0.00    +0.000 A 
ATOM     23  S   UNL     1      47.857   4.465  18.228  0.00  0.00    +0.000 S 
ATOM     24  C   UNL     1      47.889   6.114  18.642  0.00  0.00    +0.000 A 
ATOM     25  N   UNL     1      47.504   6.523  19.877  0.00  0.00    +0.000 NA
ATOM     26  C   UNL     1      47.637   7.793  20.073  0.00  0.00    +0.000 A 
ATOM     27  N   UNL     1      48.071   8.691  19.130  0.00  0.00    +0.000 N 
ATOM     28  C   UNL     1      48.350   8.345  17.825  0.00  0.00    +0.000 A 
ATOM     29  O   UNL     1      48.502   9.193  16.968  0.00  0.00    +0.000 OA
ATOM     30  C   UNL     1      48.354   6.905  17.609  0.00  0.00    +0.000 A 
ATOM     31  H   UNL     1      48.112   9.680  19.337  0.00  0.00    +0.000 HD
ENDBRANCH  19  21
ENDBRANCH   1  18
TORSDOF 6
ENDMDL
MODEL 5
REMARK VINA RESULT:    -7.066      3.580      8.655
REMARK INTER + INTRA:         -10.580
REMARK INTER:                  -8.998
REMARK INTRA:                  -1.582
REMARK UNBOUND:                -1.036
REMARK  Name = 
REMARK  7 active torsions:
REMARK  status: ('A' for Active; 'I' for Inactive)
REMARK    1  A    between atoms: C_1  and  N_2
REMARK    2  A    between atoms: N_2  and  C_3
REMARK    3  A    between atoms: C_3  and  C_4
REMARK    4  A    between atoms: C_7  and  C_8
REMARK    5  A    between atoms: C_8  and  N_9
REMARK    6  A    between atoms: N_9  and  C_10
REMARK    7  A    between atoms: C_18  and  C_20
REMARK                            x       y       z     vdW  Elec       q    Type
REMARK                         _______ _______ _______ _____ _____    ______ ____
ROOT
ATOM      1  C   UNL     1      47.275   6.678  12.473  0.00  0.00    +0.000 C 
ENDROOT
BRANCH   1   2
ATOM      2  C   UNL     1      47.542   5.996  13.767  0.00  0.00    +0.000 A 
ATOM      3  C   UNL     1      48.453   6.575  14.664  0.00  0.00    +0.000 A 
ATOM      4  C   UNL     1      48.654   6.001  15.907  0.00  0.00    +0.000 A 
ATOM      5  C   UNL     1      47.955   4.842  16.264  0.00  0.00    +0.000 A 
ATOM      6  C   UNL     1      47.072   4.253  15.347  0.00  0.00    +0.000 A 
ATOM      7  C   UNL     1      46.869   4.822  14.099  0.00  0.00    +0.000 A 
BRANCH   5   8
ATOM      8  C   UNL     1      48.142   4.195  17.613  0.00  0.00    +0.000 C 
BRANCH   8   9
ATOM      9  N   UNL     1      47.099   4.586  18.554  0.00  0.00    +0.000 NA
ATOM     10  H   UNL     1      46.716   3.746  18.987  0.00  0.00    +0.000 HD
BRANCH   9  11
ATOM     11  C   UNL     1      47.569   5.515  19.590  0.00  0.00    +0.000 C 
ATOM     12  C   UNL     1      47.379   7.000  19.221  0.00  0.00    +0.000 C 
ATOM     13  C   UNL     1      48.005   7.931  20.255  0.00  0.00    +0.000 C 
ATOM     14  C   UNL     1      49.484   7.617  20.438  0.00  0.00    +0.000 C 
ATOM     15  C   UNL     1      49.685   6.165  20.855  0.00  0.00    +0.000 C 
ATOM     16  C   UNL     1      49.053   5.201  19.852  0.00  0.00    +0.000 C 
ENDBRANCH   9  11
ENDBRANCH   8   9
ENDBRANCH   5   8
ENDBRANCH   1   2
BRANCH   1  18
ATOM     17  C   UNL     1      46.205   8.917  12.943  0.00  0.00    +0.000 C 
ATOM     18  N   UNL     1      46.114   7.568  12.417  0.00  0.00    +0.000 N 
ATOM     19  C   UNL     1      45.102   7.389  11.445  0.00  0.00    +0.000 C 
ATOM     20  O   UNL     1      44.341   8.293  11.144  0.00  0.00    +0.000 OA
BRANCH  19  21
ATOM     21  C   UNL     1      44.970   6.062  10.835  0.00  0.00    +0.000 A 
ATOM     22  C   UNL     1      45.510   5.714   9.606  0.00  0.00    +0.000 A 
ATOM     23  S   UNL     1      45.282   4.085   9.179  0.00  0.00    +0.000 S 
ATOM     24  C   UNL     1      44.506   3.769  10.659  0.00  0.00    +0.000 A 
ATOM     25  N   UNL     1      44.137   2.506  10.989  0.00  0.00    +0.000 NA
ATOM     26  C   UNL     1      43.614   2.404  12.165  0.00  0.00    +0.000 A 
ATOM     27  N   UNL     1      43.383   3.455  13.015  0.00  0.00    +0.000 N 
ATOM     28  C   UNL     1      43.621   4.770  12.676  0.00  0.00    +0.000 A 
ATOM     29  O   UNL     1      43.191   5.683  13.354  0.00  0.00    +0.000 OA
ATOM     30  C   UNL     1      44.345   4.910  11.421  0.00  0.00    +0.000 A 
ATOM     31  H   UNL     1      42.931   3.311  13.908  0.00  0.00    +0.000 HD
ENDBRANCH  19  21
ENDBRANCH   1  18
TORSDOF 6
ENDMDL
MODEL 6
REMARK VINA RESULT:    -7.046      2.284      3.319
REMARK INTER + INTRA:         -10.554
REMARK INTER:                  -9.540
REMARK INTRA:                  -1.014
REMARK UNBOUND:                -1.036
REMARK  Name = 
REMARK  7 active torsions:
REMARK  status: ('A' for Active; 'I' for Inactive)
REMARK    1  A    between atoms: C_1  and  N_2
REMARK    2  A    between atoms: N_2  and  C_3
REMARK    3  A    between atoms: C_3  and  C_4
REMARK    4  A    between atoms: C_7  and  C_8
REMARK    5  A    between atoms: C_8  and  N_9
REMARK    6  A    between atoms: N_9  and  C_10
REMARK    7  A    between atoms: C_18  and  C_20
REMARK                            x       y       z     vdW  Elec       q    Type
REMARK                         _______ _______ _______ _____ _____    ______ ____
ROOT
ATOM      1  C   UNL     1      49.276   6.700  14.909  0.00  0.00    +0.000 C 
ENDROOT
BRANCH   1   2
ATOM      2  C   UNL     1      48.130   6.635  13.963  0.00  0.00    +0.000 A 
ATOM      3  C   UNL     1      47.885   7.728  13.118  0.00  0.00    +0.000 A 
ATOM      4  C   UNL     1      46.874   7.655  12.175  0.00  0.00    +0.000 A 
ATOM      5  C   UNL     1      46.096   6.496  12.071  0.00  0.00    +0.000 A 
ATOM      6  C   UNL     1      46.328   5.422  12.944  0.00  0.00    +0.000 A 
ATOM      7  C   UNL     1      47.337   5.491  13.893  0.00  0.00    +0.000 A 
BRANCH   5   8
ATOM      8  C   UNL     1      44.994   6.377  11.049  0.00  0.00    +0.000 C 
BRANCH   8   9
ATOM      9  N   UNL     1      44.262   5.123  11.181  0.00  0.00    +0.000 NA
ATOM     10  H   UNL     1      43.291   5.332  11.412  0.00  0.00    +0.000 HD
BRANCH   9  11
ATOM     11  C   UNL     1      44.321   4.285   9.975  0.00  0.00    +0.000 C 
ATOM     12  C   UNL     1      44.422   2.777  10.275  0.00  0.00    +0.000 C 
ATOM     13  C   UNL     1      44.623   1.953   9.006  0.00  0.00    +0.000 C 
ATOM     14  C   UNL     1      45.856   2.425   8.247  0.00  0.00    +0.000 C 
ATOM     15  C   UNL     1      45.748   3.905   7.897  0.00  0.00    +0.000 C 
ATOM     16  C   UNL     1      45.526   4.761   9.143  0.00  0.00    +0.000 C 
ENDBRANCH   9  11
ENDBRANCH   8   9
ENDBRANCH   5   8
ENDBRANCH   1   2
BRANCH   1  18
ATOM     17  C   UNL     1      48.952   8.894  16.119  0.00  0.00    +0.000 C 
ATOM     18  N   UNL     1      49.071   7.448  16.151  0.00  0.00    +0.000 N 
ATOM     19  C   UNL     1      48.476   6.841  17.282  0.00  0.00    +0.000 C 
ATOM     20  O   UNL     1      47.973   7.505  18.171  0.00  0.00    +0.000 OA
BRANCH  19  21
ATOM     21  C   UNL     1      48.520   5.377  17.369  0.00  0.00    +0.000 A 
ATOM     22  C   UNL     1      47.412   4.555  17.224  0.00  0.00    +0.000 A 
ATOM     23  S   UNL     1      47.762   2.894  17.284  0.00  0.00    +0.000 S 
ATOM     24  C   UNL     1      49.425   3.214  17.442  0.00  0.00    +0.000 A 
ATOM     25  N   UNL     1      50.325   2.199  17.443  0.00  0.00    +0.000 NA
ATOM     26  C   UNL     1      51.554   2.590  17.510  0.00  0.00    +0.000 A 
ATOM     27  N   UNL     1      51.957   3.897  17.625  0.00  0.00    +0.000 N 
ATOM     28  C   UNL     1      51.079   4.951  17.758  0.00  0.00    +0.000 A 
ATOM     29  O   UNL     1      51.466   6.055  18.091  0.00  0.00    +0.000 OA
ATOM     30  C   UNL     1      49.692   4.565  17.540  0.00  0.00    +0.000 A 
ATOM     31  H   UNL     1      52.936   4.132  17.714  0.00  0.00    +0.000 HD
ENDBRANCH  19  21
ENDBRANCH   1  18
TORSDOF 6
ENDMDL
MODEL 7
REMARK VINA RESULT:    -6.754      2.026      3.104
REMARK INTER + INTRA:         -10.160
REMARK INTER:                 -10.109
REMARK INTRA:                  -0.050
REMARK UNBOUND:                -1.036
REMARK  Name = 
REMARK  7 active torsions:
REMARK  status: ('A' for Active; 'I' for Inactive)
REMARK    1  A    between atoms: C_1  and  N_2
REMARK    2  A    between atoms: N_2  and  C_3
REMARK    3  A    between atoms: C_3  and  C_4
REMARK    4  A    between atoms: C_7  and  C_8
REMARK    5  A    between atoms: C_8  and  N_9
REMARK    6  A    between atoms: N_9  and  C_10
REMARK    7  A    between atoms: C_18  and  C_20
REMARK                            x       y       z     vdW  Elec       q    Type
REMARK                         _______ _______ _______ _____ _____    ______ ____
ROOT
ATOM      1  C   UNL     1      47.355   7.121  13.666  0.00  0.00    +0.000 C 
ENDROOT
BRANCH   1   2
ATOM      2  C   UNL     1      46.558   6.272  12.741  0.00  0.00    +0.000 A 
ATOM      3  C   UNL     1      45.697   5.304  13.279  0.00  0.00    +0.000 A 
ATOM      4  C   UNL     1      44.886   4.560  12.439  0.00  0.00    +0.000 A 
ATOM      5  C   UNL     1      44.932   4.770  11.056  0.00  0.00    +0.000 A 
ATOM      6  C   UNL     1      45.821   5.718  10.526  0.00  0.00    +0.000 A 
ATOM      7  C   UNL     1      46.637   6.464  11.363  0.00  0.00    +0.000 A 
BRANCH   5   8
ATOM      8  C   UNL     1      44.057   3.986  10.112  0.00  0.00    +0.000 C 
BRANCH   8   9
ATOM      9  N   UNL     1      44.315   4.328   8.718  0.00  0.00    +0.000 NA
ATOM     10  H   UNL     1      44.908   5.157   8.688  0.00  0.00    +0.000 HD
BRANCH   9  11
ATOM     11  C   UNL     1      44.939   3.237   7.957  0.00  0.00    +0.000 C 
ATOM     12  C   UNL     1      45.448   2.081   8.840  0.00  0.00    +0.000 C 
ATOM     13  C   UNL     1      46.212   1.037   8.031  0.00  0.00    +0.000 C 
ATOM     14  C   UNL     1      47.372   1.679   7.281  0.00  0.00    +0.000 C 
ATOM     15  C   UNL     1      46.878   2.791   6.363  0.00  0.00    +0.000 C 
ATOM     16  C   UNL     1      46.089   3.847   7.135  0.00  0.00    +0.000 C 
ENDBRANCH   9  11
ENDBRANCH   8   9
ENDBRANCH   5   8
ENDBRANCH   1   2
BRANCH   1  18
ATOM     17  C   UNL     1      47.635   5.084  15.134  0.00  0.00    +0.000 C 
ATOM     18  N   UNL     1      47.995   6.450  14.799  0.00  0.00    +0.000 N 
ATOM     19  C   UNL     1      49.276   6.841  15.253  0.00  0.00    +0.000 C 
ATOM     20  O   UNL     1      49.969   6.097  15.925  0.00  0.00    +0.000 OA
BRANCH  19  21
ATOM     21  C   UNL     1      49.730   8.196  14.921  0.00  0.00    +0.000 A 
ATOM     22  C   UNL     1      50.585   8.494  13.869  0.00  0.00    +0.000 A 
ATOM     23  S   UNL     1      50.878  10.154  13.657  0.00  0.00    +0.000 S 
ATOM     24  C   UNL     1      49.817  10.540  14.929  0.00  0.00    +0.000 A 
ATOM     25  N   UNL     1      49.525  11.834  15.214  0.00  0.00    +0.000 NA
ATOM     26  C   UNL     1      48.661  11.978  16.163  0.00  0.00    +0.000 A 
ATOM     27  N   UNL     1      48.105  10.950  16.881  0.00  0.00    +0.000 N 
ATOM     28  C   UNL     1      48.465   9.629  16.716  0.00  0.00    +0.000 A 
ATOM     29  O   UNL     1      48.130   8.780  17.520  0.00  0.00    +0.000 OA
ATOM     30  C   UNL     1      49.323   9.415  15.560  0.00  0.00    +0.000 A 
ATOM     31  H   UNL     1      47.463  11.134  17.640  0.00  0.00    +0.000 HD
ENDBRANCH  19  21
ENDBRANCH   1  18
TORSDOF 6
ENDMDL
MODEL 8
REMARK VINA RESULT:    -6.569      4.050      7.782
REMARK INTER + INTRA:          -9.910
REMARK INTER:                  -8.957
REMARK INTRA:                  -0.953
REMARK UNBOUND:                -1.036
REMARK  Name = 
REMARK  7 active torsions:
REMARK  status: ('A' for Active; 'I' for Inactive)
REMARK    1  A    between atoms: C_1  and  N_2
REMARK    2  A    between atoms: N_2  and  C_3
REMARK    3  A    between atoms: C_3  and  C_4
REMARK    4  A    between atoms: C_7  and  C_8
REMARK    5  A    between atoms: C_8  and  N_9
REMARK    6  A    between atoms: N_9  and  C_10
REMARK    7  A    between atoms: C_18  and  C_20
REMARK                            x       y       z     vdW  Elec       q    Type
REMARK                         _______ _______ _______ _____ _____    ______ ____
ROOT
ATOM      1  C   UNL     1      46.376   6.381  13.178  0.00  0.00    +0.000 C 
ENDROOT
BRANCH   1   2
ATOM      2  C   UNL     1      47.753   6.875  12.911  0.00  0.00    +0.000 A 
ATOM      3  C   UNL     1      48.119   7.189  11.594  0.00  0.00    +0.000 A 
ATOM      4  C   UNL     1      49.368   7.727  11.336  0.00  0.00    +0.000 A 
ATOM      5  C   UNL     1      50.265   7.950  12.388  0.00  0.00    +0.000 A 
ATOM      6  C   UNL     1      49.901   7.601  13.697  0.00  0.00    +0.000 A 
ATOM      7  C   UNL     1      48.652   7.059  13.961  0.00  0.00    +0.000 A 
BRANCH   5   8
ATOM      8  C   UNL     1      51.629   8.543  12.146  0.00  0.00    +0.000 C 
BRANCH   8   9
ATOM      9  N   UNL     1      51.761   9.074  10.794  0.00  0.00    +0.000 NA
ATOM     10  H   UNL     1      51.930  10.078  10.850  0.00  0.00    +0.000 HD
BRANCH   9  11
ATOM     11  C   UNL     1      52.829   8.428  10.017  0.00  0.00    +0.000 C 
ATOM     12  C   UNL     1      52.959   8.967   8.579  0.00  0.00    +0.000 C 
ATOM     13  C   UNL     1      53.979   8.179   7.763  0.00  0.00    +0.000 C 
ATOM     14  C   UNL     1      53.624   6.698   7.742  0.00  0.00    +0.000 C 
ATOM     15  C   UNL     1      53.542   6.137   9.157  0.00  0.00    +0.000 C 
ATOM     16  C   UNL     1      52.544   6.915  10.012  0.00  0.00    +0.000 C 
ENDBRANCH   9  11
ENDBRANCH   8   9
ENDBRANCH   5   8
ENDBRANCH   1   2
BRANCH   1  18
ATOM     17  C   UNL     1      45.369   8.661  12.764  0.00  0.00    +0.000 C 
ATOM     18  N   UNL     1      45.268   7.214  12.705  0.00  0.00    +0.000 N 
ATOM     19  C   UNL     1      44.350   6.733  11.742  0.00  0.00    +0.000 C 
ATOM     20  O   UNL     1      43.665   7.493  11.080  0.00  0.00    +0.000 OA
BRANCH  19  21
ATOM     21  C   UNL     1      44.218   5.280  11.595  0.00  0.00    +0.000 A 
ATOM     22  C   UNL     1      43.541   4.465  12.490  0.00  0.00    +0.000 A 
ATOM     23  S   UNL     1      43.470   2.831  12.031  0.00  0.00    +0.000 S 
ATOM     24  C   UNL     1      44.289   3.166  10.579  0.00  0.00    +0.000 A 
ATOM     25  N   UNL     1      44.471   2.195   9.649  0.00  0.00    +0.000 NA
ATOM     26  C   UNL     1      45.055   2.605   8.572  0.00  0.00    +0.000 A 
ATOM     27  N   UNL     1      45.515   3.880   8.365  0.00  0.00    +0.000 N 
ATOM     28  C   UNL     1      45.470   4.867   9.327  0.00  0.00    +0.000 A 
ATOM     29  O   UNL     1      46.091   5.904   9.195  0.00  0.00    +0.000 OA
ATOM     30  C   UNL     1      44.689   4.486  10.495  0.00  0.00    +0.000 A 
ATOM     31  H   UNL     1      46.001   4.125   7.513  0.00  0.00    +0.000 HD
ENDBRANCH  19  21
ENDBRANCH   1  18
TORSDOF 6
ENDMDL
MODEL 9
REMARK VINA RESULT:    -6.463      2.323      3.698
REMARK INTER + INTRA:          -9.766
REMARK INTER:                  -8.895
REMARK INTRA:                  -0.871
REMARK UNBOUND:                -1.036
REMARK  Name = 
REMARK  7 active torsions:
REMARK  status: ('A' for Active; 'I' for Inactive)
REMARK    1  A    between atoms: C_1  and  N_2
REMARK    2  A    between atoms: N_2  and  C_3
REMARK    3  A    between atoms: C_3  and  C_4
REMARK    4  A    between atoms: C_7  and  C_8
REMARK    5  A    between atoms: C_8  and  N_9
REMARK    6  A    between atoms: N_9  and  C_10
REMARK    7  A    between atoms: C_18  and  C_20
REMARK                            x       y       z     vdW  Elec       q    Type
REMARK                         _______ _______ _______ _____ _____    ______ ____
ROOT
ATOM      1  C   UNL     1      49.341   7.864  15.431  0.00  0.00    +0.000 C 
ENDROOT
BRANCH   1   2
ATOM      2  C   UNL     1      48.295   7.598  14.407  0.00  0.00    +0.000 A 
ATOM      3  C   UNL     1      48.038   6.272  14.028  0.00  0.00    +0.000 A 
ATOM      4  C   UNL     1      47.014   5.997  13.137  0.00  0.00    +0.000 A 
ATOM      5  C   UNL     1      46.244   7.042  12.613  0.00  0.00    +0.000 A 
ATOM      6  C   UNL     1      46.532   8.367  12.974  0.00  0.00    +0.000 A 
ATOM      7  C   UNL     1      47.558   8.648  13.863  0.00  0.00    +0.000 A 
BRANCH   5   8
ATOM      8  C   UNL     1      45.115   6.779  11.650  0.00  0.00    +0.000 C 
BRANCH   8   9
ATOM      9  N   UNL     1      44.619   5.412  11.750  0.00  0.00    +0.000 NA
ATOM     10  H   UNL     1      43.600   5.429  11.714  0.00  0.00    +0.000 HD
BRANCH   9  11
ATOM     11  C   UNL     1      45.143   4.525  10.703  0.00  0.00    +0.000 C 
ATOM     12  C   UNL     1      45.523   5.260   9.403  0.00  0.00    +0.000 C 
ATOM     13  C   UNL     1      45.929   4.293   8.295  0.00  0.00    +0.000 C 
ATOM     14  C   UNL     1      44.820   3.284   8.027  0.00  0.00    +0.000 C 
ATOM     15  C   UNL     1      44.468   2.511   9.293  0.00  0.00    +0.000 C 
ATOM     16  C   UNL     1      44.075   3.449  10.432  0.00  0.00    +0.000 C 
ENDBRANCH   9  11
ENDBRANCH   8   9
ENDBRANCH   5   8
ENDBRANCH   1   2
BRANCH   1  18
ATOM     17  C   UNL     1      47.861   9.144  17.028  0.00  0.00    +0.000 C 
ATOM     18  N   UNL     1      48.882   8.140  16.794  0.00  0.00    +0.000 N 
ATOM     19  C   UNL     1      48.983   7.163  17.812  0.00  0.00    +0.000 C 
ATOM     20  O   UNL     1      48.302   7.223  18.821  0.00  0.00    +0.000 OA
BRANCH  19  21
ATOM     21  C   UNL     1      49.967   6.091  17.630  0.00  0.00    +0.000 A 
ATOM     22  C   UNL     1      51.333   6.249  17.812  0.00  0.00    +0.000 A 
ATOM     23  S   UNL     1      52.233   4.822  17.621  0.00  0.00    +0.000 S 
ATOM     24  C   UNL     1      50.816   3.921  17.351  0.00  0.00    +0.000 A 
ATOM     25  N   UNL     1      50.870   2.573  17.215  0.00  0.00    +0.000 NA
ATOM     26  C   UNL     1      49.715   2.014  17.074  0.00  0.00    +0.000 A 
ATOM     27  N   UNL     1      48.521   2.686  17.009  0.00  0.00    +0.000 N 
ATOM     28  C   UNL     1      48.424   4.062  17.012  0.00  0.00    +0.000 A 
ATOM     29  O   UNL     1      47.385   4.620  16.719  0.00  0.00    +0.000 OA
ATOM     30  C   UNL     1      49.688   4.718  17.316  0.00  0.00    +0.000 A 
ATOM     31  H   UNL     1      47.653   2.189  16.857  0.00  0.00    +0.000 HD
ENDBRANCH  19  21
ENDBRANCH   1  18
TORSDOF 6
ENDMDL
