MODEL 1
REMARK VINA RESULT:    -8.177      0.000      0.000
REMARK INTER + INTRA:         -12.420
REMARK INTER:                 -11.523
REMARK INTRA:                  -0.897
REMARK UNBOUND:                -0.897
REMARK  Name = 
REMARK  9 active torsions:
REMARK  status: ('A' for Active; 'I' for Inactive)
REMARK    1  A    between atoms: C_1  and  O_2
REMARK    2  A    between atoms: O_2  and  C_3
REMARK    3  A    between atoms: C_5  and  C_6
REMARK    4  A    between atoms: C_6  and  C_7
REMARK    5  A    between atoms: C_7  and  N_8
REMARK    6  A    between atoms: C_12  and  C_13
REMARK    7  A    between atoms: C_21  and  O_22
REMARK    8  A    between atoms: O_22  and  C_23
REMARK    9  A    between atoms: N_25  and  C_26
REMARK                            x       y       z     vdW  Elec       q    Type
REMARK                         _______ _______ _______ _____ _____    ______ ____
ROOT
ATOM      1  C   UNL     1      46.875   4.838  13.878  0.00  0.00    +0.000 A 
ATOM      2  C   UNL     1      45.557   4.488  13.510  0.00  0.00    +0.000 A 
ATOM      3  C   UNL     1      44.740   5.391  12.821  0.00  0.00    +0.000 A 
ATOM      4  C   UNL     1      45.285   6.649  12.522  0.00  0.00    +0.000 A 
ATOM      5  C   UNL     1      46.580   7.026  12.907  0.00  0.00    +0.000 A 
ATOM      6 CL   UNL     1      46.972   8.675  12.559  0.00  0.00    +0.000 Cl
ATOM      7  C   UNL     1      47.402   6.122  13.578  0.00  0.00    +0.000 A 
ENDROOT
BRANCH   1   9
ATOM      8  C   UNL     1      47.358   3.811  15.976  0.00  0.00    +0.000 C 
ATOM      9  O   UNL     1      47.694   4.007  14.607  0.00  0.00    +0.000 OA
ENDBRANCH   1   9
BRANCH   3  10
ATOM     10  C   UNL     1      43.296   5.023  12.467  0.00  0.00    +0.000 C 
BRANCH  10  11
ATOM     11  C   UNL     1      43.182   4.352  11.093  0.00  0.00    +0.000 C 
BRANCH  11  12
ATOM     12  N   UNL     1      43.915   5.001  10.003  0.00  0.00    +0.000 N 
ATOM     13  C   UNL     1      44.693   4.030   9.315  0.00  0.00    +0.000 A 
ATOM     14  C   UNL     1      45.493   4.421   8.250  0.00  0.00    +0.000 A 
ATOM     15  C   UNL     1      46.279   3.468   7.593  0.00  0.00    +0.000 A 
ATOM     16  C   UNL     1      46.257   2.135   8.013  0.00  0.00    +0.000 A 
ATOM     17  C   UNL     1      45.418   1.825   9.061  0.00  0.00    +0.000 A 
ATOM     18  N   UNL     1      44.643   2.733   9.706  0.00  0.00    +0.000 NA
ATOM     19  H   UNL     1      44.552   5.720  10.339  0.00  0.00    +0.000 HD
BRANCH  16  20
ATOM     20  C   UNL     1      47.122   1.133   7.342  0.00  0.00    +0.000 C 
ATOM     21  N   UNL     1      48.106   1.561   6.492  0.00  0.00    +0.000 N 
ATOM     22  O   UNL     1      46.957  -0.067   7.528  0.00  0.00    +0.000 OA
ATOM     23  H   UNL     1      48.312   2.518   6.246  0.00  0.00    +0.000 HD
ATOM     24  H   UNL     1      48.653   0.842   6.041  0.00  0.00    +0.000 HD
ENDBRANCH  16  20
ENDBRANCH  11  12
ENDBRANCH  10  11
ENDBRANCH   3  10
BRANCH   7  25
ATOM     25  O   UNL     1      48.676   6.359  14.058  0.00  0.00    +0.000 OA
BRANCH  25  26
ATOM     26  C   UNL     1      48.907   7.183  15.226  0.00  0.00    +0.000 C 
ATOM     27  C   UNL     1      49.924   8.341  15.136  0.00  0.00    +0.000 C 
ATOM     28  N   UNL     1      50.704   7.779  16.253  0.00  0.00    +0.000 NA
ATOM     29  C   UNL     1      50.529   8.577  17.464  0.00  0.00    +0.000 C 
ATOM     30  C   UNL     1      49.852   6.579  16.288  0.00  0.00    +0.000 C 
ENDBRANCH  25  26
ENDBRANCH   7  25
TORSDOF 7
ENDMDL
MODEL 2
REMARK VINA RESULT:    -7.931      1.695      2.530
REMARK INTER + INTRA:         -12.074
REMARK INTER:                 -10.971
REMARK INTRA:                  -1.103
REMARK UNBOUND:                -0.897
REMARK  Name = 
REMARK  9 active torsions:
REMARK  status: ('A' for Active; 'I' for Inactive)
REMARK    1  A    between atoms: C_1  and  O_2
REMARK    2  A    between atoms: O_2  and  C_3
REMARK    3  A    between atoms: C_5  and  C_6
REMARK    4  A    between atoms: C_6  and  C_7
REMARK    5  A    between atoms: C_7  and  N_8
REMARK    6  A    between atoms: C_12  and  C_13
REMARK    7  A    between atoms: C_21  and  O_22
REMARK    8  A    between atoms: O_22  and  C_23
REMARK    9  A    between atoms: N_25  and  C_26
REMARK                            x       y       z     vdW  Elec       q    Type
REMARK                         _______ _______ _______ _____ _____    ______ ____
ROOT
ATOM      1  C   UNL     1      47.276   6.913  12.112  0.00  0.00    +0.000 A 
ATOM      2  C   UNL     1      45.960   6.813  11.612  0.00  0.00    +0.000 A 
ATOM      3  C   UNL     1      45.026   5.964  12.216  0.00  0.00    +0.000 A 
ATOM      4  C   UNL     1      45.457   5.221  13.325  0.00  0.00    +0.000 A 
ATOM      5  C   UNL     1      46.770   5.283  13.816  0.00  0.00    +0.000 A 
ATOM      6 CL   UNL     1      47.103   4.166  15.094  0.00  0.00    +0.000 Cl
ATOM      7  C   UNL     1      47.697   6.142  13.227  0.00  0.00    +0.000 A 
ENDROOT
BRANCH   1   9
ATOM      8  C   UNL     1      48.208   9.085  11.789  0.00  0.00    +0.000 C 
ATOM      9  O   UNL     1      48.245   7.689  11.517  0.00  0.00    +0.000 OA
ENDBRANCH   1   9
BRANCH   3  10
ATOM     10  C   UNL     1      43.614   5.823  11.639  0.00  0.00    +0.000 C 
BRANCH  10  11
ATOM     11  C   UNL     1      43.603   5.111  10.282  0.00  0.00    +0.000 C 
BRANCH  11  12
ATOM     12  N   UNL     1      43.840   3.665  10.317  0.00  0.00    +0.000 N 
ATOM     13  C   UNL     1      44.806   3.323   9.333  0.00  0.00    +0.000 A 
ATOM     14  C   UNL     1      45.175   1.994   9.167  0.00  0.00    +0.000 A 
ATOM     15  C   UNL     1      46.106   1.657   8.178  0.00  0.00    +0.000 A 
ATOM     16  C   UNL     1      46.654   2.653   7.365  0.00  0.00    +0.000 A 
ATOM     17  C   UNL     1      46.254   3.949   7.611  0.00  0.00    +0.000 A 
ATOM     18  N   UNL     1      45.358   4.296   8.569  0.00  0.00    +0.000 NA
ATOM     19  H   UNL     1      42.997   3.130  10.117  0.00  0.00    +0.000 HD
BRANCH  16  20
ATOM     20  C   UNL     1      47.611   2.289   6.291  0.00  0.00    +0.000 C 
ATOM     21  N   UNL     1      47.745   3.114   5.207  0.00  0.00    +0.000 N 
ATOM     22  O   UNL     1      48.268   1.257   6.356  0.00  0.00    +0.000 OA
ATOM     23  H   UNL     1      47.238   3.970   5.039  0.00  0.00    +0.000 HD
ATOM     24  H   UNL     1      48.391   2.813   4.491  0.00  0.00    +0.000 HD
ENDBRANCH  16  20
ENDBRANCH  11  12
ENDBRANCH  10  11
ENDBRANCH   3  10
BRANCH   7  25
ATOM     25  O   UNL     1      49.029   6.282  13.568  0.00  0.00    +0.000 OA
BRANCH  25  26
ATOM     26  C   UNL     1      49.435   6.954  14.785  0.00  0.00    +0.000 C 
ATOM     27  C   UNL     1      48.627   8.176  15.271  0.00  0.00    +0.000 C 
ATOM     28  N   UNL     1      49.834   9.021  15.241  0.00  0.00    +0.000 NA
ATOM     29  C   UNL     1      50.300   9.312  16.594  0.00  0.00    +0.000 C 
ATOM     30  C   UNL     1      50.621   7.934  14.638  0.00  0.00    +0.000 C 
ENDBRANCH  25  26
ENDBRANCH   7  25
TORSDOF 7
ENDMDL
MODEL 3
REMARK VINA RESULT:    -7.446      1.885      2.354
REMARK INTER + INTRA:         -11.389
REMARK INTER:                 -10.546
REMARK INTRA:                  -0.843
REMARK UNBOUND:                -0.897
REMARK  Name = 
REMARK  9 active torsions:
REMARK  status: ('A' for Active; 'I' for Inactive)
REMARK    1  A    between atoms: C_1  and  O_2
REMARK    2  A    between atoms: O_2  and  C_3
REMARK    3  A    between atoms: C_5  and  C_6
REMARK    4  A    between atoms: C_6  and  C_7
REMARK    5  A    between atoms: C_7  and  N_8
REMARK    6  A    between atoms: C_12  and  C_13
REMARK    7  A    between atoms: C_21  and  O_22
REMARK    8  A    between atoms: O_22  and  C_23
REMARK    9  A    between atoms: N_25  and  C_26
REMARK                            x       y       z     vdW  Elec       q    Type
REMARK                         _______ _______ _______ _____ _____    ______ ____
ROOT
ATOM      1  C   UNL     1      46.824   5.687  13.718  0.00  0.00    +0.000 A 
ATOM      2  C   UNL     1      45.585   5.198  13.249  0.00  0.00    +0.000 A 
ATOM      3  C   UNL     1      44.715   6.022  12.528  0.00  0.00    +0.000 A 
ATOM      4  C   UNL     1      45.125   7.345  12.302  0.00  0.00    +0.000 A 
ATOM      5  C   UNL     1      46.336   7.858  12.788  0.00  0.00    +0.000 A 
ATOM      6 CL   UNL     1      46.552   9.552  12.512  0.00  0.00    +0.000 Cl
ATOM      7  C   UNL     1      47.213   7.033  13.491  0.00  0.00    +0.000 A 
ENDROOT
BRANCH   1   9
ATOM      8  C   UNL     1      47.347   3.563  14.670  0.00  0.00    +0.000 C 
ATOM      9  O   UNL     1      47.686   4.932  14.481  0.00  0.00    +0.000 OA
ENDBRANCH   1   9
BRANCH   3  10
ATOM     10  C   UNL     1      43.352   5.500  12.064  0.00  0.00    +0.000 C 
BRANCH  10  11
ATOM     11  C   UNL     1      43.405   4.892  10.657  0.00  0.00    +0.000 C 
BRANCH  11  12
ATOM     12  N   UNL     1      43.744   3.468  10.590  0.00  0.00    +0.000 N 
ATOM     13  C   UNL     1      44.670   3.254   9.533  0.00  0.00    +0.000 A 
ATOM     14  C   UNL     1      45.120   1.968   9.265  0.00  0.00    +0.000 A 
ATOM     15  C   UNL     1      46.010   1.757   8.205  0.00  0.00    +0.000 A 
ATOM     16  C   UNL     1      46.437   2.836   7.426  0.00  0.00    +0.000 A 
ATOM     17  C   UNL     1      45.963   4.083   7.773  0.00  0.00    +0.000 A 
ATOM     18  N   UNL     1      45.105   4.308   8.801  0.00  0.00    +0.000 NA
ATOM     19  H   UNL     1      42.930   2.885  10.404  0.00  0.00    +0.000 HD
BRANCH  16  20
ATOM     20  C   UNL     1      47.349   2.606   6.279  0.00  0.00    +0.000 C 
ATOM     21  N   UNL     1      48.550   1.984   6.494  0.00  0.00    +0.000 N 
ATOM     22  O   UNL     1      47.048   2.975   5.150  0.00  0.00    +0.000 OA
ATOM     23  H   UNL     1      48.910   1.664   7.380  0.00  0.00    +0.000 HD
ATOM     24  H   UNL     1      49.147   1.870   5.687  0.00  0.00    +0.000 HD
ENDBRANCH  16  20
ENDBRANCH  11  12
ENDBRANCH  10  11
ENDBRANCH   3  10
BRANCH   7  25
ATOM     25  O   UNL     1      48.415   7.400  14.065  0.00  0.00    +0.000 OA
BRANCH  25  26
ATOM     26  C   UNL     1      49.627   7.521  13.280  0.00  0.00    +0.000 C 
ATOM     27  C   UNL     1      50.248   8.918  13.073  0.00  0.00    +0.000 C 
ATOM     28  N   UNL     1      50.159   8.771  11.609  0.00  0.00    +0.000 NA
ATOM     29  C   UNL     1      51.480   8.552  11.026  0.00  0.00    +0.000 C 
ATOM     30  C   UNL     1      49.430   7.500  11.748  0.00  0.00    +0.000 C 
ENDBRANCH  25  26
ENDBRANCH   7  25
TORSDOF 7
ENDMDL
MODEL 4
REMARK VINA RESULT:    -6.201      2.063      3.173
REMARK INTER + INTRA:          -9.635
REMARK INTER:                  -9.015
REMARK INTRA:                  -0.620
REMARK UNBOUND:                -0.897
REMARK  Name = 
REMARK  9 active torsions:
REMARK  status: ('A' for Active; 'I' for Inactive)
REMARK    1  A    between atoms: C_1  and  O_2
REMARK    2  A    between atoms: O_2  and  C_3
REMARK    3  A    between atoms: C_5  and  C_6
REMARK    4  A    between atoms: C_6  and  C_7
REMARK    5  A    between atoms: C_7  and  N_8
REMARK    6  A    between atoms: C_12  and  C_13
REMARK    7  A    between atoms: C_21  and  O_22
REMARK    8  A    between atoms: O_22  and  C_23
REMARK    9  A    between atoms: N_25  and  C_26
REMARK                            x       y       z     vdW  Elec       q    Type
REMARK                         _______ _______ _______ _____ _____    ______ ____
ROOT
ATOM      1  C   UNL     1      47.680   6.119  13.973  0.00  0.00    +0.000 A 
ATOM      2  C   UNL     1      46.646   6.778  13.272  0.00  0.00    +0.000 A 
ATOM      3  C   UNL     1      46.547   8.173  13.282  0.00  0.00    +0.000 A 
ATOM      4  C   UNL     1      47.510   8.879  14.019  0.00  0.00    +0.000 A 
ATOM      5  C   UNL     1      48.525   8.242  14.748  0.00  0.00    +0.000 A 
ATOM      6 CL   UNL     1      49.498   9.313  15.696  0.00  0.00    +0.000 Cl
ATOM      7  C   UNL     1      48.636   6.852  14.724  0.00  0.00    +0.000 A 
ENDROOT
BRANCH   1   9
ATOM      8  C   UNL     1      46.728   3.994  13.458  0.00  0.00    +0.000 C 
ATOM      9  O   UNL     1      47.784   4.749  14.040  0.00  0.00    +0.000 OA
ENDBRANCH   1   9
BRANCH   3  10
ATOM     10  C   UNL     1      45.395   8.878  12.560  0.00  0.00    +0.000 C 
BRANCH  10  11
ATOM     11  C   UNL     1      44.784   8.016  11.449  0.00  0.00    +0.000 C 
BRANCH  11  12
ATOM     12  N   UNL     1      43.876   6.954  11.891  0.00  0.00    +0.000 N 
ATOM     13  C   UNL     1      44.186   5.752  11.197  0.00  0.00    +0.000 A 
ATOM     14  C   UNL     1      43.436   4.608  11.439  0.00  0.00    +0.000 A 
ATOM     15  C   UNL     1      43.724   3.435  10.734  0.00  0.00    +0.000 A 
ATOM     16  C   UNL     1      44.758   3.420   9.793  0.00  0.00    +0.000 A 
ATOM     17  C   UNL     1      45.470   4.590   9.631  0.00  0.00    +0.000 A 
ATOM     18  N   UNL     1      45.209   5.736  10.310  0.00  0.00    +0.000 NA
ATOM     19  H   UNL     1      42.901   7.174  11.700  0.00  0.00    +0.000 HD
BRANCH  16  20
ATOM     20  C   UNL     1      45.037   2.187   9.018  0.00  0.00    +0.000 C 
ATOM     21  N   UNL     1      46.140   2.141   8.208  0.00  0.00    +0.000 N 
ATOM     22  O   UNL     1      44.289   1.219   9.084  0.00  0.00    +0.000 OA
ATOM     23  H   UNL     1      46.805   2.884   8.058  0.00  0.00    +0.000 HD
ATOM     24  H   UNL     1      46.275   1.289   7.683  0.00  0.00    +0.000 HD
ENDBRANCH  16  20
ENDBRANCH  11  12
ENDBRANCH  10  11
ENDBRANCH   3  10
BRANCH   7  25
ATOM     25  O   UNL     1      49.550   6.082  15.419  0.00  0.00    +0.000 OA
BRANCH  25  26
ATOM     26  C   UNL     1      49.502   5.965  16.863  0.00  0.00    +0.000 C 
ATOM     27  C   UNL     1      50.361   4.886  17.554  0.00  0.00    +0.000 C 
ATOM     28  N   UNL     1      49.164   4.291  18.175  0.00  0.00    +0.000 NA
ATOM     29  C   UNL     1      49.119   4.583  19.606  0.00  0.00    +0.000 C 
ATOM     30  C   UNL     1      48.283   5.202  17.426  0.00  0.00    +0.000 C 
ENDBRANCH  25  26
ENDBRANCH   7  25
TORSDOF 7
ENDMDL
MODEL 5
REMARK VINA RESULT:    -6.137      2.586      8.272
REMARK INTER + INTRA:          -9.546
REMARK INTER:                  -8.675
REMARK INTRA:                  -0.870
REMARK UNBOUND:                -0.897
REMARK  Name = 
REMARK  9 active torsions:
REMARK  status: ('A' for Active; 'I' for Inactive)
REMARK    1  A    between atoms: C_1  and  O_2
REMARK    2  A    between atoms: O_2  and  C_3
REMARK    3  A    between atoms: C_5  and  C_6
REMARK    4  A    between atoms: C_6  and  C_7
REMARK    5  A    between atoms: C_7  and  N_8
REMARK    6  A    between atoms: C_12  and  C_13
REMARK    7  A    between atoms: C_21  and  O_22
REMARK    8  A    between atoms: O_22  and  C_23
REMARK    9  A    between atoms: N_25  and  C_26
REMARK                            x       y       z     vdW  Elec       q    Type
REMARK                         _______ _______ _______ _____ _____    ______ ____
ROOT
ATOM      1  C   UNL     1      46.150   5.653  13.391  0.00  0.00    +0.000 A 
ATOM      2  C   UNL     1      47.414   6.264  13.542  0.00  0.00    +0.000 A 
ATOM      3  C   UNL     1      47.672   7.525  12.993  0.00  0.00    +0.000 A 
ATOM      4  C   UNL     1      46.629   8.143  12.288  0.00  0.00    +0.000 A 
ATOM      5  C   UNL     1      45.377   7.538  12.099  0.00  0.00    +0.000 A 
ATOM      6 CL   UNL     1      44.307   8.426  11.071  0.00  0.00    +0.000 Cl
ATOM      7  C   UNL     1      45.112   6.290  12.661  0.00  0.00    +0.000 A 
ENDROOT
BRANCH   1   9
ATOM      8  C   UNL     1      46.889   3.410  13.723  0.00  0.00    +0.000 C 
ATOM      9  O   UNL     1      45.868   4.391  13.862  0.00  0.00    +0.000 OA
ENDBRANCH   1   9
BRANCH   3  10
ATOM     10  C   UNL     1      49.060   8.161  13.119  0.00  0.00    +0.000 C 
BRANCH  10  11
ATOM     11  C   UNL     1      49.799   7.709  14.385  0.00  0.00    +0.000 C 
BRANCH  11  12
ATOM     12  N   UNL     1      49.356   8.327  15.637  0.00  0.00    +0.000 N 
ATOM     13  C   UNL     1      49.218   7.322  16.634  0.00  0.00    +0.000 A 
ATOM     14  C   UNL     1      48.785   7.673  17.906  0.00  0.00    +0.000 A 
ATOM     15  C   UNL     1      48.624   6.678  18.876  0.00  0.00    +0.000 A 
ATOM     16  C   UNL     1      48.895   5.344  18.561  0.00  0.00    +0.000 A 
ATOM     17  C   UNL     1      49.344   5.083  17.285  0.00  0.00    +0.000 A 
ATOM     18  N   UNL     1      49.513   6.035  16.332  0.00  0.00    +0.000 NA
ATOM     19  H   UNL     1      48.454   8.789  15.543  0.00  0.00    +0.000 HD
BRANCH  16  20
ATOM     20  C   UNL     1      48.685   4.285  19.579  0.00  0.00    +0.000 C 
ATOM     21  N   UNL     1      48.282   3.040  19.177  0.00  0.00    +0.000 N 
ATOM     22  O   UNL     1      48.853   4.515  20.771  0.00  0.00    +0.000 OA
ATOM     23  H   UNL     1      48.090   2.749  18.230  0.00  0.00    +0.000 HD
ATOM     24  H   UNL     1      48.130   2.360  19.907  0.00  0.00    +0.000 HD
ENDBRANCH  16  20
ENDBRANCH  11  12
ENDBRANCH  10  11
ENDBRANCH   3  10
BRANCH   7  25
ATOM     25  O   UNL     1      43.951   5.552  12.528  0.00  0.00    +0.000 OA
BRANCH  25  26
ATOM     26  C   UNL     1      43.723   4.693  11.384  0.00  0.00    +0.000 C 
ATOM     27  C   UNL     1      43.779   3.163  11.574  0.00  0.00    +0.000 C 
ATOM     28  N   UNL     1      44.838   3.048  10.555  0.00  0.00    +0.000 NA
ATOM     29  C   UNL     1      44.315   2.461   9.324  0.00  0.00    +0.000 C 
ATOM     30  C   UNL     1      44.931   4.512  10.439  0.00  0.00    +0.000 C 
ENDBRANCH  25  26
ENDBRANCH   7  25
TORSDOF 7
ENDMDL
MODEL 6
REMARK VINA RESULT:    -6.006      2.862      8.626
REMARK INTER + INTRA:          -9.361
REMARK INTER:                  -8.447
REMARK INTRA:                  -0.914
REMARK UNBOUND:                -0.897
REMARK  Name = 
REMARK  9 active torsions:
REMARK  status: ('A' for Active; 'I' for Inactive)
REMARK    1  A    between atoms: C_1  and  O_2
REMARK    2  A    between atoms: O_2  and  C_3
REMARK    3  A    between atoms: C_5  and  C_6
REMARK    4  A    between atoms: C_6  and  C_7
REMARK    5  A    between atoms: C_7  and  N_8
REMARK    6  A    between atoms: C_12  and  C_13
REMARK    7  A    between atoms: C_21  and  O_22
REMARK    8  A    between atoms: O_22  and  C_23
REMARK    9  A    between atoms: N_25  and  C_26
REMARK                            x       y       z     vdW  Elec       q    Type
REMARK                         _______ _______ _______ _____ _____    ______ ____
ROOT
ATOM      1  C   UNL     1      45.830   7.444  11.967  0.00  0.00    +0.000 A 
ATOM      2  C   UNL     1      47.082   8.066  12.170  0.00  0.00    +0.000 A 
ATOM      3  C   UNL     1      48.139   7.374  12.770  0.00  0.00    +0.000 A 
ATOM      4  C   UNL     1      47.897   6.048  13.161  0.00  0.00    +0.000 A 
ATOM      5  C   UNL     1      46.651   5.424  12.997  0.00  0.00    +0.000 A 
ATOM      6 CL   UNL     1      46.553   3.843  13.692  0.00  0.00    +0.000 Cl
ATOM      7  C   UNL     1      45.602   6.106  12.383  0.00  0.00    +0.000 A 
ENDROOT
BRANCH   1   9
ATOM      8  C   UNL     1      44.710   9.516  11.592  0.00  0.00    +0.000 C 
ATOM      9  O   UNL     1      44.745   8.103  11.435  0.00  0.00    +0.000 OA
ENDBRANCH   1   9
BRANCH   3  10
ATOM     10  C   UNL     1      49.478   8.069  13.031  0.00  0.00    +0.000 C 
BRANCH  10  11
ATOM     11  C   UNL     1      49.786   8.204  14.527  0.00  0.00    +0.000 C 
BRANCH  11  12
ATOM     12  N   UNL     1      50.771   7.260  15.064  0.00  0.00    +0.000 N 
ATOM     13  C   UNL     1      50.225   6.609  16.204  0.00  0.00    +0.000 A 
ATOM     14  C   UNL     1      50.992   5.680  16.895  0.00  0.00    +0.000 A 
ATOM     15  C   UNL     1      50.462   5.062  18.034  0.00  0.00    +0.000 A 
ATOM     16  C   UNL     1      49.172   5.382  18.467  0.00  0.00    +0.000 A 
ATOM     17  C   UNL     1      48.469   6.295  17.711  0.00  0.00    +0.000 A 
ATOM     18  N   UNL     1      48.963   6.900  16.601  0.00  0.00    +0.000 NA
ATOM     19  H   UNL     1      51.629   7.721  15.358  0.00  0.00    +0.000 HD
BRANCH  16  20
ATOM     20  C   UNL     1      48.627   4.756  19.697  0.00  0.00    +0.000 C 
ATOM     21  N   UNL     1      48.475   3.396  19.743  0.00  0.00    +0.000 N 
ATOM     22  O   UNL     1      48.301   5.438  20.660  0.00  0.00    +0.000 OA
ATOM     23  H   UNL     1      48.685   2.743  19.003  0.00  0.00    +0.000 HD
ATOM     24  H   UNL     1      48.079   3.018  20.592  0.00  0.00    +0.000 HD
ENDBRANCH  16  20
ENDBRANCH  11  12
ENDBRANCH  10  11
ENDBRANCH   3  10
BRANCH   7  25
ATOM     25  O   UNL     1      44.314   5.644  12.190  0.00  0.00    +0.000 OA
BRANCH  25  26
ATOM     26  C   UNL     1      43.984   4.748  11.101  0.00  0.00    +0.000 C 
ATOM     27  C   UNL     1      44.061   3.225  11.337  0.00  0.00    +0.000 C 
ATOM     28  N   UNL     1      45.022   3.075  10.229  0.00  0.00    +0.000 NA
ATOM     29  C   UNL     1      44.389   2.446   9.072  0.00  0.00    +0.000 C 
ATOM     30  C   UNL     1      45.100   4.534  10.056  0.00  0.00    +0.000 C 
ENDBRANCH  25  26
ENDBRANCH   7  25
TORSDOF 7
ENDMDL
MODEL 7
REMARK VINA RESULT:    -5.681      3.331      5.031
REMARK INTER + INTRA:          -8.903
REMARK INTER:                  -7.978
REMARK INTRA:                  -0.925
REMARK UNBOUND:                -0.897
REMARK  Name = 
REMARK  9 active torsions:
REMARK  status: ('A' for Active; 'I' for Inactive)
REMARK    1  A    between atoms: C_1  and  O_2
REMARK    2  A    between atoms: O_2  and  C_3
REMARK    3  A    between atoms: C_5  and  C_6
REMARK    4  A    between atoms: C_6  and  C_7
REMARK    5  A    between atoms: C_7  and  N_8
REMARK    6  A    between atoms: C_12  and  C_13
REMARK    7  A    between atoms: C_21  and  O_22
REMARK    8  A    between atoms: O_22  and  C_23
REMARK    9  A    between atoms: N_25  and  C_26
REMARK                            x       y       z     vdW  Elec       q    Type
REMARK                         _______ _______ _______ _____ _____    ______ ____
ROOT
ATOM      1  C   UNL     1      48.911   5.763  16.287  0.00  0.00    +0.000 A 
ATOM      2  C   UNL     1      48.482   6.574  15.214  0.00  0.00    +0.000 A 
ATOM      3  C   UNL     1      48.672   7.959  15.239  0.00  0.00    +0.000 A 
ATOM      4  C   UNL     1      49.297   8.500  16.374  0.00  0.00    +0.000 A 
ATOM      5  C   UNL     1      49.701   7.715  17.464  0.00  0.00    +0.000 A 
ATOM      6 CL   UNL     1      50.308   8.622  18.805  0.00  0.00    +0.000 Cl
ATOM      7  C   UNL     1      49.528   6.331  17.432  0.00  0.00    +0.000 A 
ENDROOT
BRANCH   1   9
ATOM      8  C   UNL     1      47.339   3.970  16.338  0.00  0.00    +0.000 C 
ATOM      9  O   UNL     1      48.694   4.405  16.333  0.00  0.00    +0.000 OA
ENDBRANCH   1   9
BRANCH   3  10
ATOM     10  C   UNL     1      48.161   8.838  14.094  0.00  0.00    +0.000 C 
BRANCH  10  11
ATOM     11  C   UNL     1      46.800   8.374  13.562  0.00  0.00    +0.000 C 
BRANCH  11  12
ATOM     12  N   UNL     1      46.752   8.042  12.135  0.00  0.00    +0.000 N 
ATOM     13  C   UNL     1      46.036   6.826  11.959  0.00  0.00    +0.000 A 
ATOM     14  C   UNL     1      45.881   6.301  10.683  0.00  0.00    +0.000 A 
ATOM     15  C   UNL     1      45.200   5.089  10.516  0.00  0.00    +0.000 A 
ATOM     16  C   UNL     1      44.686   4.417  11.629  0.00  0.00    +0.000 A 
ATOM     17  C   UNL     1      44.861   5.019  12.857  0.00  0.00    +0.000 A 
ATOM     18  N   UNL     1      45.512   6.196  13.038  0.00  0.00    +0.000 NA
ATOM     19  H   UNL     1      47.680   7.910  11.737  0.00  0.00    +0.000 HD
BRANCH  16  20
ATOM     20  C   UNL     1      44.000   3.114  11.454  0.00  0.00    +0.000 C 
ATOM     21  N   UNL     1      43.659   2.384  12.561  0.00  0.00    +0.000 N 
ATOM     22  O   UNL     1      43.747   2.679  10.337  0.00  0.00    +0.000 OA
ATOM     23  H   UNL     1      43.841   2.631  13.522  0.00  0.00    +0.000 HD
ATOM     24  H   UNL     1      43.215   1.493  12.392  0.00  0.00    +0.000 HD
ENDBRANCH  16  20
ENDBRANCH  11  12
ENDBRANCH  10  11
ENDBRANCH   3  10
BRANCH   7  25
ATOM     25  O   UNL     1      49.834   5.436  18.439  0.00  0.00    +0.000 OA
BRANCH  25  26
ATOM     26  C   UNL     1      48.915   5.174  19.528  0.00  0.00    +0.000 C 
ATOM     27  C   UNL     1      47.747   6.153  19.773  0.00  0.00    +0.000 C 
ATOM     28  N   UNL     1      48.202   6.394  21.154  0.00  0.00    +0.000 NA
ATOM     29  C   UNL     1      47.316   5.744  22.116  0.00  0.00    +0.000 C 
ATOM     30  C   UNL     1      49.414   5.588  20.930  0.00  0.00    +0.000 C 
ENDBRANCH  25  26
ENDBRANCH   7  25
TORSDOF 7
ENDMDL
MODEL 8
REMARK VINA RESULT:    -5.544      3.049      8.460
REMARK INTER + INTRA:          -8.710
REMARK INTER:                  -7.867
REMARK INTRA:                  -0.843
REMARK UNBOUND:                -0.897
REMARK  Name = 
REMARK  9 active torsions:
REMARK  status: ('A' for Active; 'I' for Inactive)
REMARK    1  A    between atoms: C_1  and  O_2
REMARK    2  A    between atoms: O_2  and  C_3
REMARK    3  A    between atoms: C_5  and  C_6
REMARK    4  A    between atoms: C_6  and  C_7
REMARK    5  A    between atoms: C_7  and  N_8
REMARK    6  A    between atoms: C_12  and  C_13
REMARK    7  A    between atoms: C_21  and  O_22
REMARK    8  A    between atoms: O_22  and  C_23
REMARK    9  A    between atoms: N_25  and  C_26
REMARK                            x       y       z     vdW  Elec       q    Type
REMARK                         _______ _______ _______ _____ _____    ______ ____
ROOT
ATOM      1  C   UNL     1      45.860   7.448  12.424  0.00  0.00    +0.000 A 
ATOM      2  C   UNL     1      46.793   8.216  13.154  0.00  0.00    +0.000 A 
ATOM      3  C   UNL     1      47.754   7.599  13.963  0.00  0.00    +0.000 A 
ATOM      4  C   UNL     1      47.741   6.197  14.018  0.00  0.00    +0.000 A 
ATOM      5  C   UNL     1      46.801   5.419  13.326  0.00  0.00    +0.000 A 
ATOM      6 CL   UNL     1      46.891   3.726  13.669  0.00  0.00    +0.000 Cl
ATOM      7  C   UNL     1      45.855   6.031  12.505  0.00  0.00    +0.000 A 
ENDROOT
BRANCH   1   9
ATOM      8  C   UNL     1      44.728   9.426  11.721  0.00  0.00    +0.000 C 
ATOM      9  O   UNL     1      44.861   8.011  11.663  0.00  0.00    +0.000 OA
ENDBRANCH   1   9
BRANCH   3  10
ATOM     10  C   UNL     1      48.732   8.438  14.790  0.00  0.00    +0.000 C 
BRANCH  10  11
ATOM     11  C   UNL     1      49.071   7.787  16.136  0.00  0.00    +0.000 C 
BRANCH  11  12
ATOM     12  N   UNL     1      50.494   7.745  16.485  0.00  0.00    +0.000 N 
ATOM     13  C   UNL     1      50.862   6.407  16.796  0.00  0.00    +0.000 A 
ATOM     14  C   UNL     1      52.167   6.127  17.179  0.00  0.00    +0.000 A 
ATOM     15  C   UNL     1      52.520   4.814  17.512  0.00  0.00    +0.000 A 
ATOM     16  C   UNL     1      51.561   3.799  17.459  0.00  0.00    +0.000 A 
ATOM     17  C   UNL     1      50.296   4.156  17.045  0.00  0.00    +0.000 A 
ATOM     18  N   UNL     1      49.937   5.422  16.712  0.00  0.00    +0.000 NA
ATOM     19  H   UNL     1      50.710   8.318  17.298  0.00  0.00    +0.000 HD
BRANCH  16  20
ATOM     20  C   UNL     1      51.927   2.415  17.850  0.00  0.00    +0.000 C 
ATOM     21  N   UNL     1      51.060   1.392  17.577  0.00  0.00    +0.000 N 
ATOM     22  O   UNL     1      52.983   2.181  18.424  0.00  0.00    +0.000 OA
ATOM     23  H   UNL     1      50.156   1.473  17.135  0.00  0.00    +0.000 HD
ATOM     24  H   UNL     1      51.341   0.471  17.883  0.00  0.00    +0.000 HD
ENDBRANCH  16  20
ENDBRANCH  11  12
ENDBRANCH  10  11
ENDBRANCH   3  10
BRANCH   7  25
ATOM     25  O   UNL     1      44.844   5.407  11.798  0.00  0.00    +0.000 OA
BRANCH  25  26
ATOM     26  C   UNL     1      45.130   4.502  10.704  0.00  0.00    +0.000 C 
ATOM     27  C   UNL     1      45.821   5.052   9.439  0.00  0.00    +0.000 C 
ATOM     28  N   UNL     1      44.704   4.590   8.595  0.00  0.00    +0.000 NA
ATOM     29  C   UNL     1      45.096   3.428   7.801  0.00  0.00    +0.000 C 
ATOM     30  C   UNL     1      43.934   4.180   9.780  0.00  0.00    +0.000 C 
ENDBRANCH  25  26
ENDBRANCH   7  25
TORSDOF 7
ENDMDL
MODEL 9
REMARK VINA RESULT:    -5.393      3.570      5.416
REMARK INTER + INTRA:          -8.496
REMARK INTER:                  -7.660
REMARK INTRA:                  -0.836
REMARK UNBOUND:                -0.897
REMARK  Name = 
REMARK  9 active torsions:
REMARK  status: ('A' for Active; 'I' for Inactive)
REMARK    1  A    between atoms: C_1  and  O_2
REMARK    2  A    between atoms: O_2  and  C_3
REMARK    3  A    between atoms: C_5  and  C_6
REMARK    4  A    between atoms: C_6  and  C_7
REMARK    5  A    between atoms: C_7  and  N_8
REMARK    6  A    between atoms: C_12  and  C_13
REMARK    7  A    between atoms: C_21  and  O_22
REMARK    8  A    between atoms: O_22  and  C_23
REMARK    9  A    between atoms: N_25  and  C_26
REMARK                            x       y       z     vdW  Elec       q    Type
REMARK                         _______ _______ _______ _____ _____    ______ ____
ROOT
ATOM      1  C   UNL     1      48.909   7.163  18.014  0.00  0.00    +0.000 A 
ATOM      2  C   UNL     1      48.976   7.661  16.694  0.00  0.00    +0.000 A 
ATOM      3  C   UNL     1      48.690   6.837  15.601  0.00  0.00    +0.000 A 
ATOM      4  C   UNL     1      48.343   5.505  15.875  0.00  0.00    +0.000 A 
ATOM      5  C   UNL     1      48.303   4.984  17.176  0.00  0.00    +0.000 A 
ATOM      6 CL   UNL     1      47.997   3.283  17.251  0.00  0.00    +0.000 Cl
ATOM      7  C   UNL     1      48.570   5.809  18.269  0.00  0.00    +0.000 A 
ENDROOT
BRANCH   1   9
ATOM      8  C   UNL     1      50.529   8.518  19.123  0.00  0.00    +0.000 C 
ATOM      9  O   UNL     1      49.239   7.919  19.116  0.00  0.00    +0.000 OA
ENDBRANCH   1   9
BRANCH   3  10
ATOM     10  C   UNL     1      48.811   7.370  14.170  0.00  0.00    +0.000 C 
BRANCH  10  11
ATOM     11  C   UNL     1      47.478   7.896  13.625  0.00  0.00    +0.000 C 
BRANCH  11  12
ATOM     12  N   UNL     1      47.249   7.692  12.192  0.00  0.00    +0.000 N 
ATOM     13  C   UNL     1      46.408   6.560  12.007  0.00  0.00    +0.000 A 
ATOM     14  C   UNL     1      46.070   6.160  10.721  0.00  0.00    +0.000 A 
ATOM     15  C   UNL     1      45.265   5.029  10.542  0.00  0.00    +0.000 A 
ATOM     16  C   UNL     1      44.810   4.312  11.652  0.00  0.00    +0.000 A 
ATOM     17  C   UNL     1      45.170   4.789  12.893  0.00  0.00    +0.000 A 
ATOM     18  N   UNL     1      45.944   5.887  13.088  0.00  0.00    +0.000 NA
ATOM     19  H   UNL     1      48.113   7.516  11.683  0.00  0.00    +0.000 HD
BRANCH  16  20
ATOM     20  C   UNL     1      43.990   3.090  11.458  0.00  0.00    +0.000 C 
ATOM     21  N   UNL     1      43.638   2.342  12.548  0.00  0.00    +0.000 N 
ATOM     22  O   UNL     1      43.638   2.739  10.339  0.00  0.00    +0.000 OA
ATOM     23  H   UNL     1      43.894   2.522  13.508  0.00  0.00    +0.000 HD
ATOM     24  H   UNL     1      43.100   1.507  12.365  0.00  0.00    +0.000 HD
ENDBRANCH  16  20
ENDBRANCH  11  12
ENDBRANCH  10  11
ENDBRANCH   3  10
BRANCH   7  25
ATOM     25  O   UNL     1      48.612   5.434  19.598  0.00  0.00    +0.000 OA
BRANCH  25  26
ATOM     26  C   UNL     1      49.741   4.714  20.150  0.00  0.00    +0.000 C 
ATOM     27  C   UNL     1      50.525   5.338  21.323  0.00  0.00    +0.000 C 
ATOM     28  N   UNL     1      51.778   5.288  20.548  0.00  0.00    +0.000 NA
ATOM     29  C   UNL     1      52.663   4.242  21.054  0.00  0.00    +0.000 C 
ATOM     30  C   UNL     1      51.057   4.830  19.350  0.00  0.00    +0.000 C 
ENDBRANCH  25  26
ENDBRANCH   7  25
TORSDOF 7
ENDMDL
