MODEL 1
REMARK VINA RESULT:    -7.184      0.000      0.000
REMARK INTER + INTRA:         -10.761
REMARK INTER:                 -10.334
REMARK INTRA:                  -0.427
REMARK UNBOUND:                -0.427
REMARK  Name = 
REMARK  10 active torsions:
REMARK  status: ('A' for Active; 'I' for Inactive)
REMARK    1  A    between atoms: C_1  and  C_2
REMARK    2  A    between atoms: C_2  and  C_3
REMARK    3  A    between atoms: C_2  and  N_4
REMARK    4  A    between atoms: C_2  and  C_17
REMARK    5  A    between atoms: C_5  and  C_7
REMARK    6  A    between atoms: C_20  and  C_21
REMARK    7  A    between atoms: C_21  and  N_22
REMARK    8  A    between atoms: N_25  and  C_26
REMARK    9  A    between atoms: C_26  and  C_27
REMARK   10  A    between atoms: C_27  and  O_28
REMARK                            x       y       z     vdW  Elec       q    Type
REMARK                         _______ _______ _______ _____ _____    ______ ____
ROOT
ATOM      1  C   UNL     1      49.229   7.936  11.253  0.00  0.00    +0.000 C 
ATOM      2  C   UNL     1      47.953   7.946  12.143  0.00  0.00    +0.000 C 
ATOM      3  C   UNL     1      47.075   9.190  11.860  0.00  0.00    +0.000 C 
ENDROOT
BRANCH   2   4
ATOM      4  C   UNL     1      48.433   8.071  13.619  0.00  0.00    +0.000 A 
ATOM      5  C   UNL     1      49.659   7.453  13.966  0.00  0.00    +0.000 A 
ATOM      6  C   UNL     1      50.187   7.487  15.257  0.00  0.00    +0.000 A 
ATOM      7  C   UNL     1      49.547   8.196  16.269  0.00  0.00    +0.000 A 
ATOM      8  C   UNL     1      48.330   8.823  15.952  0.00  0.00    +0.000 A 
ATOM      9  C   UNL     1      47.775   8.759  14.649  0.00  0.00    +0.000 A 
BRANCH   7  10
ATOM     10  C   UNL     1      50.146   8.190  17.662  0.00  0.00    +0.000 C 
BRANCH  10  11
ATOM     11  N   UNL     1      50.070   6.983  18.494  0.00  0.00    +0.000 NA
ATOM     12  C   UNL     1      51.250   6.125  18.507  0.00  0.00    +0.000 C 
ATOM     13  C   UNL     1      51.302   5.049  17.396  0.00  0.00    +0.000 C 
ATOM     14  N   UNL     1      50.069   4.273  17.140  0.00  0.00    +0.000 NA
ATOM     15  C   UNL     1      48.859   5.100  17.283  0.00  0.00    +0.000 C 
ATOM     16  C   UNL     1      48.856   6.175  18.392  0.00  0.00    +0.000 C 
BRANCH  14  17
ATOM     17  C   UNL     1      50.042   3.002  17.880  0.00  0.00    +0.000 C 
BRANCH  17  18
ATOM     18  C   UNL     1      50.485   1.789  17.034  0.00  0.00    +0.000 C 
BRANCH  18  19
ATOM     19  O   UNL     1      49.629   1.622  15.905  0.00  0.00    +0.000 OA
ATOM     20  H   UNL     1      48.895   2.254  16.040  0.00  0.00    +0.000 HD
ENDBRANCH  18  19
ENDBRANCH  17  18
ENDBRANCH  14  17
ENDBRANCH  10  11
ENDBRANCH   7  10
ENDBRANCH   2   4
BRANCH   2  21
ATOM     21  N   UNL     1      47.147   6.734  11.836  0.00  0.00    +0.000 N 
ATOM     22  C   UNL     1      45.826   6.620  12.249  0.00  0.00    +0.000 C 
ATOM     23  O   UNL     1      45.235   7.521  12.843  0.00  0.00    +0.000 OA
ATOM     24  H   UNL     1      47.640   5.870  11.633  0.00  0.00    +0.000 HD
BRANCH  22  25
ATOM     25  C   UNL     1      45.087   5.389  11.940  0.00  0.00    +0.000 A 
ATOM     26  C   UNL     1      44.390   4.758  12.966  0.00  0.00    +0.000 A 
ATOM     27  S   UNL     1      43.630   3.308  12.493  0.00  0.00    +0.000 S 
ATOM     28  C   UNL     1      44.248   3.451  10.916  0.00  0.00    +0.000 A 
ATOM     29  N   UNL     1      44.022   2.476   9.996  0.00  0.00    +0.000 NA
ATOM     30  C   UNL     1      44.594   2.682   8.857  0.00  0.00    +0.000 A 
ATOM     31  N   UNL     1      45.348   3.782   8.549  0.00  0.00    +0.000 N 
ATOM     32  C   UNL     1      45.552   4.825   9.425  0.00  0.00    +0.000 A 
ATOM     33  O   UNL     1      46.143   5.849   9.099  0.00  0.00    +0.000 OA
ATOM     34  C   UNL     1      44.976   4.614  10.734  0.00  0.00    +0.000 A 
ATOM     35  H   UNL     1      45.749   3.892   7.629  0.00  0.00    +0.000 HD
ENDBRANCH  22  25
ENDBRANCH   2  21
TORSDOF 8
ENDMDL
MODEL 2
REMARK VINA RESULT:    -7.140      2.710      8.363
REMARK INTER + INTRA:         -10.697
REMARK INTER:                 -11.005
REMARK INTRA:                   0.308
REMARK UNBOUND:                -0.427
REMARK  Name = 
REMARK  10 active torsions:
REMARK  status: ('A' for Active; 'I' for Inactive)
REMARK    1  A    between atoms: C_1  and  C_2
REMARK    2  A    between atoms: C_2  and  C_3
REMARK    3  A    between atoms: C_2  and  N_4
REMARK    4  A    between atoms: C_2  and  C_17
REMARK    5  A    between atoms: C_5  and  C_7
REMARK    6  A    between atoms: C_20  and  C_21
REMARK    7  A    between atoms: C_21  and  N_22
REMARK    8  A    between atoms: N_25  and  C_26
REMARK    9  A    between atoms: C_26  and  C_27
REMARK   10  A    between atoms: C_27  and  O_28
REMARK                            x       y       z     vdW  Elec       q    Type
REMARK                         _______ _______ _______ _____ _____    ______ ____
ROOT
ATOM      1  C   UNL     1      45.949   9.149  12.979  0.00  0.00    +0.000 C 
ATOM      2  C   UNL     1      46.874   7.899  13.018  0.00  0.00    +0.000 C 
ATOM      3  C   UNL     1      48.117   8.085  12.113  0.00  0.00    +0.000 C 
ENDROOT
BRANCH   2   4
ATOM      4  C   UNL     1      46.061   6.716  12.412  0.00  0.00    +0.000 A 
ATOM      5  C   UNL     1      46.612   5.416  12.522  0.00  0.00    +0.000 A 
ATOM      6  C   UNL     1      45.984   4.281  12.010  0.00  0.00    +0.000 A 
ATOM      7  C   UNL     1      44.732   4.370  11.408  0.00  0.00    +0.000 A 
ATOM      8  C   UNL     1      44.160   5.649  11.289  0.00  0.00    +0.000 A 
ATOM      9  C   UNL     1      44.814   6.807  11.778  0.00  0.00    +0.000 A 
BRANCH   7  10
ATOM     10  C   UNL     1      44.095   3.114  10.848  0.00  0.00    +0.000 C 
BRANCH  10  11
ATOM     11  N   UNL     1      43.966   2.934   9.397  0.00  0.00    +0.000 NA
ATOM     12  C   UNL     1      44.509   1.697   8.843  0.00  0.00    +0.000 C 
ATOM     13  C   UNL     1      46.004   1.744   8.450  0.00  0.00    +0.000 C 
ATOM     14  N   UNL     1      46.475   2.929   7.698  0.00  0.00    +0.000 NA
ATOM     15  C   UNL     1      45.811   4.165   8.146  0.00  0.00    +0.000 C 
ATOM     16  C   UNL     1      44.322   4.069   8.548  0.00  0.00    +0.000 C 
BRANCH  14  17
ATOM     17  C   UNL     1      46.463   2.711   6.243  0.00  0.00    +0.000 C 
BRANCH  17  18
ATOM     18  C   UNL     1      47.827   2.263   5.678  0.00  0.00    +0.000 C 
BRANCH  18  19
ATOM     19  O   UNL     1      48.888   2.660   6.545  0.00  0.00    +0.000 OA
ATOM     20  H   UNL     1      48.882   3.638   6.531  0.00  0.00    +0.000 HD
ENDBRANCH  18  19
ENDBRANCH  17  18
ENDBRANCH  14  17
ENDBRANCH  10  11
ENDBRANCH   7  10
ENDBRANCH   2   4
BRANCH   2  21
ATOM     21  N   UNL     1      47.347   7.697  14.415  0.00  0.00    +0.000 N 
ATOM     22  C   UNL     1      48.507   6.985  14.689  0.00  0.00    +0.000 C 
ATOM     23  O   UNL     1      49.230   6.526  13.807  0.00  0.00    +0.000 OA
ATOM     24  H   UNL     1      46.669   7.776  15.165  0.00  0.00    +0.000 HD
BRANCH  22  25
ATOM     25  C   UNL     1      48.911   6.796  16.089  0.00  0.00    +0.000 A 
ATOM     26  C   UNL     1      49.809   7.700  16.648  0.00  0.00    +0.000 A 
ATOM     27  S   UNL     1      50.245   7.334  18.254  0.00  0.00    +0.000 S 
ATOM     28  C   UNL     1      49.287   5.930  18.237  0.00  0.00    +0.000 A 
ATOM     29  N   UNL     1      49.266   5.096  19.311  0.00  0.00    +0.000 NA
ATOM     30  C   UNL     1      48.544   4.039  19.145  0.00  0.00    +0.000 A 
ATOM     31  N   UNL     1      47.822   3.755  18.017  0.00  0.00    +0.000 N 
ATOM     32  C   UNL     1      47.760   4.599  16.930  0.00  0.00    +0.000 A 
ATOM     33  O   UNL     1      47.030   4.378  15.970  0.00  0.00    +0.000 OA
ATOM     34  C   UNL     1      48.599   5.770  17.047  0.00  0.00    +0.000 A 
ATOM     35  H   UNL     1      47.258   2.920  17.962  0.00  0.00    +0.000 HD
ENDBRANCH  22  25
ENDBRANCH   2  21
TORSDOF 8
ENDMDL
MODEL 3
REMARK VINA RESULT:    -6.925      1.305      1.913
REMARK INTER + INTRA:         -10.388
REMARK INTER:                  -9.958
REMARK INTRA:                  -0.430
REMARK UNBOUND:                -0.427
REMARK  Name = 
REMARK  10 active torsions:
REMARK  status: ('A' for Active; 'I' for Inactive)
REMARK    1  A    between atoms: C_1  and  C_2
REMARK    2  A    between atoms: C_2  and  C_3
REMARK    3  A    between atoms: C_2  and  N_4
REMARK    4  A    between atoms: C_2  and  C_17
REMARK    5  A    between atoms: C_5  and  C_7
REMARK    6  A    between atoms: C_20  and  C_21
REMARK    7  A    between atoms: C_21  and  N_22
REMARK    8  A    between atoms: N_25  and  C_26
REMARK    9  A    between atoms: C_26  and  C_27
REMARK   10  A    between atoms: C_27  and  O_28
REMARK                            x       y       z     vdW  Elec       q    Type
REMARK                         _______ _______ _______ _____ _____    ______ ____
ROOT
ATOM      1  C   UNL     1      50.162   8.160  11.406  0.00  0.00    +0.000 C 
ATOM      2  C   UNL     1      48.714   8.207  11.973  0.00  0.00    +0.000 C 
ATOM      3  C   UNL     1      47.982   9.505  11.550  0.00  0.00    +0.000 C 
ENDROOT
BRANCH   2   4
ATOM      4  C   UNL     1      48.839   8.258  13.525  0.00  0.00    +0.000 A 
ATOM      5  C   UNL     1      50.030   7.758  14.106  0.00  0.00    +0.000 A 
ATOM      6  C   UNL     1      50.254   7.741  15.482  0.00  0.00    +0.000 A 
ATOM      7  C   UNL     1      49.320   8.280  16.362  0.00  0.00    +0.000 A 
ATOM      8  C   UNL     1      48.129   8.787  15.813  0.00  0.00    +0.000 A 
ATOM      9  C   UNL     1      47.887   8.773  14.417  0.00  0.00    +0.000 A 
BRANCH   7  10
ATOM     10  C   UNL     1      49.595   8.222  17.852  0.00  0.00    +0.000 C 
BRANCH  10  11
ATOM     11  N   UNL     1      49.370   6.978  18.597  0.00  0.00    +0.000 NA
ATOM     12  C   UNL     1      50.543   6.144  18.843  0.00  0.00    +0.000 C 
ATOM     13  C   UNL     1      50.876   5.120  17.732  0.00  0.00    +0.000 C 
ATOM     14  N   UNL     1      49.756   4.331  17.173  0.00  0.00    +0.000 NA
ATOM     15  C   UNL     1      48.520   5.126  17.070  0.00  0.00    +0.000 C 
ATOM     16  C   UNL     1      48.236   6.150  18.192  0.00  0.00    +0.000 C 
BRANCH  14  17
ATOM     17  C   UNL     1      49.602   3.028  17.838  0.00  0.00    +0.000 C 
BRANCH  17  18
ATOM     18  C   UNL     1      50.289   1.870  17.084  0.00  0.00    +0.000 C 
BRANCH  18  19
ATOM     19  O   UNL     1      49.580   1.554  15.887  0.00  0.00    +0.000 OA
ATOM     20  H   UNL     1      48.869   2.224  15.822  0.00  0.00    +0.000 HD
ENDBRANCH  18  19
ENDBRANCH  17  18
ENDBRANCH  14  17
ENDBRANCH  10  11
ENDBRANCH   7  10
ENDBRANCH   2   4
BRANCH   2  21
ATOM     21  N   UNL     1      47.951   7.050  11.434  0.00  0.00    +0.000 N 
ATOM     22  C   UNL     1      46.562   7.022  11.463  0.00  0.00    +0.000 C 
ATOM     23  O   UNL     1      45.888   7.959  11.886  0.00  0.00    +0.000 OA
ATOM     24  H   UNL     1      48.426   6.156  11.360  0.00  0.00    +0.000 HD
BRANCH  22  25
ATOM     25  C   UNL     1      45.864   5.841  10.939  0.00  0.00    +0.000 A 
ATOM     26  C   UNL     1      45.841   5.641   9.562  0.00  0.00    +0.000 A 
ATOM     27  S   UNL     1      44.945   4.273   9.079  0.00  0.00    +0.000 S 
ATOM     28  C   UNL     1      44.519   3.934  10.689  0.00  0.00    +0.000 A 
ATOM     29  N   UNL     1      43.683   2.901  10.979  0.00  0.00    +0.000 NA
ATOM     30  C   UNL     1      43.396   2.789  12.232  0.00  0.00    +0.000 A 
ATOM     31  N   UNL     1      43.888   3.597  13.222  0.00  0.00    +0.000 N 
ATOM     32  C   UNL     1      44.787   4.614  12.987  0.00  0.00    +0.000 A 
ATOM     33  O   UNL     1      45.296   5.262  13.895  0.00  0.00    +0.000 OA
ATOM     34  C   UNL     1      45.096   4.814  11.589  0.00  0.00    +0.000 A 
ATOM     35  H   UNL     1      43.641   3.439  14.188  0.00  0.00    +0.000 HD
ENDBRANCH  22  25
ENDBRANCH   2  21
TORSDOF 8
ENDMDL
MODEL 4
REMARK VINA RESULT:    -6.873      2.742      8.155
REMARK INTER + INTRA:         -10.314
REMARK INTER:                  -9.769
REMARK INTRA:                  -0.545
REMARK UNBOUND:                -0.427
REMARK  Name = 
REMARK  10 active torsions:
REMARK  status: ('A' for Active; 'I' for Inactive)
REMARK    1  A    between atoms: C_1  and  C_2
REMARK    2  A    between atoms: C_2  and  C_3
REMARK    3  A    between atoms: C_2  and  N_4
REMARK    4  A    between atoms: C_2  and  C_17
REMARK    5  A    between atoms: C_5  and  C_7
REMARK    6  A    between atoms: C_20  and  C_21
REMARK    7  A    between atoms: C_21  and  N_22
REMARK    8  A    between atoms: N_25  and  C_26
REMARK    9  A    between atoms: C_26  and  C_27
REMARK   10  A    between atoms: C_27  and  O_28
REMARK                            x       y       z     vdW  Elec       q    Type
REMARK                         _______ _______ _______ _____ _____    ______ ____
ROOT
ATOM      1  C   UNL     1      48.658   9.327  13.442  0.00  0.00    +0.000 C 
ATOM      2  C   UNL     1      48.940   7.843  13.071  0.00  0.00    +0.000 C 
ATOM      3  C   UNL     1      49.531   7.718  11.645  0.00  0.00    +0.000 C 
ENDROOT
BRANCH   2   4
ATOM      4  C   UNL     1      47.564   7.115  13.043  0.00  0.00    +0.000 A 
ATOM      5  C   UNL     1      47.562   5.706  13.197  0.00  0.00    +0.000 A 
ATOM      6  C   UNL     1      46.395   4.944  13.179  0.00  0.00    +0.000 A 
ATOM      7  C   UNL     1      45.148   5.552  13.065  0.00  0.00    +0.000 A 
ATOM      8  C   UNL     1      45.120   6.949  12.914  0.00  0.00    +0.000 A 
ATOM      9  C   UNL     1      46.308   7.721  12.897  0.00  0.00    +0.000 A 
BRANCH   7  10
ATOM     10  C   UNL     1      43.907   4.682  13.030  0.00  0.00    +0.000 C 
BRANCH  10  11
ATOM     11  N   UNL     1      43.348   4.242  11.745  0.00  0.00    +0.000 NA
ATOM     12  C   UNL     1      43.720   2.904  11.297  0.00  0.00    +0.000 C 
ATOM     13  C   UNL     1      45.025   2.816  10.472  0.00  0.00    +0.000 C 
ATOM     14  N   UNL     1      45.225   3.822   9.404  0.00  0.00    +0.000 NA
ATOM     15  C   UNL     1      44.706   5.145   9.790  0.00  0.00    +0.000 C 
ATOM     16  C   UNL     1      43.411   5.185  10.630  0.00  0.00    +0.000 C 
BRANCH  14  17
ATOM     17  C   UNL     1      44.777   3.339   8.089  0.00  0.00    +0.000 C 
BRANCH  17  18
ATOM     18  C   UNL     1      45.919   3.217   7.058  0.00  0.00    +0.000 C 
BRANCH  18  19
ATOM     19  O   UNL     1      46.778   4.355   7.118  0.00  0.00    +0.000 OA
ATOM     20  H   UNL     1      46.181   5.130   7.117  0.00  0.00    +0.000 HD
ENDBRANCH  18  19
ENDBRANCH  17  18
ENDBRANCH  14  17
ENDBRANCH  10  11
ENDBRANCH   7  10
ENDBRANCH   2   4
BRANCH   2  21
ATOM     21  N   UNL     1      49.933   7.291  14.031  0.00  0.00    +0.000 N 
ATOM     22  C   UNL     1      49.728   7.360  15.403  0.00  0.00    +0.000 C 
ATOM     23  O   UNL     1      48.706   7.832  15.900  0.00  0.00    +0.000 OA
ATOM     24  H   UNL     1      50.891   7.176  13.717  0.00  0.00    +0.000 HD
BRANCH  22  25
ATOM     25  C   UNL     1      50.755   6.821  16.304  0.00  0.00    +0.000 A 
ATOM     26  C   UNL     1      51.904   7.575  16.527  0.00  0.00    +0.000 A 
ATOM     27  S   UNL     1      53.044   6.811  17.538  0.00  0.00    +0.000 S 
ATOM     28  C   UNL     1      52.061   5.430  17.671  0.00  0.00    +0.000 A 
ATOM     29  N   UNL     1      52.492   4.342  18.363  0.00  0.00    +0.000 NA
ATOM     30  C   UNL     1      51.675   3.343  18.338  0.00  0.00    +0.000 A 
ATOM     31  N   UNL     1      50.459   3.343  17.707  0.00  0.00    +0.000 N 
ATOM     32  C   UNL     1      49.952   4.442  17.049  0.00  0.00    +0.000 A 
ATOM     33  O   UNL     1      48.820   4.459  16.578  0.00  0.00    +0.000 OA
ATOM     34  C   UNL     1      50.857   5.569  17.003  0.00  0.00    +0.000 A 
ATOM     35  H   UNL     1      49.857   2.534  17.747  0.00  0.00    +0.000 HD
ENDBRANCH  22  25
ENDBRANCH   2  21
TORSDOF 8
ENDMDL
MODEL 5
REMARK VINA RESULT:    -6.270      3.707      6.201
REMARK INTER + INTRA:          -9.446
REMARK INTER:                  -9.268
REMARK INTRA:                  -0.178
REMARK UNBOUND:                -0.427
REMARK  Name = 
REMARK  10 active torsions:
REMARK  status: ('A' for Active; 'I' for Inactive)
REMARK    1  A    between atoms: C_1  and  C_2
REMARK    2  A    between atoms: C_2  and  C_3
REMARK    3  A    between atoms: C_2  and  N_4
REMARK    4  A    between atoms: C_2  and  C_17
REMARK    5  A    between atoms: C_5  and  C_7
REMARK    6  A    between atoms: C_20  and  C_21
REMARK    7  A    between atoms: C_21  and  N_22
REMARK    8  A    between atoms: N_25  and  C_26
REMARK    9  A    between atoms: C_26  and  C_27
REMARK   10  A    between atoms: C_27  and  O_28
REMARK                            x       y       z     vdW  Elec       q    Type
REMARK                         _______ _______ _______ _____ _____    ______ ____
ROOT
ATOM      1  C   UNL     1      48.179   9.050  15.745  0.00  0.00    +0.000 C 
ATOM      2  C   UNL     1      48.481   7.834  14.822  0.00  0.00    +0.000 C 
ATOM      3  C   UNL     1      48.938   6.601  15.640  0.00  0.00    +0.000 C 
ENDROOT
BRANCH   2   4
ATOM      4  C   UNL     1      49.689   8.239  13.924  0.00  0.00    +0.000 A 
ATOM      5  C   UNL     1      49.405   8.833  12.670  0.00  0.00    +0.000 A 
ATOM      6  C   UNL     1      50.400   9.227  11.775  0.00  0.00    +0.000 A 
ATOM      7  C   UNL     1      51.745   9.106  12.109  0.00  0.00    +0.000 A 
ATOM      8  C   UNL     1      52.056   8.524  13.349  0.00  0.00    +0.000 A 
ATOM      9  C   UNL     1      51.046   8.090  14.244  0.00  0.00    +0.000 A 
BRANCH   7  10
ATOM     10  C   UNL     1      52.793   9.530  11.098  0.00  0.00    +0.000 C 
BRANCH  10  11
ATOM     11  N   UNL     1      53.667   8.528  10.476  0.00  0.00    +0.000 NA
ATOM     12  C   UNL     1      54.378   8.942   9.270  0.00  0.00    +0.000 C 
ATOM     13  C   UNL     1      53.613   8.730   7.942  0.00  0.00    +0.000 C 
ATOM     14  N   UNL     1      52.926   7.433   7.749  0.00  0.00    +0.000 NA
ATOM     15  C   UNL     1      52.340   6.930   9.004  0.00  0.00    +0.000 C 
ATOM     16  C   UNL     1      53.128   7.180  10.309  0.00  0.00    +0.000 C 
BRANCH  14  17
ATOM     17  C   UNL     1      53.754   6.463   7.018  0.00  0.00    +0.000 C 
BRANCH  17  18
ATOM     18  C   UNL     1      53.427   4.994   7.361  0.00  0.00    +0.000 C 
BRANCH  18  19
ATOM     19  O   UNL     1      52.479   4.459   6.438  0.00  0.00    +0.000 OA
ATOM     20  H   UNL     1      52.863   4.617   5.552  0.00  0.00    +0.000 HD
ENDBRANCH  18  19
ENDBRANCH  17  18
ENDBRANCH  14  17
ENDBRANCH  10  11
ENDBRANCH   7  10
ENDBRANCH   2   4
BRANCH   2  21
ATOM     21  N   UNL     1      47.239   7.468  14.090  0.00  0.00    +0.000 N 
ATOM     22  C   UNL     1      47.204   6.386  13.221  0.00  0.00    +0.000 C 
ATOM     23  O   UNL     1      48.169   5.646  13.041  0.00  0.00    +0.000 OA
ATOM     24  H   UNL     1      46.532   8.185  13.960  0.00  0.00    +0.000 HD
BRANCH  22  25
ATOM     25  C   UNL     1      45.955   6.088  12.506  0.00  0.00    +0.000 A 
ATOM     26  C   UNL     1      45.258   7.141  11.923  0.00  0.00    +0.000 A 
ATOM     27  S   UNL     1      43.796   6.673  11.182  0.00  0.00    +0.000 S 
ATOM     28  C   UNL     1      44.025   5.058  11.659  0.00  0.00    +0.000 A 
ATOM     29  N   UNL     1      43.077   4.119  11.393  0.00  0.00    +0.000 NA
ATOM     30  C   UNL     1      43.349   2.947  11.859  0.00  0.00    +0.000 A 
ATOM     31  N   UNL     1      44.491   2.623  12.542  0.00  0.00    +0.000 N 
ATOM     32  C   UNL     1      45.508   3.522  12.779  0.00  0.00    +0.000 A 
ATOM     33  O   UNL     1      46.567   3.191  13.301  0.00  0.00    +0.000 OA
ATOM     34  C   UNL     1      45.223   4.864  12.324  0.00  0.00    +0.000 A 
ATOM     35  H   UNL     1      44.653   1.678  12.859  0.00  0.00    +0.000 HD
ENDBRANCH  22  25
ENDBRANCH   2  21
TORSDOF 8
ENDMDL
MODEL 6
REMARK VINA RESULT:    -6.225      2.063      2.388
REMARK INTER + INTRA:          -9.380
REMARK INTER:                  -7.957
REMARK INTRA:                  -1.423
REMARK UNBOUND:                -0.427
REMARK  Name = 
REMARK  10 active torsions:
REMARK  status: ('A' for Active; 'I' for Inactive)
REMARK    1  A    between atoms: C_1  and  C_2
REMARK    2  A    between atoms: C_2  and  C_3
REMARK    3  A    between atoms: C_2  and  N_4
REMARK    4  A    between atoms: C_2  and  C_17
REMARK    5  A    between atoms: C_5  and  C_7
REMARK    6  A    between atoms: C_20  and  C_21
REMARK    7  A    between atoms: C_21  and  N_22
REMARK    8  A    between atoms: N_25  and  C_26
REMARK    9  A    between atoms: C_26  and  C_27
REMARK   10  A    between atoms: C_27  and  O_28
REMARK                            x       y       z     vdW  Elec       q    Type
REMARK                         _______ _______ _______ _____ _____    ______ ____
ROOT
ATOM      1  C   UNL     1      50.027   9.599  11.411  0.00  0.00    +0.000 C 
ATOM      2  C   UNL     1      48.875   9.522  12.453  0.00  0.00    +0.000 C 
ATOM      3  C   UNL     1      48.156  10.885  12.604  0.00  0.00    +0.000 C 
ENDROOT
BRANCH   2   4
ATOM      4  C   UNL     1      49.534   9.217  13.832  0.00  0.00    +0.000 A 
ATOM      5  C   UNL     1      50.272   8.014  13.956  0.00  0.00    +0.000 A 
ATOM      6  C   UNL     1      50.897   7.628  15.141  0.00  0.00    +0.000 A 
ATOM      7  C   UNL     1      50.873   8.453  16.261  0.00  0.00    +0.000 A 
ATOM      8  C   UNL     1      50.151   9.655  16.165  0.00  0.00    +0.000 A 
ATOM      9  C   UNL     1      49.486  10.032  14.972  0.00  0.00    +0.000 A 
BRANCH   7  10
ATOM     10  C   UNL     1      51.550   7.984  17.534  0.00  0.00    +0.000 C 
BRANCH  10  11
ATOM     11  N   UNL     1      50.852   7.074  18.450  0.00  0.00    +0.000 NA
ATOM     12  C   UNL     1      51.308   5.687  18.465  0.00  0.00    +0.000 C 
ATOM     13  C   UNL     1      50.635   4.754  17.430  0.00  0.00    +0.000 C 
ATOM     14  N   UNL     1      49.165   4.841  17.288  0.00  0.00    +0.000 NA
ATOM     15  C   UNL     1      48.679   6.224  17.431  0.00  0.00    +0.000 C 
ATOM     16  C   UNL     1      49.391   7.127  18.462  0.00  0.00    +0.000 C 
BRANCH  14  17
ATOM     17  C   UNL     1      48.462   3.848  18.114  0.00  0.00    +0.000 C 
BRANCH  17  18
ATOM     18  C   UNL     1      47.290   3.160  17.383  0.00  0.00    +0.000 C 
BRANCH  18  19
ATOM     19  O   UNL     1      47.498   3.170  15.972  0.00  0.00    +0.000 OA
ATOM     20  H   UNL     1      46.917   2.466  15.619  0.00  0.00    +0.000 HD
ENDBRANCH  18  19
ENDBRANCH  17  18
ENDBRANCH  14  17
ENDBRANCH  10  11
ENDBRANCH   7  10
ENDBRANCH   2   4
BRANCH   2  21
ATOM     21  N   UNL     1      47.876   8.522  11.990  0.00  0.00    +0.000 N 
ATOM     22  C   UNL     1      46.779   8.180  12.771  0.00  0.00    +0.000 C 
ATOM     23  O   UNL     1      46.544   8.710  13.855  0.00  0.00    +0.000 OA
ATOM     24  H   UNL     1      48.161   7.853  11.283  0.00  0.00    +0.000 HD
BRANCH  22  25
ATOM     25  C   UNL     1      45.840   7.167  12.273  0.00  0.00    +0.000 A 
ATOM     26  C   UNL     1      44.732   7.591  11.545  0.00  0.00    +0.000 A 
ATOM     27  S   UNL     1      43.688   6.327  11.081  0.00  0.00    +0.000 S 
ATOM     28  C   UNL     1      44.656   5.180  11.878  0.00  0.00    +0.000 A 
ATOM     29  N   UNL     1      44.280   3.874  11.926  0.00  0.00    +0.000 NA
ATOM     30  C   UNL     1      45.074   3.120  12.610  0.00  0.00    +0.000 A 
ATOM     31  N   UNL     1      46.219   3.548  13.227  0.00  0.00    +0.000 N 
ATOM     32  C   UNL     1      46.675   4.846  13.152  0.00  0.00    +0.000 A 
ATOM     33  O   UNL     1      47.754   5.190  13.624  0.00  0.00    +0.000 OA
ATOM     34  C   UNL     1      45.789   5.741  12.443  0.00  0.00    +0.000 A 
ATOM     35  H   UNL     1      46.809   2.900  13.728  0.00  0.00    +0.000 HD
ENDBRANCH  22  25
ENDBRANCH   2  21
TORSDOF 8
ENDMDL
MODEL 7
REMARK VINA RESULT:    -5.975      3.725      6.261
REMARK INTER + INTRA:          -9.021
REMARK INTER:                  -8.477
REMARK INTRA:                  -0.543
REMARK UNBOUND:                -0.427
REMARK  Name = 
REMARK  10 active torsions:
REMARK  status: ('A' for Active; 'I' for Inactive)
REMARK    1  A    between atoms: C_1  and  C_2
REMARK    2  A    between atoms: C_2  and  C_3
REMARK    3  A    between atoms: C_2  and  N_4
REMARK    4  A    between atoms: C_2  and  C_17
REMARK    5  A    between atoms: C_5  and  C_7
REMARK    6  A    between atoms: C_20  and  C_21
REMARK    7  A    between atoms: C_21  and  N_22
REMARK    8  A    between atoms: N_25  and  C_26
REMARK    9  A    between atoms: C_26  and  C_27
REMARK   10  A    between atoms: C_27  and  O_28
REMARK                            x       y       z     vdW  Elec       q    Type
REMARK                         _______ _______ _______ _____ _____    ______ ____
ROOT
ATOM      1  C   UNL     1      48.334   9.264  15.560  0.00  0.00    +0.000 C 
ATOM      2  C   UNL     1      48.770   7.997  14.769  0.00  0.00    +0.000 C 
ATOM      3  C   UNL     1      49.616   7.043  15.648  0.00  0.00    +0.000 C 
ENDROOT
BRANCH   2   4
ATOM      4  C   UNL     1      49.704   8.482  13.620  0.00  0.00    +0.000 A 
ATOM      5  C   UNL     1      51.103   8.390  13.827  0.00  0.00    +0.000 A 
ATOM      6  C   UNL     1      52.038   8.802  12.878  0.00  0.00    +0.000 A 
ATOM      7  C   UNL     1      51.630   9.276  11.636  0.00  0.00    +0.000 A 
ATOM      8  C   UNL     1      50.247   9.375  11.401  0.00  0.00    +0.000 A 
ATOM      9  C   UNL     1      49.296   8.990  12.378  0.00  0.00    +0.000 A 
BRANCH   7  10
ATOM     10  C   UNL     1      52.680   9.732  10.641  0.00  0.00    +0.000 C 
BRANCH  10  11
ATOM     11  N   UNL     1      53.699   8.791  10.159  0.00  0.00    +0.000 NA
ATOM     12  C   UNL     1      54.237   9.040   8.826  0.00  0.00    +0.000 C 
ATOM     13  C   UNL     1      53.452   8.394   7.660  0.00  0.00    +0.000 C 
ATOM     14  N   UNL     1      53.030   6.985   7.820  0.00  0.00    +0.000 NA
ATOM     15  C   UNL     1      52.635   6.684   9.207  0.00  0.00    +0.000 C 
ATOM     16  C   UNL     1      53.433   7.365  10.340  0.00  0.00    +0.000 C 
BRANCH  14  17
ATOM     17  C   UNL     1      53.991   6.041   7.230  0.00  0.00    +0.000 C 
BRANCH  17  18
ATOM     18  C   UNL     1      53.432   4.611   7.076  0.00  0.00    +0.000 C 
BRANCH  18  19
ATOM     19  O   UNL     1      52.107   4.640   6.547  0.00  0.00    +0.000 OA
ATOM     20  H   UNL     1      52.134   4.073   5.750  0.00  0.00    +0.000 HD
ENDBRANCH  18  19
ENDBRANCH  17  18
ENDBRANCH  14  17
ENDBRANCH  10  11
ENDBRANCH   7  10
ENDBRANCH   2   4
BRANCH   2  21
ATOM     21  N   UNL     1      47.552   7.263  14.332  0.00  0.00    +0.000 N 
ATOM     22  C   UNL     1      47.634   6.174  13.474  0.00  0.00    +0.000 C 
ATOM     23  O   UNL     1      48.705   5.726  13.067  0.00  0.00    +0.000 OA
ATOM     24  H   UNL     1      46.661   7.746  14.376  0.00  0.00    +0.000 HD
BRANCH  22  25
ATOM     25  C   UNL     1      46.396   5.504  13.055  0.00  0.00    +0.000 A 
ATOM     26  C   UNL     1      46.311   4.121  13.190  0.00  0.00    +0.000 A 
ATOM     27  S   UNL     1      44.851   3.460  12.610  0.00  0.00    +0.000 S 
ATOM     28  C   UNL     1      44.306   4.993  12.117  0.00  0.00    +0.000 A 
ATOM     29  N   UNL     1      43.119   5.127  11.467  0.00  0.00    +0.000 NA
ATOM     30  C   UNL     1      42.852   6.334  11.099  0.00  0.00    +0.000 A 
ATOM     31  N   UNL     1      43.648   7.421  11.344  0.00  0.00    +0.000 N 
ATOM     32  C   UNL     1      44.826   7.346  12.054  0.00  0.00    +0.000 A 
ATOM     33  O   UNL     1      45.475   8.342  12.353  0.00  0.00    +0.000 OA
ATOM     34  C   UNL     1      45.196   6.003  12.440  0.00  0.00    +0.000 A 
ATOM     35  H   UNL     1      43.367   8.344  11.048  0.00  0.00    +0.000 HD
ENDBRANCH  22  25
ENDBRANCH   2  21
TORSDOF 8
ENDMDL
MODEL 8
REMARK VINA RESULT:    -5.903      3.065      8.064
REMARK INTER + INTRA:          -8.918
REMARK INTER:                  -8.450
REMARK INTRA:                  -0.469
REMARK UNBOUND:                -0.427
REMARK  Name = 
REMARK  10 active torsions:
REMARK  status: ('A' for Active; 'I' for Inactive)
REMARK    1  A    between atoms: C_1  and  C_2
REMARK    2  A    between atoms: C_2  and  C_3
REMARK    3  A    between atoms: C_2  and  N_4
REMARK    4  A    between atoms: C_2  and  C_17
REMARK    5  A    between atoms: C_5  and  C_7
REMARK    6  A    between atoms: C_20  and  C_21
REMARK    7  A    between atoms: C_21  and  N_22
REMARK    8  A    between atoms: N_25  and  C_26
REMARK    9  A    between atoms: C_26  and  C_27
REMARK   10  A    between atoms: C_27  and  O_28
REMARK                            x       y       z     vdW  Elec       q    Type
REMARK                         _______ _______ _______ _____ _____    ______ ____
ROOT
ATOM      1  C   UNL     1      48.298   7.919  18.659  0.00  0.00    +0.000 C 
ATOM      2  C   UNL     1      49.518   7.766  17.706  0.00  0.00    +0.000 C 
ATOM      3  C   UNL     1      50.494   8.962  17.838  0.00  0.00    +0.000 C 
ENDROOT
BRANCH   2   4
ATOM      4  C   UNL     1      48.963   7.809  16.251  0.00  0.00    +0.000 A 
ATOM      5  C   UNL     1      48.889   6.586  15.540  0.00  0.00    +0.000 A 
ATOM      6  C   UNL     1      48.420   6.498  14.230  0.00  0.00    +0.000 A 
ATOM      7  C   UNL     1      47.938   7.624  13.569  0.00  0.00    +0.000 A 
ATOM      8  C   UNL     1      47.995   8.851  14.253  0.00  0.00    +0.000 A 
ATOM      9  C   UNL     1      48.505   8.946  15.572  0.00  0.00    +0.000 A 
BRANCH   7  10
ATOM     10  C   UNL     1      47.456   7.486  12.138  0.00  0.00    +0.000 C 
BRANCH  10  11
ATOM     11  N   UNL     1      46.027   7.306  11.853  0.00  0.00    +0.000 NA
ATOM     12  C   UNL     1      45.197   6.833  12.957  0.00  0.00    +0.000 C 
ATOM     13  C   UNL     1      45.102   5.296  13.106  0.00  0.00    +0.000 C 
ATOM     14  N   UNL     1      44.875   4.504  11.877  0.00  0.00    +0.000 NA
ATOM     15  C   UNL     1      45.586   5.071  10.718  0.00  0.00    +0.000 C 
ATOM     16  C   UNL     1      45.674   6.609  10.618  0.00  0.00    +0.000 C 
BRANCH  14  17
ATOM     17  C   UNL     1      43.450   4.216  11.650  0.00  0.00    +0.000 C 
BRANCH  17  18
ATOM     18  C   UNL     1      43.150   2.714  11.463  0.00  0.00    +0.000 C 
BRANCH  18  19
ATOM     19  O   UNL     1      43.541   1.973  12.617  0.00  0.00    +0.000 OA
ATOM     20  H   UNL     1      44.456   2.260  12.812  0.00  0.00    +0.000 HD
ENDBRANCH  18  19
ENDBRANCH  17  18
ENDBRANCH  14  17
ENDBRANCH  10  11
ENDBRANCH   7  10
ENDBRANCH   2   4
BRANCH   2  21
ATOM     21  N   UNL     1      50.257   6.527  18.070  0.00  0.00    +0.000 N 
ATOM     22  C   UNL     1      51.510   6.250  17.540  0.00  0.00    +0.000 C 
ATOM     23  O   UNL     1      52.099   7.023  16.787  0.00  0.00    +0.000 OA
ATOM     24  H   UNL     1      49.724   5.739  18.422  0.00  0.00    +0.000 HD
BRANCH  22  25
ATOM     25  C   UNL     1      52.180   4.998  17.915  0.00  0.00    +0.000 A 
ATOM     26  C   UNL     1      53.475   5.065  18.422  0.00  0.00    +0.000 A 
ATOM     27  S   UNL     1      54.163   3.542  18.757  0.00  0.00    +0.000 S 
ATOM     28  C   UNL     1      52.773   2.744  18.191  0.00  0.00    +0.000 A 
ATOM     29  N   UNL     1      52.730   1.386  18.140  0.00  0.00    +0.000 NA
ATOM     30  C   UNL     1      51.640   0.911  17.638  0.00  0.00    +0.000 A 
ATOM     31  N   UNL     1      50.582   1.667  17.208  0.00  0.00    +0.000 N 
ATOM     32  C   UNL     1      50.552   3.041  17.300  0.00  0.00    +0.000 A 
ATOM     33  O   UNL     1      49.558   3.696  17.006  0.00  0.00    +0.000 OA
ATOM     34  C   UNL     1      51.775   3.623  17.805  0.00  0.00    +0.000 A 
ATOM     35  H   UNL     1      49.748   1.229  16.847  0.00  0.00    +0.000 HD
ENDBRANCH  22  25
ENDBRANCH   2  21
TORSDOF 8
ENDMDL
MODEL 9
REMARK VINA RESULT:    -5.572      4.155      6.927
REMARK INTER + INTRA:          -8.441
REMARK INTER:                  -8.068
REMARK INTRA:                  -0.374
REMARK UNBOUND:                -0.427
REMARK  Name = 
REMARK  10 active torsions:
REMARK  status: ('A' for Active; 'I' for Inactive)
REMARK    1  A    between atoms: C_1  and  C_2
REMARK    2  A    between atoms: C_2  and  C_3
REMARK    3  A    between atoms: C_2  and  N_4
REMARK    4  A    between atoms: C_2  and  C_17
REMARK    5  A    between atoms: C_5  and  C_7
REMARK    6  A    between atoms: C_20  and  C_21
REMARK    7  A    between atoms: C_21  and  N_22
REMARK    8  A    between atoms: N_25  and  C_26
REMARK    9  A    between atoms: C_26  and  C_27
REMARK   10  A    between atoms: C_27  and  O_28
REMARK                            x       y       z     vdW  Elec       q    Type
REMARK                         _______ _______ _______ _____ _____    ______ ____
ROOT
ATOM      1  C   UNL     1      46.625   9.172  12.087  0.00  0.00    +0.000 C 
ATOM      2  C   UNL     1      47.520   7.951  12.446  0.00  0.00    +0.000 C 
ATOM      3  C   UNL     1      47.723   7.828  13.977  0.00  0.00    +0.000 C 
ENDROOT
BRANCH   2   4
ATOM      4  C   UNL     1      48.927   8.228  11.837  0.00  0.00    +0.000 A 
ATOM      5  C   UNL     1      49.230   9.560  11.461  0.00  0.00    +0.000 A 
ATOM      6  C   UNL     1      50.451   9.928  10.896  0.00  0.00    +0.000 A 
ATOM      7  C   UNL     1      51.468   8.995  10.728  0.00  0.00    +0.000 A 
ATOM      8  C   UNL     1      51.197   7.665  11.096  0.00  0.00    +0.000 A 
ATOM      9  C   UNL     1      49.944   7.283  11.637  0.00  0.00    +0.000 A 
BRANCH   7  10
ATOM     10  C   UNL     1      52.772   9.435  10.091  0.00  0.00    +0.000 C 
BRANCH  10  11
ATOM     11  N   UNL     1      53.488   8.539   9.176  0.00  0.00    +0.000 NA
ATOM     12  C   UNL     1      54.882   8.871   8.896  0.00  0.00    +0.000 C 
ATOM     13  C   UNL     1      55.110   9.844   7.716  0.00  0.00    +0.000 C 
ATOM     14  N   UNL     1      54.349   9.597   6.470  0.00  0.00    +0.000 NA
ATOM     15  C   UNL     1      52.988   9.107   6.746  0.00  0.00    +0.000 C 
ATOM     16  C   UNL     1      52.802   8.152   7.945  0.00  0.00    +0.000 C 
BRANCH  14  17
ATOM     17  C   UNL     1      55.111   8.798   5.498  0.00  0.00    +0.000 C 
BRANCH  17  18
ATOM     18  C   UNL     1      54.533   7.385   5.277  0.00  0.00    +0.000 C 
BRANCH  18  19
ATOM     19  O   UNL     1      55.223   6.426   6.077  0.00  0.00    +0.000 OA
ATOM     20  H   UNL     1      54.557   6.089   6.710  0.00  0.00    +0.000 HD
ENDBRANCH  18  19
ENDBRANCH  17  18
ENDBRANCH  14  17
ENDBRANCH  10  11
ENDBRANCH   7  10
ENDBRANCH   2   4
BRANCH   2  21
ATOM     21  N   UNL     1      46.852   6.711  11.968  0.00  0.00    +0.000 N 
ATOM     22  C   UNL     1      45.523   6.443  12.272  0.00  0.00    +0.000 C 
ATOM     23  O   UNL     1      44.815   7.224  12.905  0.00  0.00    +0.000 OA
ATOM     24  H   UNL     1      47.434   5.919  11.720  0.00  0.00    +0.000 HD
BRANCH  22  25
ATOM     25  C   UNL     1      44.924   5.190  11.794  0.00  0.00    +0.000 A 
ATOM     26  C   UNL     1      44.182   4.425  12.690  0.00  0.00    +0.000 A 
ATOM     27  S   UNL     1      43.596   2.967  12.031  0.00  0.00    +0.000 S 
ATOM     28  C   UNL     1      44.354   3.287  10.544  0.00  0.00    +0.000 A 
ATOM     29  N   UNL     1      44.302   2.379   9.533  0.00  0.00    +0.000 NA
ATOM     30  C   UNL     1      44.966   2.721   8.481  0.00  0.00    +0.000 A 
ATOM     31  N   UNL     1      45.653   3.896   8.338  0.00  0.00    +0.000 N 
ATOM     32  C   UNL     1      45.682   4.875   9.307  0.00  0.00    +0.000 A 
ATOM     33  O   UNL     1      46.216   5.964   9.124  0.00  0.00    +0.000 OA
ATOM     34  C   UNL     1      44.998   4.513  10.528  0.00  0.00    +0.000 A 
ATOM     35  H   UNL     1      46.133   4.113   7.477  0.00  0.00    +0.000 HD
ENDBRANCH  22  25
ENDBRANCH   2  21
TORSDOF 8
ENDMDL
