MODEL 1
REMARK VINA RESULT:    -8.760      0.000      0.000
REMARK INTER + INTRA:         -14.148
REMARK INTER:                 -12.857
REMARK INTRA:                  -1.291
REMARK UNBOUND:                -1.291
REMARK  Name = 
REMARK  9 active torsions:
REMARK  status: ('A' for Active; 'I' for Inactive)
REMARK    1  A    between atoms: C_1  and  C_2
REMARK    2  A    between atoms: C_2  and  C_3
REMARK    3  A    between atoms: C_3  and  N_4
REMARK    4  A    between atoms: C_3  and  C_12
REMARK    5  A    between atoms: N_4  and  C_5
REMARK    6  A    between atoms: C_5  and  C_6
REMARK    7  A    between atoms: C_15  and  C_16
REMARK    8  A    between atoms: C_16  and  N_17
REMARK    9  A    between atoms: C_18  and  C_20
REMARK                            x       y       z     vdW  Elec       q    Type
REMARK                         _______ _______ _______ _____ _____    ______ ____
ROOT
ATOM      1  C   UNL     1      45.462   4.484  12.285  0.00  0.00    +0.000 A 
ATOM      2  C   UNL     1      45.895   5.630  11.593  0.00  0.00    +0.000 A 
ATOM      3  C   UNL     1      46.829   6.509  12.156  0.00  0.00    +0.000 A 
ATOM      4  C   UNL     1      47.401   6.227  13.402  0.00  0.00    +0.000 A 
ATOM      5  C   UNL     1      46.992   5.080  14.086  0.00  0.00    +0.000 A 
ATOM      6  C   UNL     1      46.032   4.228  13.542  0.00  0.00    +0.000 A 
ENDROOT
BRANCH   1   7
ATOM      7  C   UNL     1      44.330   3.619  11.713  0.00  0.00    +0.000 C 
BRANCH   7   9
ATOM      8  C   UNL     1      42.401   5.386  11.833  0.00  0.00    +0.000 C 
ATOM      9  C   UNL     1      43.282   4.494  10.969  0.00  0.00    +0.000 C 
ENDBRANCH   7   9
BRANCH   7  10
ATOM     10  N   UNL     1      44.845   2.551  10.830  0.00  0.00    +0.000 NA
ATOM     11  H   UNL     1      44.563   1.647  11.209  0.00  0.00    +0.000 HD
BRANCH  10  12
ATOM     12  C   UNL     1      44.338   2.652   9.456  0.00  0.00    +0.000 C 
BRANCH  12  13
ATOM     13  C   UNL     1      45.424   2.528   8.413  0.00  0.00    +0.000 A 
ATOM     14  C   UNL     1      45.813   3.643   7.652  0.00  0.00    +0.000 A 
ATOM     15  C   UNL     1      46.873   3.551   6.750  0.00  0.00    +0.000 A 
ATOM     16  C   UNL     1      47.551   2.341   6.601  0.00  0.00    +0.000 A 
ATOM     17  C   UNL     1      47.161   1.224   7.339  0.00  0.00    +0.000 A 
ATOM     18  C   UNL     1      46.099   1.315   8.240  0.00  0.00    +0.000 A 
ENDBRANCH  12  13
ENDBRANCH  10  12
ENDBRANCH   7  10
ENDBRANCH   1   7
BRANCH   4  19
ATOM     19  C   UNL     1      48.415   7.142  14.032  0.00  0.00    +0.000 C 
BRANCH  19  20
ATOM     20  N   UNL     1      48.285   7.150  15.467  0.00  0.00    +0.000 N 
ATOM     21  C   UNL     1      49.251   6.678  16.316  0.00  0.00    +0.000 C 
ATOM     22  O   UNL     1      50.287   6.160  15.914  0.00  0.00    +0.000 OA
ATOM     23  H   UNL     1      47.382   7.431  15.835  0.00  0.00    +0.000 HD
BRANCH  21  24
ATOM     24  C   UNL     1      49.016   6.904  17.749  0.00  0.00    +0.000 A 
ATOM     25  C   UNL     1      48.946   8.198  18.245  0.00  0.00    +0.000 A 
ATOM     26  S   UNL     1      48.610   8.271  19.917  0.00  0.00    +0.000 S 
ATOM     27  C   UNL     1      48.598   6.575  20.048  0.00  0.00    +0.000 A 
ATOM     28  N   UNL     1      48.383   5.967  21.243  0.00  0.00    +0.000 NA
ATOM     29  C   UNL     1      48.440   4.672  21.198  0.00  0.00    +0.000 A 
ATOM     30  N   UNL     1      48.681   3.940  20.071  0.00  0.00    +0.000 N 
ATOM     31  C   UNL     1      48.843   4.507  18.830  0.00  0.00    +0.000 A 
ATOM     32  O   UNL     1      48.957   3.813  17.830  0.00  0.00    +0.000 OA
ATOM     33  C   UNL     1      48.828   5.958  18.827  0.00  0.00    +0.000 A 
ATOM     34  H   UNL     1      48.688   2.931  20.103  0.00  0.00    +0.000 HD
ENDBRANCH  21  24
ENDBRANCH  19  20
ENDBRANCH   4  19
TORSDOF 8
ENDMDL
MODEL 2
REMARK VINA RESULT:    -8.495      1.466      2.330
REMARK INTER + INTRA:         -13.760
REMARK INTER:                 -12.342
REMARK INTRA:                  -1.418
REMARK UNBOUND:                -1.291
REMARK  Name = 
REMARK  9 active torsions:
REMARK  status: ('A' for Active; 'I' for Inactive)
REMARK    1  A    between atoms: C_1  and  C_2
REMARK    2  A    between atoms: C_2  and  C_3
REMARK    3  A    between atoms: C_3  and  N_4
REMARK    4  A    between atoms: C_3  and  C_12
REMARK    5  A    between atoms: N_4  and  C_5
REMARK    6  A    between atoms: C_5  and  C_6
REMARK    7  A    between atoms: C_15  and  C_16
REMARK    8  A    between atoms: C_16  and  N_17
REMARK    9  A    between atoms: C_18  and  C_20
REMARK                            x       y       z     vdW  Elec       q    Type
REMARK                         _______ _______ _______ _____ _____    ______ ____
ROOT
ATOM      1  C   UNL     1      45.631   4.987  11.908  0.00  0.00    +0.000 A 
ATOM      2  C   UNL     1      45.914   4.427  13.168  0.00  0.00    +0.000 A 
ATOM      3  C   UNL     1      46.855   5.009  14.027  0.00  0.00    +0.000 A 
ATOM      4  C   UNL     1      47.491   6.204  13.670  0.00  0.00    +0.000 A 
ATOM      5  C   UNL     1      47.201   6.778  12.430  0.00  0.00    +0.000 A 
ATOM      6  C   UNL     1      46.293   6.175  11.561  0.00  0.00    +0.000 A 
ENDROOT
BRANCH   1   7
ATOM      7  C   UNL     1      44.708   4.251  10.927  0.00  0.00    +0.000 C 
BRANCH   7   9
ATOM      8  C   UNL     1      42.588   5.564  11.724  0.00  0.00    +0.000 C 
ATOM      9  C   UNL     1      43.247   4.218  11.455  0.00  0.00    +0.000 C 
ENDBRANCH   7   9
BRANCH   7  10
ATOM     10  N   UNL     1      44.764   4.837   9.571  0.00  0.00    +0.000 NA
ATOM     11  H   UNL     1      45.718   5.147   9.386  0.00  0.00    +0.000 HD
BRANCH  10  12
ATOM     12  C   UNL     1      44.379   3.885   8.522  0.00  0.00    +0.000 C 
BRANCH  12  13
ATOM     13  C   UNL     1      45.541   3.070   8.004  0.00  0.00    +0.000 A 
ATOM     14  C   UNL     1      45.706   1.732   8.398  0.00  0.00    +0.000 A 
ATOM     15  C   UNL     1      46.728   0.954   7.854  0.00  0.00    +0.000 A 
ATOM     16  C   UNL     1      47.594   1.509   6.913  0.00  0.00    +0.000 A 
ATOM     17  C   UNL     1      47.449   2.842   6.528  0.00  0.00    +0.000 A 
ATOM     18  C   UNL     1      46.428   3.621   7.073  0.00  0.00    +0.000 A 
ENDBRANCH  12  13
ENDBRANCH  10  12
ENDBRANCH   7  10
ENDBRANCH   1   7
BRANCH   4  19
ATOM     19  C   UNL     1      48.499   6.862  14.571  0.00  0.00    +0.000 C 
BRANCH  19  20
ATOM     20  N   UNL     1      48.279   6.500  15.949  0.00  0.00    +0.000 N 
ATOM     21  C   UNL     1      49.257   5.991  16.762  0.00  0.00    +0.000 C 
ATOM     22  O   UNL     1      50.392   5.753  16.361  0.00  0.00    +0.000 OA
ATOM     23  H   UNL     1      47.320   6.539  16.276  0.00  0.00    +0.000 HD
BRANCH  21  24
ATOM     24  C   UNL     1      48.896   5.820  18.176  0.00  0.00    +0.000 A 
ATOM     25  C   UNL     1      49.099   4.598  18.801  0.00  0.00    +0.000 A 
ATOM     26  S   UNL     1      48.679   4.599  20.455  0.00  0.00    +0.000 S 
ATOM     27  C   UNL     1      48.161   6.218  20.383  0.00  0.00    +0.000 A 
ATOM     28  N   UNL     1      47.655   6.841  21.478  0.00  0.00    +0.000 NA
ATOM     29  C   UNL     1      47.266   8.059  21.265  0.00  0.00    +0.000 A 
ATOM     30  N   UNL     1      47.348   8.706  20.065  0.00  0.00    +0.000 N 
ATOM     31  C   UNL     1      47.908   8.139  18.945  0.00  0.00    +0.000 A 
ATOM     32  O   UNL     1      48.053   8.785  17.917  0.00  0.00    +0.000 OA
ATOM     33  C   UNL     1      48.325   6.759  19.116  0.00  0.00    +0.000 A 
ATOM     34  H   UNL     1      47.048   9.665  19.974  0.00  0.00    +0.000 HD
ENDBRANCH  21  24
ENDBRANCH  19  20
ENDBRANCH   4  19
TORSDOF 8
ENDMDL
MODEL 3
REMARK VINA RESULT:    -8.278      1.916      2.421
REMARK INTER + INTRA:         -13.441
REMARK INTER:                 -11.844
REMARK INTRA:                  -1.597
REMARK UNBOUND:                -1.291
REMARK  Name = 
REMARK  9 active torsions:
REMARK  status: ('A' for Active; 'I' for Inactive)
REMARK    1  A    between atoms: C_1  and  C_2
REMARK    2  A    between atoms: C_2  and  C_3
REMARK    3  A    between atoms: C_3  and  N_4
REMARK    4  A    between atoms: C_3  and  C_12
REMARK    5  A    between atoms: N_4  and  C_5
REMARK    6  A    between atoms: C_5  and  C_6
REMARK    7  A    between atoms: C_15  and  C_16
REMARK    8  A    between atoms: C_16  and  N_17
REMARK    9  A    between atoms: C_18  and  C_20
REMARK                            x       y       z     vdW  Elec       q    Type
REMARK                         _______ _______ _______ _____ _____    ______ ____
ROOT
ATOM      1  C   UNL     1      45.582   4.811  12.096  0.00  0.00    +0.000 A 
ATOM      2  C   UNL     1      45.941   5.868  11.239  0.00  0.00    +0.000 A 
ATOM      3  C   UNL     1      46.906   6.812  11.614  0.00  0.00    +0.000 A 
ATOM      4  C   UNL     1      47.582   6.682  12.833  0.00  0.00    +0.000 A 
ATOM      5  C   UNL     1      47.247   5.623  13.680  0.00  0.00    +0.000 A 
ATOM      6  C   UNL     1      46.257   4.709  13.322  0.00  0.00    +0.000 A 
ENDROOT
BRANCH   1   7
ATOM      7  C   UNL     1      44.419   3.880  11.725  0.00  0.00    +0.000 C 
BRANCH   7   9
ATOM      8  C   UNL     1      42.401   5.546  11.815  0.00  0.00    +0.000 C 
ATOM      9  C   UNL     1      43.303   4.655  10.971  0.00  0.00    +0.000 C 
ENDBRANCH   7   9
BRANCH   7  10
ATOM     10  N   UNL     1      44.875   2.715  10.938  0.00  0.00    +0.000 NA
ATOM     11  H   UNL     1      44.553   1.862  11.395  0.00  0.00    +0.000 HD
BRANCH  10  12
ATOM     12  C   UNL     1      44.363   2.720   9.562  0.00  0.00    +0.000 C 
BRANCH  12  13
ATOM     13  C   UNL     1      45.452   2.597   8.523  0.00  0.00    +0.000 A 
ATOM     14  C   UNL     1      46.090   1.365   8.299  0.00  0.00    +0.000 A 
ATOM     15  C   UNL     1      47.034   1.230   7.281  0.00  0.00    +0.000 A 
ATOM     16  C   UNL     1      47.350   2.327   6.481  0.00  0.00    +0.000 A 
ATOM     17  C   UNL     1      46.735   3.559   6.707  0.00  0.00    +0.000 A 
ATOM     18  C   UNL     1      45.792   3.695   7.725  0.00  0.00    +0.000 A 
ENDBRANCH  12  13
ENDBRANCH  10  12
ENDBRANCH   7  10
ENDBRANCH   1   7
BRANCH   4  19
ATOM     19  C   UNL     1      48.631   7.670  13.264  0.00  0.00    +0.000 C 
BRANCH  19  20
ATOM     20  N   UNL     1      49.586   7.058  14.153  0.00  0.00    +0.000 N 
ATOM     21  C   UNL     1      50.512   7.768  14.872  0.00  0.00    +0.000 C 
ATOM     22  O   UNL     1      50.635   8.984  14.772  0.00  0.00    +0.000 OA
ATOM     23  H   UNL     1      49.618   6.045  14.150  0.00  0.00    +0.000 HD
BRANCH  21  24
ATOM     24  C   UNL     1      51.303   6.998  15.841  0.00  0.00    +0.000 A 
ATOM     25  C   UNL     1      52.690   7.062  15.812  0.00  0.00    +0.000 A 
ATOM     26  S   UNL     1      53.441   6.153  17.045  0.00  0.00    +0.000 S 
ATOM     27  C   UNL     1      51.943   5.599  17.631  0.00  0.00    +0.000 A 
ATOM     28  N   UNL     1      51.876   4.748  18.687  0.00  0.00    +0.000 NA
ATOM     29  C   UNL     1      50.671   4.381  18.998  0.00  0.00    +0.000 A 
ATOM     30  N   UNL     1      49.539   4.794  18.356  0.00  0.00    +0.000 N 
ATOM     31  C   UNL     1      49.552   5.701  17.323  0.00  0.00    +0.000 A 
ATOM     32  O   UNL     1      48.511   6.122  16.841  0.00  0.00    +0.000 OA
ATOM     33  C   UNL     1      50.879   6.116  16.907  0.00  0.00    +0.000 A 
ATOM     34  H   UNL     1      48.630   4.488  18.666  0.00  0.00    +0.000 HD
ENDBRANCH  21  24
ENDBRANCH  19  20
ENDBRANCH   4  19
TORSDOF 8
ENDMDL
MODEL 4
REMARK VINA RESULT:    -8.043      2.344      3.274
REMARK INTER + INTRA:         -13.096
REMARK INTER:                 -11.669
REMARK INTRA:                  -1.427
REMARK UNBOUND:                -1.291
REMARK  Name = 
REMARK  9 active torsions:
REMARK  status: ('A' for Active; 'I' for Inactive)
REMARK    1  A    between atoms: C_1  and  C_2
REMARK    2  A    between atoms: C_2  and  C_3
REMARK    3  A    between atoms: C_3  and  N_4
REMARK    4  A    between atoms: C_3  and  C_12
REMARK    5  A    between atoms: N_4  and  C_5
REMARK    6  A    between atoms: C_5  and  C_6
REMARK    7  A    between atoms: C_15  and  C_16
REMARK    8  A    between atoms: C_16  and  N_17
REMARK    9  A    between atoms: C_18  and  C_20
REMARK                            x       y       z     vdW  Elec       q    Type
REMARK                         _______ _______ _______ _____ _____    ______ ____
ROOT
ATOM      1  C   UNL     1      45.511   4.857  12.166  0.00  0.00    +0.000 A 
ATOM      2  C   UNL     1      46.165   4.701  13.403  0.00  0.00    +0.000 A 
ATOM      3  C   UNL     1      47.241   5.520  13.765  0.00  0.00    +0.000 A 
ATOM      4  C   UNL     1      47.650   6.560  12.922  0.00  0.00    +0.000 A 
ATOM      5  C   UNL     1      46.993   6.736  11.702  0.00  0.00    +0.000 A 
ATOM      6  C   UNL     1      45.948   5.893  11.327  0.00  0.00    +0.000 A 
ENDROOT
BRANCH   1   7
ATOM      7  C   UNL     1      44.434   3.854  11.731  0.00  0.00    +0.000 C 
BRANCH   7   9
ATOM      8  C   UNL     1      42.365   5.456  11.822  0.00  0.00    +0.000 C 
ATOM      9  C   UNL     1      43.275   4.570  10.982  0.00  0.00    +0.000 C 
ENDBRANCH   7   9
BRANCH   7  10
ATOM     10  N   UNL     1      44.997   2.763  10.908  0.00  0.00    +0.000 NA
ATOM     11  H   UNL     1      44.775   1.870  11.349  0.00  0.00    +0.000 HD
BRANCH  10  12
ATOM     12  C   UNL     1      44.464   2.746   9.540  0.00  0.00    +0.000 C 
BRANCH  12  13
ATOM     13  C   UNL     1      45.537   2.592   8.488  0.00  0.00    +0.000 A 
ATOM     14  C   UNL     1      46.158   1.349   8.278  0.00  0.00    +0.000 A 
ATOM     15  C   UNL     1      47.086   1.186   7.249  0.00  0.00    +0.000 A 
ATOM     16  C   UNL     1      47.401   2.264   6.423  0.00  0.00    +0.000 A 
ATOM     17  C   UNL     1      46.802   3.506   6.635  0.00  0.00    +0.000 A 
ATOM     18  C   UNL     1      45.875   3.671   7.665  0.00  0.00    +0.000 A 
ENDBRANCH  12  13
ENDBRANCH  10  12
ENDBRANCH   7  10
ENDBRANCH   1   7
BRANCH   4  19
ATOM     19  C   UNL     1      48.795   7.466  13.282  0.00  0.00    +0.000 C 
BRANCH  19  20
ATOM     20  N   UNL     1      49.627   6.872  14.299  0.00  0.00    +0.000 N 
ATOM     21  C   UNL     1      49.578   7.232  15.620  0.00  0.00    +0.000 C 
ATOM     22  O   UNL     1      48.854   8.132  16.033  0.00  0.00    +0.000 OA
ATOM     23  H   UNL     1      50.343   6.232  13.976  0.00  0.00    +0.000 HD
BRANCH  21  24
ATOM     24  C   UNL     1      50.385   6.418  16.539  0.00  0.00    +0.000 A 
ATOM     25  C   UNL     1      49.762   5.637  17.503  0.00  0.00    +0.000 A 
ATOM     26  S   UNL     1      50.850   4.715  18.441  0.00  0.00    +0.000 S 
ATOM     27  C   UNL     1      52.195   5.367  17.630  0.00  0.00    +0.000 A 
ATOM     28  N   UNL     1      53.459   5.006  17.968  0.00  0.00    +0.000 NA
ATOM     29  C   UNL     1      54.385   5.613  17.291  0.00  0.00    +0.000 A 
ATOM     30  N   UNL     1      54.157   6.531  16.308  0.00  0.00    +0.000 N 
ATOM     31  C   UNL     1      52.896   6.883  15.888  0.00  0.00    +0.000 A 
ATOM     32  O   UNL     1      52.734   7.634  14.937  0.00  0.00    +0.000 OA
ATOM     33  C   UNL     1      51.820   6.263  16.640  0.00  0.00    +0.000 A 
ATOM     34  H   UNL     1      54.924   6.948  15.802  0.00  0.00    +0.000 HD
ENDBRANCH  21  24
ENDBRANCH  19  20
ENDBRANCH   4  19
TORSDOF 8
ENDMDL
MODEL 5
REMARK VINA RESULT:    -7.867      1.573      2.008
REMARK INTER + INTRA:         -12.838
REMARK INTER:                 -11.618
REMARK INTRA:                  -1.219
REMARK UNBOUND:                -1.291
REMARK  Name = 
REMARK  9 active torsions:
REMARK  status: ('A' for Active; 'I' for Inactive)
REMARK    1  A    between atoms: C_1  and  C_2
REMARK    2  A    between atoms: C_2  and  C_3
REMARK    3  A    between atoms: C_3  and  N_4
REMARK    4  A    between atoms: C_3  and  C_12
REMARK    5  A    between atoms: N_4  and  C_5
REMARK    6  A    between atoms: C_5  and  C_6
REMARK    7  A    between atoms: C_15  and  C_16
REMARK    8  A    between atoms: C_16  and  N_17
REMARK    9  A    between atoms: C_18  and  C_20
REMARK                            x       y       z     vdW  Elec       q    Type
REMARK                         _______ _______ _______ _____ _____    ______ ____
ROOT
ATOM      1  C   UNL     1      45.821   6.303  11.906  0.00  0.00    +0.000 A 
ATOM      2  C   UNL     1      45.177   7.514  12.223  0.00  0.00    +0.000 A 
ATOM      3  C   UNL     1      45.816   8.499  12.986  0.00  0.00    +0.000 A 
ATOM      4  C   UNL     1      47.142   8.322  13.398  0.00  0.00    +0.000 A 
ATOM      5  C   UNL     1      47.796   7.132  13.071  0.00  0.00    +0.000 A 
ATOM      6  C   UNL     1      47.143   6.136  12.345  0.00  0.00    +0.000 A 
ENDROOT
BRANCH   1   7
ATOM      7  C   UNL     1      45.049   5.182  11.197  0.00  0.00    +0.000 C 
BRANCH   7   9
ATOM      8  C   UNL     1      43.330   4.034  12.805  0.00  0.00    +0.000 C 
ATOM      9  C   UNL     1      43.593   5.083  11.732  0.00  0.00    +0.000 C 
ENDBRANCH   7   9
BRANCH   7  10
ATOM     10  N   UNL     1      45.060   5.348   9.728  0.00  0.00    +0.000 NA
ATOM     11  H   UNL     1      46.025   5.453   9.416  0.00  0.00    +0.000 HD
BRANCH  10  12
ATOM     12  C   UNL     1      44.469   4.205   9.021  0.00  0.00    +0.000 C 
BRANCH  12  13
ATOM     13  C   UNL     1      45.502   3.296   8.396  0.00  0.00    +0.000 A 
ATOM     14  C   UNL     1      45.516   1.923   8.692  0.00  0.00    +0.000 A 
ATOM     15  C   UNL     1      46.413   1.069   8.050  0.00  0.00    +0.000 A 
ATOM     16  C   UNL     1      47.304   1.582   7.109  0.00  0.00    +0.000 A 
ATOM     17  C   UNL     1      47.309   2.947   6.821  0.00  0.00    +0.000 A 
ATOM     18  C   UNL     1      46.413   3.802   7.464  0.00  0.00    +0.000 A 
ENDBRANCH  12  13
ENDBRANCH  10  12
ENDBRANCH   7  10
ENDBRANCH   1   7
BRANCH   4  19
ATOM     19  C   UNL     1      47.863   9.362  14.210  0.00  0.00    +0.000 C 
BRANCH  19  20
ATOM     20  N   UNL     1      47.616   9.184  15.619  0.00  0.00    +0.000 N 
ATOM     21  C   UNL     1      48.500   8.574  16.470  0.00  0.00    +0.000 C 
ATOM     22  O   UNL     1      49.555   8.083  16.085  0.00  0.00    +0.000 OA
ATOM     23  H   UNL     1      46.692   9.441  15.949  0.00  0.00    +0.000 HD
BRANCH  21  24
ATOM     24  C   UNL     1      48.152   8.615  17.897  0.00  0.00    +0.000 A 
ATOM     25  C   UNL     1      48.022   9.836  18.545  0.00  0.00    +0.000 A 
ATOM     26  S   UNL     1      47.557   9.694  20.181  0.00  0.00    +0.000 S 
ATOM     27  C   UNL     1      47.566   7.995  20.098  0.00  0.00    +0.000 A 
ATOM     28  N   UNL     1      47.271   7.239  21.186  0.00  0.00    +0.000 NA
ATOM     29  C   UNL     1      47.355   5.960  20.984  0.00  0.00    +0.000 A 
ATOM     30  N   UNL     1      47.694   5.378  19.797  0.00  0.00    +0.000 N 
ATOM     31  C   UNL     1      47.940   6.099  18.652  0.00  0.00    +0.000 A 
ATOM     32  O   UNL     1      48.142   5.538  17.585  0.00  0.00    +0.000 OA
ATOM     33  C   UNL     1      47.899   7.539  18.831  0.00  0.00    +0.000 A 
ATOM     34  H   UNL     1      47.716   4.374  19.702  0.00  0.00    +0.000 HD
ENDBRANCH  21  24
ENDBRANCH  19  20
ENDBRANCH   4  19
TORSDOF 8
ENDMDL
MODEL 6
REMARK VINA RESULT:    -7.517      1.622      2.294
REMARK INTER + INTRA:         -12.323
REMARK INTER:                 -11.010
REMARK INTRA:                  -1.314
REMARK UNBOUND:                -1.291
REMARK  Name = 
REMARK  9 active torsions:
REMARK  status: ('A' for Active; 'I' for Inactive)
REMARK    1  A    between atoms: C_1  and  C_2
REMARK    2  A    between atoms: C_2  and  C_3
REMARK    3  A    between atoms: C_3  and  N_4
REMARK    4  A    between atoms: C_3  and  C_12
REMARK    5  A    between atoms: N_4  and  C_5
REMARK    6  A    between atoms: C_5  and  C_6
REMARK    7  A    between atoms: C_15  and  C_16
REMARK    8  A    between atoms: C_16  and  N_17
REMARK    9  A    between atoms: C_18  and  C_20
REMARK                            x       y       z     vdW  Elec       q    Type
REMARK                         _______ _______ _______ _____ _____    ______ ____
ROOT
ATOM      1  C   UNL     1      45.188   4.751  12.075  0.00  0.00    +0.000 A 
ATOM      2  C   UNL     1      45.572   3.496  12.584  0.00  0.00    +0.000 A 
ATOM      3  C   UNL     1      46.488   3.388  13.638  0.00  0.00    +0.000 A 
ATOM      4  C   UNL     1      46.994   4.539  14.253  0.00  0.00    +0.000 A 
ATOM      5  C   UNL     1      46.602   5.789  13.769  0.00  0.00    +0.000 A 
ATOM      6  C   UNL     1      45.721   5.893  12.692  0.00  0.00    +0.000 A 
ENDROOT
BRANCH   1   7
ATOM      7  C   UNL     1      44.301   4.838  10.826  0.00  0.00    +0.000 C 
BRANCH   7   9
ATOM      8  C   UNL     1      42.108   5.864  11.823  0.00  0.00    +0.000 C 
ATOM      9  C   UNL     1      43.322   6.042  10.921  0.00  0.00    +0.000 C 
ENDBRANCH   7   9
BRANCH   7  10
ATOM     10  N   UNL     1      45.101   4.907   9.585  0.00  0.00    +0.000 NA
ATOM     11  H   UNL     1      46.072   4.690   9.807  0.00  0.00    +0.000 HD
BRANCH  10  12
ATOM     12  C   UNL     1      44.642   3.965   8.557  0.00  0.00    +0.000 C 
BRANCH  12  13
ATOM     13  C   UNL     1      45.749   3.087   8.022  0.00  0.00    +0.000 A 
ATOM     14  C   UNL     1      45.805   1.723   8.357  0.00  0.00    +0.000 A 
ATOM     15  C   UNL     1      46.776   0.894   7.795  0.00  0.00    +0.000 A 
ATOM     16  C   UNL     1      47.699   1.422   6.894  0.00  0.00    +0.000 A 
ATOM     17  C   UNL     1      47.662   2.778   6.567  0.00  0.00    +0.000 A 
ATOM     18  C   UNL     1      46.693   3.609   7.131  0.00  0.00    +0.000 A 
ENDBRANCH  12  13
ENDBRANCH  10  12
ENDBRANCH   7  10
ENDBRANCH   1   7
BRANCH   4  19
ATOM     19  C   UNL     1      47.971   4.461  15.394  0.00  0.00    +0.000 C 
BRANCH  19  20
ATOM     20  N   UNL     1      47.864   5.618  16.248  0.00  0.00    +0.000 N 
ATOM     21  C   UNL     1      48.905   6.473  16.494  0.00  0.00    +0.000 C 
ATOM     22  O   UNL     1      50.031   6.290  16.046  0.00  0.00    +0.000 OA
ATOM     23  H   UNL     1      46.993   5.721  16.757  0.00  0.00    +0.000 HD
BRANCH  21  24
ATOM     24  C   UNL     1      48.578   7.681  17.265  0.00  0.00    +0.000 A 
ATOM     25  C   UNL     1      48.686   8.932  16.672  0.00  0.00    +0.000 A 
ATOM     26  S   UNL     1      48.210  10.214  17.694  0.00  0.00    +0.000 S 
ATOM     27  C   UNL     1      47.893   9.149  18.981  0.00  0.00    +0.000 A 
ATOM     28  N   UNL     1      47.464   9.611  20.184  0.00  0.00    +0.000 NA
ATOM     29  C   UNL     1      47.302   8.689  21.081  0.00  0.00    +0.000 A 
ATOM     30  N   UNL     1      47.518   7.357  20.879  0.00  0.00    +0.000 N 
ATOM     31  C   UNL     1      47.892   6.834  19.664  0.00  0.00    +0.000 A 
ATOM     32  O   UNL     1      47.979   5.626  19.497  0.00  0.00    +0.000 OA
ATOM     33  C   UNL     1      48.128   7.827  18.632  0.00  0.00    +0.000 A 
ATOM     34  H   UNL     1      47.348   6.689  21.616  0.00  0.00    +0.000 HD
ENDBRANCH  21  24
ENDBRANCH  19  20
ENDBRANCH   4  19
TORSDOF 8
ENDMDL
MODEL 7
REMARK VINA RESULT:    -7.340      2.276      3.637
REMARK INTER + INTRA:         -12.064
REMARK INTER:                 -10.776
REMARK INTRA:                  -1.288
REMARK UNBOUND:                -1.291
REMARK  Name = 
REMARK  9 active torsions:
REMARK  status: ('A' for Active; 'I' for Inactive)
REMARK    1  A    between atoms: C_1  and  C_2
REMARK    2  A    between atoms: C_2  and  C_3
REMARK    3  A    between atoms: C_3  and  N_4
REMARK    4  A    between atoms: C_3  and  C_12
REMARK    5  A    between atoms: N_4  and  C_5
REMARK    6  A    between atoms: C_5  and  C_6
REMARK    7  A    between atoms: C_15  and  C_16
REMARK    8  A    between atoms: C_16  and  N_17
REMARK    9  A    between atoms: C_18  and  C_20
REMARK                            x       y       z     vdW  Elec       q    Type
REMARK                         _______ _______ _______ _____ _____    ______ ____
ROOT
ATOM      1  C   UNL     1      45.827   4.665  12.776  0.00  0.00    +0.000 A 
ATOM      2  C   UNL     1      46.257   5.999  12.649  0.00  0.00    +0.000 A 
ATOM      3  C   UNL     1      47.190   6.549  13.537  0.00  0.00    +0.000 A 
ATOM      4  C   UNL     1      47.765   5.756  14.537  0.00  0.00    +0.000 A 
ATOM      5  C   UNL     1      47.360   4.424  14.656  0.00  0.00    +0.000 A 
ATOM      6  C   UNL     1      46.400   3.891  13.796  0.00  0.00    +0.000 A 
ENDROOT
BRANCH   1   7
ATOM      7  C   UNL     1      44.696   4.132  11.886  0.00  0.00    +0.000 C 
BRANCH   7   9
ATOM      8  C   UNL     1      42.860   5.932  11.390  0.00  0.00    +0.000 C 
ATOM      9  C   UNL     1      44.148   5.248  10.953  0.00  0.00    +0.000 C 
ENDBRANCH   7   9
BRANCH   7  10
ATOM     10  N   UNL     1      45.120   2.953  11.102  0.00  0.00    +0.000 NA
ATOM     11  H   UNL     1      44.859   2.108  11.610  0.00  0.00    +0.000 HD
BRANCH  10  12
ATOM     12  C   UNL     1      44.501   2.898   9.772  0.00  0.00    +0.000 C 
BRANCH  12  13
ATOM     13  C   UNL     1      45.502   2.681   8.660  0.00  0.00    +0.000 A 
ATOM     14  C   UNL     1      46.061   1.411   8.442  0.00  0.00    +0.000 A 
ATOM     15  C   UNL     1      46.918   1.190   7.363  0.00  0.00    +0.000 A 
ATOM     16  C   UNL     1      47.223   2.239   6.496  0.00  0.00    +0.000 A 
ATOM     17  C   UNL     1      46.686   3.507   6.715  0.00  0.00    +0.000 A 
ATOM     18  C   UNL     1      45.830   3.729   7.795  0.00  0.00    +0.000 A 
ENDBRANCH  12  13
ENDBRANCH  10  12
ENDBRANCH   7  10
ENDBRANCH   1   7
BRANCH   4  19
ATOM     19  C   UNL     1      48.778   6.309  15.501  0.00  0.00    +0.000 C 
BRANCH  19  20
ATOM     20  N   UNL     1      48.208   7.362  16.303  0.00  0.00    +0.000 N 
ATOM     21  C   UNL     1      48.601   7.630  17.588  0.00  0.00    +0.000 C 
ATOM     22  O   UNL     1      49.438   6.953  18.177  0.00  0.00    +0.000 OA
ATOM     23  H   UNL     1      47.411   7.847  15.908  0.00  0.00    +0.000 HD
BRANCH  21  24
ATOM     24  C   UNL     1      48.023   8.833  18.202  0.00  0.00    +0.000 A 
ATOM     25  C   UNL     1      47.316   8.733  19.393  0.00  0.00    +0.000 A 
ATOM     26  S   UNL     1      46.769  10.235  19.990  0.00  0.00    +0.000 S 
ATOM     27  C   UNL     1      47.410  11.067  18.652  0.00  0.00    +0.000 A 
ATOM     28  N   UNL     1      47.268  12.412  18.530  0.00  0.00    +0.000 NA
ATOM     29  C   UNL     1      47.773  12.903  17.441  0.00  0.00    +0.000 A 
ATOM     30  N   UNL     1      48.411  12.175  16.479  0.00  0.00    +0.000 N 
ATOM     31  C   UNL     1      48.633  10.823  16.586  0.00  0.00    +0.000 A 
ATOM     32  O   UNL     1      49.295  10.225  15.751  0.00  0.00    +0.000 OA
ATOM     33  C   UNL     1      48.052  10.212  17.768  0.00  0.00    +0.000 A 
ATOM     34  H   UNL     1      48.803  12.626  15.666  0.00  0.00    +0.000 HD
ENDBRANCH  21  24
ENDBRANCH  19  20
ENDBRANCH   4  19
TORSDOF 8
ENDMDL
MODEL 8
REMARK VINA RESULT:    -7.256      3.283      9.066
REMARK INTER + INTRA:         -11.941
REMARK INTER:                  -9.881
REMARK INTRA:                  -2.060
REMARK UNBOUND:                -1.291
REMARK  Name = 
REMARK  9 active torsions:
REMARK  status: ('A' for Active; 'I' for Inactive)
REMARK    1  A    between atoms: C_1  and  C_2
REMARK    2  A    between atoms: C_2  and  C_3
REMARK    3  A    between atoms: C_3  and  N_4
REMARK    4  A    between atoms: C_3  and  C_12
REMARK    5  A    between atoms: N_4  and  C_5
REMARK    6  A    between atoms: C_5  and  C_6
REMARK    7  A    between atoms: C_15  and  C_16
REMARK    8  A    between atoms: C_16  and  N_17
REMARK    9  A    between atoms: C_18  and  C_20
REMARK                            x       y       z     vdW  Elec       q    Type
REMARK                         _______ _______ _______ _____ _____    ______ ____
ROOT
ATOM      1  C   UNL     1      48.951   8.121  16.214  0.00  0.00    +0.000 A 
ATOM      2  C   UNL     1      49.183   6.921  15.517  0.00  0.00    +0.000 A 
ATOM      3  C   UNL     1      48.747   6.751  14.197  0.00  0.00    +0.000 A 
ATOM      4  C   UNL     1      48.121   7.804  13.520  0.00  0.00    +0.000 A 
ATOM      5  C   UNL     1      47.904   9.006  14.197  0.00  0.00    +0.000 A 
ATOM      6  C   UNL     1      48.304   9.158  15.525  0.00  0.00    +0.000 A 
ENDROOT
BRANCH   1   7
ATOM      7  C   UNL     1      49.306   8.229  17.703  0.00  0.00    +0.000 C 
BRANCH   7   9
ATOM      8  C   UNL     1      47.860   9.725  19.292  0.00  0.00    +0.000 C 
ATOM      9  C   UNL     1      48.027   8.395  18.570  0.00  0.00    +0.000 C 
ENDBRANCH   7   9
BRANCH   7  10
ATOM     10  N   UNL     1      50.108   7.076  18.164  0.00  0.00    +0.000 NA
ATOM     11  H   UNL     1      50.913   7.423  18.686  0.00  0.00    +0.000 HD
BRANCH  10  12
ATOM     12  C   UNL     1      49.353   6.166  19.033  0.00  0.00    +0.000 C 
BRANCH  12  13
ATOM     13  C   UNL     1      48.932   4.894  18.336  0.00  0.00    +0.000 A 
ATOM     14  C   UNL     1      47.592   4.695  17.961  0.00  0.00    +0.000 A 
ATOM     15  C   UNL     1      47.218   3.560  17.242  0.00  0.00    +0.000 A 
ATOM     16  C   UNL     1      48.182   2.614  16.892  0.00  0.00    +0.000 A 
ATOM     17  C   UNL     1      49.511   2.794  17.275  0.00  0.00    +0.000 A 
ATOM     18  C   UNL     1      49.885   3.928  17.996  0.00  0.00    +0.000 A 
ENDBRANCH  12  13
ENDBRANCH  10  12
ENDBRANCH   7  10
ENDBRANCH   1   7
BRANCH   4  19
ATOM     19  C   UNL     1      47.648   7.660  12.099  0.00  0.00    +0.000 C 
BRANCH  19  20
ATOM     20  N   UNL     1      46.918   6.430  11.917  0.00  0.00    +0.000 N 
ATOM     21  C   UNL     1      45.568   6.316  12.118  0.00  0.00    +0.000 C 
ATOM     22  O   UNL     1      44.879   7.246  12.524  0.00  0.00    +0.000 OA
ATOM     23  H   UNL     1      47.473   5.603  11.729  0.00  0.00    +0.000 HD
BRANCH  21  24
ATOM     24  C   UNL     1      44.967   5.030  11.740  0.00  0.00    +0.000 A 
ATOM     25  C   UNL     1      44.263   4.290  12.680  0.00  0.00    +0.000 A 
ATOM     26  S   UNL     1      43.585   2.856  12.050  0.00  0.00    +0.000 S 
ATOM     27  C   UNL     1      44.252   3.145  10.513  0.00  0.00    +0.000 A 
ATOM     28  N   UNL     1      44.064   2.269   9.492  0.00  0.00    +0.000 NA
ATOM     29  C   UNL     1      44.663   2.601   8.390  0.00  0.00    +0.000 A 
ATOM     30  N   UNL     1      45.416   3.726   8.220  0.00  0.00    +0.000 N 
ATOM     31  C   UNL     1      45.584   4.672   9.203  0.00  0.00    +0.000 A 
ATOM     32  O   UNL     1      46.183   5.714   8.980  0.00  0.00    +0.000 OA
ATOM     33  C   UNL     1      44.968   4.332  10.472  0.00  0.00    +0.000 A 
ATOM     34  H   UNL     1      45.835   3.936   7.326  0.00  0.00    +0.000 HD
ENDBRANCH  21  24
ENDBRANCH  19  20
ENDBRANCH   4  19
TORSDOF 8
ENDMDL
MODEL 9
REMARK VINA RESULT:    -7.157      3.540      8.610
REMARK INTER + INTRA:         -11.795
REMARK INTER:                  -9.969
REMARK INTRA:                  -1.826
REMARK UNBOUND:                -1.291
REMARK  Name = 
REMARK  9 active torsions:
REMARK  status: ('A' for Active; 'I' for Inactive)
REMARK    1  A    between atoms: C_1  and  C_2
REMARK    2  A    between atoms: C_2  and  C_3
REMARK    3  A    between atoms: C_3  and  N_4
REMARK    4  A    between atoms: C_3  and  C_12
REMARK    5  A    between atoms: N_4  and  C_5
REMARK    6  A    between atoms: C_5  and  C_6
REMARK    7  A    between atoms: C_15  and  C_16
REMARK    8  A    between atoms: C_16  and  N_17
REMARK    9  A    between atoms: C_18  and  C_20
REMARK                            x       y       z     vdW  Elec       q    Type
REMARK                         _______ _______ _______ _____ _____    ______ ____
ROOT
ATOM      1  C   UNL     1      48.827   7.898  16.417  0.00  0.00    +0.000 A 
ATOM      2  C   UNL     1      48.456   9.102  15.790  0.00  0.00    +0.000 A 
ATOM      3  C   UNL     1      48.309   9.183  14.400  0.00  0.00    +0.000 A 
ATOM      4  C   UNL     1      48.468   8.041  13.606  0.00  0.00    +0.000 A 
ATOM      5  C   UNL     1      48.816   6.836  14.222  0.00  0.00    +0.000 A 
ATOM      6  C   UNL     1      49.001   6.768  15.603  0.00  0.00    +0.000 A 
ENDROOT
BRANCH   1   7
ATOM      7  C   UNL     1      49.126   7.872  17.922  0.00  0.00    +0.000 C 
BRANCH   7   9
ATOM      8  C   UNL     1      47.269   9.033  19.357  0.00  0.00    +0.000 C 
ATOM      9  C   UNL     1      47.814   7.749  18.748  0.00  0.00    +0.000 C 
ENDBRANCH   7   9
BRANCH   7  10
ATOM     10  N   UNL     1      50.074   6.795  18.278  0.00  0.00    +0.000 NA
ATOM     11  H   UNL     1      50.809   7.186  18.867  0.00  0.00    +0.000 HD
BRANCH  10  12
ATOM     12  C   UNL     1      49.438   5.692  19.008  0.00  0.00    +0.000 C 
BRANCH  12  13
ATOM     13  C   UNL     1      49.237   4.458  18.160  0.00  0.00    +0.000 A 
ATOM     14  C   UNL     1      50.332   3.655  17.797  0.00  0.00    +0.000 A 
ATOM     15  C   UNL     1      50.137   2.470  17.088  0.00  0.00    +0.000 A 
ATOM     16  C   UNL     1      48.846   2.079  16.735  0.00  0.00    +0.000 A 
ATOM     17  C   UNL     1      47.755   2.878  17.076  0.00  0.00    +0.000 A 
ATOM     18  C   UNL     1      47.949   4.065  17.784  0.00  0.00    +0.000 A 
ENDBRANCH  12  13
ENDBRANCH  10  12
ENDBRANCH   7  10
ENDBRANCH   1   7
BRANCH   4  19
ATOM     19  C   UNL     1      48.308   8.088  12.112  0.00  0.00    +0.000 C 
BRANCH  19  20
ATOM     20  N   UNL     1      47.561   6.952  11.634  0.00  0.00    +0.000 N 
ATOM     21  C   UNL     1      46.200   6.955  11.478  0.00  0.00    +0.000 C 
ATOM     22  O   UNL     1      45.502   7.916  11.786  0.00  0.00    +0.000 OA
ATOM     23  H   UNL     1      48.081   6.091  11.512  0.00  0.00    +0.000 HD
BRANCH  21  24
ATOM     24  C   UNL     1      45.622   5.765  10.838  0.00  0.00    +0.000 A 
ATOM     25  C   UNL     1      45.811   5.548   9.480  0.00  0.00    +0.000 A 
ATOM     26  S   UNL     1      45.121   4.090   8.921  0.00  0.00    +0.000 S 
ATOM     27  C   UNL     1      44.499   3.724  10.461  0.00  0.00    +0.000 A 
ATOM     28  N   UNL     1      43.772   2.597  10.672  0.00  0.00    +0.000 NA
ATOM     29  C   UNL     1      43.331   2.469  11.886  0.00  0.00    +0.000 A 
ATOM     30  N   UNL     1      43.562   3.355  12.897  0.00  0.00    +0.000 N 
ATOM     31  C   UNL     1      44.343   4.476  12.748  0.00  0.00    +0.000 A 
ATOM     32  O   UNL     1      44.608   5.192  13.703  0.00  0.00    +0.000 OA
ATOM     33  C   UNL     1      44.831   4.691  11.398  0.00  0.00    +0.000 A 
ATOM     34  H   UNL     1      43.209   3.181  13.826  0.00  0.00    +0.000 HD
ENDBRANCH  21  24
ENDBRANCH  19  20
ENDBRANCH   4  19
TORSDOF 8
ENDMDL
