MODEL 1
REMARK VINA RESULT:    -8.794      0.000      0.000
REMARK INTER + INTRA:         -12.292
REMARK INTER:                 -11.364
REMARK INTRA:                  -0.928
REMARK UNBOUND:                -0.928
REMARK  Name = 
REMARK  5 active torsions:
REMARK  status: ('A' for Active; 'I' for Inactive)
REMARK    1  A    between atoms: C_2  and  C_4
REMARK    2  A    between atoms: N_8  and  C_9
REMARK    3  A    between atoms: C_9  and  C_10
REMARK    4  A    between atoms: C_10  and  C_11
REMARK    5  A    between atoms: C_15  and  N_16
REMARK                            x       y       z     vdW  Elec       q    Type
REMARK                         _______ _______ _______ _____ _____    ______ ____
ROOT
ATOM      1  C   UNL     1      43.132   4.381  11.121  0.00  0.00    +0.000 C 
ENDROOT
BRANCH   1   6
ATOM      2  C   UNL     1      46.434   2.489   7.733  0.00  0.00    +0.000 A 
ATOM      3  C   UNL     1      45.560   1.839   8.589  0.00  0.00    +0.000 A 
ATOM      4  C   UNL     1      44.644   2.596   9.321  0.00  0.00    +0.000 A 
ATOM      5  C   UNL     1      44.605   3.986   9.184  0.00  0.00    +0.000 A 
ATOM      6  N   UNL     1      43.651   4.773   9.817  0.00  0.00    +0.000 N 
ATOM      7  N   UNL     1      45.465   4.624   8.363  0.00  0.00    +0.000 NA
ATOM      8  C   UNL     1      46.367   3.871   7.667  0.00  0.00    +0.000 A 
ATOM      9  H   UNL     1      43.791   5.756   9.603  0.00  0.00    +0.000 HD
BRANCH   2  11
ATOM     10  N   UNL     1      48.496   2.518   6.454  0.00  0.00    +0.000 N 
ATOM     11  C   UNL     1      47.441   1.769   6.922  0.00  0.00    +0.000 C 
ATOM     12  O   UNL     1      47.357   0.580   6.704  0.00  0.00    +0.000 OA
ATOM     13  H   UNL     1      49.232   2.003   5.981  0.00  0.00    +0.000 HD
ATOM     14  H   UNL     1      48.723   3.429   6.818  0.00  0.00    +0.000 HD
ENDBRANCH   2  11
ENDBRANCH   1   6
BRANCH   1  15
ATOM     15  C   UNL     1      43.390   5.433  12.209  0.00  0.00    +0.000 C 
BRANCH  15  16
ATOM     16  C   UNL     1      44.786   5.355  12.797  0.00  0.00    +0.000 A 
ATOM     17  C   UNL     1      45.289   4.192  13.383  0.00  0.00    +0.000 A 
ATOM     18  N   UNL     1      46.540   4.069  13.880  0.00  0.00    +0.000 NA
ATOM     19  C   UNL     1      47.332   5.153  13.778  0.00  0.00    +0.000 A 
ATOM     20  C   UNL     1      46.967   6.378  13.211  0.00  0.00    +0.000 A 
ATOM     21  C   UNL     1      45.649   6.450  12.734  0.00  0.00    +0.000 A 
BRANCH  20  22
ATOM     22  N   UNL     1      47.844   7.432  13.104  0.00  0.00    +0.000 N 
ATOM     23  C   UNL     1      47.382   8.807  13.269  0.00  0.00    +0.000 C 
ATOM     24  C   UNL     1      47.715   9.618  12.023  0.00  0.00    +0.000 C 
ATOM     25  C   UNL     1      49.193   9.491  11.658  0.00  0.00    +0.000 C 
ATOM     26  C   UNL     1      49.617   8.026  11.545  0.00  0.00    +0.000 C 
ATOM     27  C   UNL     1      49.258   7.232  12.803  0.00  0.00    +0.000 C 
ENDBRANCH  20  22
ENDBRANCH  15  16
ENDBRANCH   1  15
TORSDOF 5
ENDMDL
MODEL 2
REMARK VINA RESULT:    -7.892      1.920      3.266
REMARK INTER + INTRA:         -11.127
REMARK INTER:                 -10.239
REMARK INTRA:                  -0.888
REMARK UNBOUND:                -0.928
REMARK  Name = 
REMARK  5 active torsions:
REMARK  status: ('A' for Active; 'I' for Inactive)
REMARK    1  A    between atoms: C_2  and  C_4
REMARK    2  A    between atoms: N_8  and  C_9
REMARK    3  A    between atoms: C_9  and  C_10
REMARK    4  A    between atoms: C_10  and  C_11
REMARK    5  A    between atoms: C_15  and  N_16
REMARK                            x       y       z     vdW  Elec       q    Type
REMARK                         _______ _______ _______ _____ _____    ______ ____
ROOT
ATOM      1  C   UNL     1      43.246   3.839  11.067  0.00  0.00    +0.000 C 
ENDROOT
BRANCH   1   6
ATOM      2  C   UNL     1      46.547   2.831   7.319  0.00  0.00    +0.000 A 
ATOM      3  C   UNL     1      46.057   4.044   7.778  0.00  0.00    +0.000 A 
ATOM      4  C   UNL     1      45.268   4.060   8.929  0.00  0.00    +0.000 A 
ATOM      5  C   UNL     1      44.985   2.874   9.611  0.00  0.00    +0.000 A 
ATOM      6  N   UNL     1      44.285   2.851  10.810  0.00  0.00    +0.000 N 
ATOM      7  N   UNL     1      45.446   1.690   9.158  0.00  0.00    +0.000 NA
ATOM      8  C   UNL     1      46.202   1.688   8.021  0.00  0.00    +0.000 A 
ATOM      9  H   UNL     1      44.171   1.899  11.146  0.00  0.00    +0.000 HD
BRANCH   2  11
ATOM     10  N   UNL     1      48.718   2.435   6.311  0.00  0.00    +0.000 N 
ATOM     11  C   UNL     1      47.387   2.717   6.107  0.00  0.00    +0.000 C 
ATOM     12  O   UNL     1      46.925   2.836   4.993  0.00  0.00    +0.000 OA
ATOM     13  H   UNL     1      49.270   2.262   5.477  0.00  0.00    +0.000 HD
ATOM     14  H   UNL     1      49.074   2.088   7.187  0.00  0.00    +0.000 HD
ENDBRANCH   2  11
ENDBRANCH   1   6
BRANCH   1  15
ATOM     15  C   UNL     1      43.370   4.493  12.452  0.00  0.00    +0.000 C 
BRANCH  15  16
ATOM     16  C   UNL     1      44.681   5.230  12.648  0.00  0.00    +0.000 A 
ATOM     17  C   UNL     1      45.048   6.329  11.872  0.00  0.00    +0.000 A 
ATOM     18  N   UNL     1      46.187   7.037  12.042  0.00  0.00    +0.000 NA
ATOM     19  C   UNL     1      46.994   6.637  13.044  0.00  0.00    +0.000 A 
ATOM     20  C   UNL     1      46.753   5.562  13.904  0.00  0.00    +0.000 A 
ATOM     21  C   UNL     1      45.566   4.853  13.661  0.00  0.00    +0.000 A 
BRANCH  20  22
ATOM     22  N   UNL     1      47.604   5.235  14.933  0.00  0.00    +0.000 N 
ATOM     23  C   UNL     1      47.456   3.972  15.651  0.00  0.00    +0.000 C 
ATOM     24  C   UNL     1      47.265   4.241  17.138  0.00  0.00    +0.000 C 
ATOM     25  C   UNL     1      48.366   5.149  17.683  0.00  0.00    +0.000 C 
ATOM     26  C   UNL     1      48.492   6.430  16.859  0.00  0.00    +0.000 C 
ATOM     27  C   UNL     1      48.669   6.132  15.369  0.00  0.00    +0.000 C 
ENDBRANCH  20  22
ENDBRANCH  15  16
ENDBRANCH   1  15
TORSDOF 5
ENDMDL
MODEL 3
REMARK VINA RESULT:    -7.035      3.273      7.574
REMARK INTER + INTRA:         -10.020
REMARK INTER:                  -9.287
REMARK INTRA:                  -0.733
REMARK UNBOUND:                -0.928
REMARK  Name = 
REMARK  5 active torsions:
REMARK  status: ('A' for Active; 'I' for Inactive)
REMARK    1  A    between atoms: C_2  and  C_4
REMARK    2  A    between atoms: N_8  and  C_9
REMARK    3  A    between atoms: C_9  and  C_10
REMARK    4  A    between atoms: C_10  and  C_11
REMARK    5  A    between atoms: C_15  and  N_16
REMARK                            x       y       z     vdW  Elec       q    Type
REMARK                         _______ _______ _______ _____ _____    ______ ____
ROOT
ATOM      1  C   UNL     1      45.876   6.633  13.277  0.00  0.00    +0.000 C 
ENDROOT
BRANCH   1   6
ATOM      2  C   UNL     1      48.517   4.088  16.814  0.00  0.00    +0.000 A 
ATOM      3  C   UNL     1      47.427   3.693  16.055  0.00  0.00    +0.000 A 
ATOM      4  C   UNL     1      46.974   4.533  15.036  0.00  0.00    +0.000 A 
ATOM      5  C   UNL     1      47.616   5.748  14.783  0.00  0.00    +0.000 A 
ATOM      6  N   UNL     1      47.262   6.572  13.723  0.00  0.00    +0.000 N 
ATOM      7  N   UNL     1      48.667   6.143  15.530  0.00  0.00    +0.000 NA
ATOM      8  C   UNL     1      49.088   5.318  16.533  0.00  0.00    +0.000 A 
ATOM      9  H   UNL     1      47.835   7.411  13.708  0.00  0.00    +0.000 HD
BRANCH   2  11
ATOM     10  N   UNL     1      48.327   3.231  19.076  0.00  0.00    +0.000 N 
ATOM     11  C   UNL     1      49.064   3.264  17.915  0.00  0.00    +0.000 C 
ATOM     12  O   UNL     1      50.090   2.631  17.794  0.00  0.00    +0.000 OA
ATOM     13  H   UNL     1      48.653   2.591  19.793  0.00  0.00    +0.000 HD
ATOM     14  H   UNL     1      47.367   3.534  19.122  0.00  0.00    +0.000 HD
ENDBRANCH   2  11
ENDBRANCH   1   6
BRANCH   1  15
ATOM     15  C   UNL     1      45.728   6.471  11.757  0.00  0.00    +0.000 C 
BRANCH  15  16
ATOM     16  C   UNL     1      45.131   5.136  11.354  0.00  0.00    +0.000 A 
ATOM     17  C   UNL     1      44.163   4.485  12.120  0.00  0.00    +0.000 A 
ATOM     18  N   UNL     1      43.578   3.316  11.775  0.00  0.00    +0.000 NA
ATOM     19  C   UNL     1      43.967   2.777  10.604  0.00  0.00    +0.000 A 
ATOM     20  C   UNL     1      44.917   3.319   9.733  0.00  0.00    +0.000 A 
ATOM     21  C   UNL     1      45.505   4.520  10.158  0.00  0.00    +0.000 A 
BRANCH  20  22
ATOM     22  N   UNL     1      45.236   2.731   8.531  0.00  0.00    +0.000 N 
ATOM     23  C   UNL     1      45.385   1.283   8.425  0.00  0.00    +0.000 C 
ATOM     24  C   UNL     1      46.771   0.943   7.894  0.00  0.00    +0.000 C 
ATOM     25  C   UNL     1      47.072   1.702   6.602  0.00  0.00    +0.000 C 
ATOM     26  C   UNL     1      46.853   3.205   6.775  0.00  0.00    +0.000 C 
ATOM     27  C   UNL     1      45.459   3.517   7.323  0.00  0.00    +0.000 C 
ENDBRANCH  20  22
ENDBRANCH  15  16
ENDBRANCH   1  15
TORSDOF 5
ENDMDL
MODEL 4
REMARK VINA RESULT:    -6.964      4.170      8.323
REMARK INTER + INTRA:          -9.927
REMARK INTER:                  -9.339
REMARK INTRA:                  -0.587
REMARK UNBOUND:                -0.928
REMARK  Name = 
REMARK  5 active torsions:
REMARK  status: ('A' for Active; 'I' for Inactive)
REMARK    1  A    between atoms: C_2  and  C_4
REMARK    2  A    between atoms: N_8  and  C_9
REMARK    3  A    between atoms: C_9  and  C_10
REMARK    4  A    between atoms: C_10  and  C_11
REMARK    5  A    between atoms: C_15  and  N_16
REMARK                            x       y       z     vdW  Elec       q    Type
REMARK                         _______ _______ _______ _____ _____    ______ ____
ROOT
ATOM      1  C   UNL     1      47.013   5.361  13.794  0.00  0.00    +0.000 C 
ENDROOT
BRANCH   1   6
ATOM      2  C   UNL     1      49.331   4.874  18.305  0.00  0.00    +0.000 A 
ATOM      3  C   UNL     1      49.312   5.940  17.419  0.00  0.00    +0.000 A 
ATOM      4  C   UNL     1      48.470   5.878  16.308  0.00  0.00    +0.000 A 
ATOM      5  C   UNL     1      47.656   4.763  16.098  0.00  0.00    +0.000 A 
ATOM      6  N   UNL     1      46.735   4.695  15.060  0.00  0.00    +0.000 N 
ATOM      7  N   UNL     1      47.683   3.717  16.949  0.00  0.00    +0.000 NA
ATOM      8  C   UNL     1      48.524   3.784  18.023  0.00  0.00    +0.000 A 
ATOM      9  H   UNL     1      46.245   3.805  15.067  0.00  0.00    +0.000 HD
BRANCH   2  11
ATOM     10  N   UNL     1      49.661   4.256  20.628  0.00  0.00    +0.000 N 
ATOM     11  C   UNL     1      50.193   4.850  19.507  0.00  0.00    +0.000 C 
ATOM     12  O   UNL     1      51.317   5.304  19.500  0.00  0.00    +0.000 OA
ATOM     13  H   UNL     1      50.288   4.156  21.420  0.00  0.00    +0.000 HD
ATOM     14  H   UNL     1      48.849   3.661  20.597  0.00  0.00    +0.000 HD
ENDBRANCH   2  11
ENDBRANCH   1   6
BRANCH   1  15
ATOM     15  C   UNL     1      45.742   5.840  13.077  0.00  0.00    +0.000 C 
BRANCH  15  16
ATOM     16  C   UNL     1      44.996   4.722  12.374  0.00  0.00    +0.000 A 
ATOM     17  C   UNL     1      43.914   4.060  12.956  0.00  0.00    +0.000 A 
ATOM     18  N   UNL     1      43.198   3.089  12.348  0.00  0.00    +0.000 NA
ATOM     19  C   UNL     1      43.570   2.770  11.093  0.00  0.00    +0.000 A 
ATOM     20  C   UNL     1      44.625   3.352  10.383  0.00  0.00    +0.000 A 
ATOM     21  C   UNL     1      45.344   4.337  11.078  0.00  0.00    +0.000 A 
BRANCH  20  22
ATOM     22  N   UNL     1      44.923   3.004   9.087  0.00  0.00    +0.000 N 
ATOM     23  C   UNL     1      45.048   1.602   8.701  0.00  0.00    +0.000 C 
ATOM     24  C   UNL     1      46.424   1.352   8.097  0.00  0.00    +0.000 C 
ATOM     25  C   UNL     1      46.723   2.342   6.973  0.00  0.00    +0.000 C 
ATOM     26  C   UNL     1      46.531   3.787   7.436  0.00  0.00    +0.000 C 
ATOM     27  C   UNL     1      45.147   4.006   8.051  0.00  0.00    +0.000 C 
ENDBRANCH  20  22
ENDBRANCH  15  16
ENDBRANCH   1  15
TORSDOF 5
ENDMDL
MODEL 5
REMARK VINA RESULT:    -6.554      2.777      7.027
REMARK INTER + INTRA:          -9.397
REMARK INTER:                  -8.688
REMARK INTRA:                  -0.709
REMARK UNBOUND:                -0.928
REMARK  Name = 
REMARK  5 active torsions:
REMARK  status: ('A' for Active; 'I' for Inactive)
REMARK    1  A    between atoms: C_2  and  C_4
REMARK    2  A    between atoms: N_8  and  C_9
REMARK    3  A    between atoms: C_9  and  C_10
REMARK    4  A    between atoms: C_10  and  C_11
REMARK    5  A    between atoms: C_15  and  N_16
REMARK                            x       y       z     vdW  Elec       q    Type
REMARK                         _______ _______ _______ _____ _____    ______ ____
ROOT
ATOM      1  C   UNL     1      47.272   5.206  13.800  0.00  0.00    +0.000 C 
ENDROOT
BRANCH   1   6
ATOM      2  C   UNL     1      48.797   9.655  11.839  0.00  0.00    +0.000 A 
ATOM      3  C   UNL     1      49.092   8.358  11.450  0.00  0.00    +0.000 A 
ATOM      4  C   UNL     1      48.421   7.300  12.066  0.00  0.00    +0.000 A 
ATOM      5  C   UNL     1      47.463   7.547  13.052  0.00  0.00    +0.000 A 
ATOM      6  N   UNL     1      46.703   6.536  13.626  0.00  0.00    +0.000 N 
ATOM      7  N   UNL     1      47.185   8.808  13.444  0.00  0.00    +0.000 NA
ATOM      8  C   UNL     1      47.861   9.831  12.845  0.00  0.00    +0.000 A 
ATOM      9  H   UNL     1      46.069   6.911  14.326  0.00  0.00    +0.000 HD
BRANCH   2  11
ATOM     10  N   UNL     1      50.514  11.365  11.953  0.00  0.00    +0.000 N 
ATOM     11  C   UNL     1      49.459  10.836  11.245  0.00  0.00    +0.000 C 
ATOM     12  O   UNL     1      49.113  11.299  10.180  0.00  0.00    +0.000 OA
ATOM     13  H   UNL     1      51.026  12.114  11.497  0.00  0.00    +0.000 HD
ATOM     14  H   UNL     1      50.977  10.867  12.695  0.00  0.00    +0.000 HD
ENDBRANCH   2  11
ENDBRANCH   1   6
BRANCH   1  15
ATOM     15  C   UNL     1      46.205   4.108  13.917  0.00  0.00    +0.000 C 
BRANCH  15  16
ATOM     16  C   UNL     1      45.160   4.170  12.819  0.00  0.00    +0.000 A 
ATOM     17  C   UNL     1      43.922   4.787  12.996  0.00  0.00    +0.000 A 
ATOM     18  N   UNL     1      42.982   4.900  12.031  0.00  0.00    +0.000 NA
ATOM     19  C   UNL     1      43.297   4.384  10.828  0.00  0.00    +0.000 A 
ATOM     20  C   UNL     1      44.498   3.746  10.504  0.00  0.00    +0.000 A 
ATOM     21  C   UNL     1      45.423   3.640  11.554  0.00  0.00    +0.000 A 
BRANCH  20  22
ATOM     22  N   UNL     1      44.768   3.278   9.240  0.00  0.00    +0.000 N 
ATOM     23  C   UNL     1      44.772   1.845   8.960  0.00  0.00    +0.000 C 
ATOM     24  C   UNL     1      46.122   1.433   8.388  0.00  0.00    +0.000 C 
ATOM     25  C   UNL     1      46.510   2.307   7.196  0.00  0.00    +0.000 C 
ATOM     26  C   UNL     1      46.442   3.794   7.549  0.00  0.00    +0.000 C 
ATOM     27  C   UNL     1      45.082   4.177   8.134  0.00  0.00    +0.000 C 
ENDBRANCH  20  22
ENDBRANCH  15  16
ENDBRANCH   1  15
TORSDOF 5
ENDMDL
MODEL 6
REMARK VINA RESULT:    -6.392      3.416      5.955
REMARK INTER + INTRA:          -9.188
REMARK INTER:                  -8.096
REMARK INTRA:                  -1.092
REMARK UNBOUND:                -0.928
REMARK  Name = 
REMARK  5 active torsions:
REMARK  status: ('A' for Active; 'I' for Inactive)
REMARK    1  A    between atoms: C_2  and  C_4
REMARK    2  A    between atoms: N_8  and  C_9
REMARK    3  A    between atoms: C_9  and  C_10
REMARK    4  A    between atoms: C_10  and  C_11
REMARK    5  A    between atoms: C_15  and  N_16
REMARK                            x       y       z     vdW  Elec       q    Type
REMARK                         _______ _______ _______ _____ _____    ______ ____
ROOT
ATOM      1  C   UNL     1      48.714   7.450  13.107  0.00  0.00    +0.000 C 
ENDROOT
BRANCH   1   6
ATOM      2  C   UNL     1      45.035   4.200  11.744  0.00  0.00    +0.000 A 
ATOM      3  C   UNL     1      45.816   4.238  12.887  0.00  0.00    +0.000 A 
ATOM      4  C   UNL     1      46.661   5.330  13.091  0.00  0.00    +0.000 A 
ATOM      5  C   UNL     1      46.710   6.370  12.160  0.00  0.00    +0.000 A 
ATOM      6  N   UNL     1      47.462   7.520  12.364  0.00  0.00    +0.000 N 
ATOM      7  N   UNL     1      45.963   6.329  11.038  0.00  0.00    +0.000 NA
ATOM      8  C   UNL     1      45.154   5.246  10.844  0.00  0.00    +0.000 A 
ATOM      9  H   UNL     1      47.377   8.154  11.575  0.00  0.00    +0.000 HD
BRANCH   2  11
ATOM     10  N   UNL     1      43.672   2.348  12.520  0.00  0.00    +0.000 N 
ATOM     11  C   UNL     1      44.114   3.081  11.443  0.00  0.00    +0.000 C 
ATOM     12  O   UNL     1      43.746   2.840  10.314  0.00  0.00    +0.000 OA
ATOM     13  H   UNL     1      42.967   1.645  12.321  0.00  0.00    +0.000 HD
ATOM     14  H   UNL     1      43.756   2.670  13.470  0.00  0.00    +0.000 HD
ENDBRANCH   2  11
ENDBRANCH   1   6
BRANCH   1  15
ATOM     15  C   UNL     1      48.867   8.586  14.129  0.00  0.00    +0.000 C 
BRANCH  15  16
ATOM     16  C   UNL     1      48.750   8.116  15.567  0.00  0.00    +0.000 A 
ATOM     17  C   UNL     1      48.560   8.997  16.631  0.00  0.00    +0.000 A 
ATOM     18  N   UNL     1      48.410   8.616  17.919  0.00  0.00    +0.000 NA
ATOM     19  C   UNL     1      48.438   7.290  18.156  0.00  0.00    +0.000 A 
ATOM     20  C   UNL     1      48.611   6.294  17.191  0.00  0.00    +0.000 A 
ATOM     21  C   UNL     1      48.786   6.755  15.877  0.00  0.00    +0.000 A 
BRANCH  20  22
ATOM     22  N   UNL     1      48.588   4.954  17.501  0.00  0.00    +0.000 N 
ATOM     23  C   UNL     1      49.675   4.346  18.262  0.00  0.00    +0.000 C 
ATOM     24  C   UNL     1      50.283   3.196  17.469  0.00  0.00    +0.000 C 
ATOM     25  C   UNL     1      49.209   2.211  17.010  0.00  0.00    +0.000 C 
ATOM     26  C   UNL     1      48.083   2.923  16.259  0.00  0.00    +0.000 C 
ATOM     27  C   UNL     1      47.501   4.081  17.071  0.00  0.00    +0.000 C 
ENDBRANCH  20  22
ENDBRANCH  15  16
ENDBRANCH   1  15
TORSDOF 5
ENDMDL
MODEL 7
REMARK VINA RESULT:    -6.328      3.671      7.916
REMARK INTER + INTRA:          -9.105
REMARK INTER:                  -8.526
REMARK INTRA:                  -0.580
REMARK UNBOUND:                -0.928
REMARK  Name = 
REMARK  5 active torsions:
REMARK  status: ('A' for Active; 'I' for Inactive)
REMARK    1  A    between atoms: C_2  and  C_4
REMARK    2  A    between atoms: N_8  and  C_9
REMARK    3  A    between atoms: C_9  and  C_10
REMARK    4  A    between atoms: C_10  and  C_11
REMARK    5  A    between atoms: C_15  and  N_16
REMARK                            x       y       z     vdW  Elec       q    Type
REMARK                         _______ _______ _______ _____ _____    ______ ____
ROOT
ATOM      1  C   UNL     1      47.127   6.729  12.842  0.00  0.00    +0.000 C 
ENDROOT
BRANCH   1   6
ATOM      2  C   UNL     1      50.668   6.430  16.494  0.00  0.00    +0.000 A 
ATOM      3  C   UNL     1      50.590   7.264  15.390  0.00  0.00    +0.000 A 
ATOM      4  C   UNL     1      49.429   7.249  14.614  0.00  0.00    +0.000 A 
ATOM      5  C   UNL     1      48.362   6.414  14.952  0.00  0.00    +0.000 A 
ATOM      6  N   UNL     1      47.154   6.432  14.269  0.00  0.00    +0.000 N 
ATOM      7  N   UNL     1      48.441   5.589  16.018  0.00  0.00    +0.000 NA
ATOM      8  C   UNL     1      49.588   5.602  16.757  0.00  0.00    +0.000 A 
ATOM      9  H   UNL     1      46.508   5.750  14.655  0.00  0.00    +0.000 HD
BRANCH   2  11
ATOM     10  N   UNL     1      52.442   7.582  17.683  0.00  0.00    +0.000 N 
ATOM     11  C   UNL     1      51.858   6.376  17.371  0.00  0.00    +0.000 C 
ATOM     12  O   UNL     1      52.282   5.330  17.814  0.00  0.00    +0.000 OA
ATOM     13  H   UNL     1      53.197   7.550  18.360  0.00  0.00    +0.000 HD
ATOM     14  H   UNL     1      51.978   8.465  17.542  0.00  0.00    +0.000 HD
ENDBRANCH   2  11
ENDBRANCH   1   6
BRANCH   1  15
ATOM     15  C   UNL     1      45.702   6.851  12.282  0.00  0.00    +0.000 C 
BRANCH  15  16
ATOM     16  C   UNL     1      45.103   5.516  11.881  0.00  0.00    +0.000 A 
ATOM     17  C   UNL     1      44.219   4.814  12.700  0.00  0.00    +0.000 A 
ATOM     18  N   UNL     1      43.632   3.644  12.363  0.00  0.00    +0.000 NA
ATOM     19  C   UNL     1      43.932   3.156  11.144  0.00  0.00    +0.000 A 
ATOM     20  C   UNL     1      44.792   3.752  10.217  0.00  0.00    +0.000 A 
ATOM     21  C   UNL     1      45.388   4.952  10.636  0.00  0.00    +0.000 A 
BRANCH  20  22
ATOM     22  N   UNL     1      45.020   3.216   8.971  0.00  0.00    +0.000 N 
ATOM     23  C   UNL     1      44.998   1.771   8.766  0.00  0.00    +0.000 C 
ATOM     24  C   UNL     1      46.326   1.310   8.180  0.00  0.00    +0.000 C 
ATOM     25  C   UNL     1      46.692   2.116   6.935  0.00  0.00    +0.000 C 
ATOM     26  C   UNL     1      46.654   3.619   7.212  0.00  0.00    +0.000 C 
ATOM     27  C   UNL     1      45.315   4.052   7.813  0.00  0.00    +0.000 C 
ENDBRANCH  20  22
ENDBRANCH  15  16
ENDBRANCH   1  15
TORSDOF 5
ENDMDL
MODEL 8
REMARK VINA RESULT:    -6.185      4.538      8.556
REMARK INTER + INTRA:          -8.921
REMARK INTER:                  -8.180
REMARK INTRA:                  -0.741
REMARK UNBOUND:                -0.928
REMARK  Name = 
REMARK  5 active torsions:
REMARK  status: ('A' for Active; 'I' for Inactive)
REMARK    1  A    between atoms: C_2  and  C_4
REMARK    2  A    between atoms: N_8  and  C_9
REMARK    3  A    between atoms: C_9  and  C_10
REMARK    4  A    between atoms: C_10  and  C_11
REMARK    5  A    between atoms: C_15  and  N_16
REMARK                            x       y       z     vdW  Elec       q    Type
REMARK                         _______ _______ _______ _____ _____    ______ ____
ROOT
ATOM      1  C   UNL     1      49.109   7.298  14.308  0.00  0.00    +0.000 C 
ENDROOT
BRANCH   1   6
ATOM      2  C   UNL     1      48.715   5.573  19.086  0.00  0.00    +0.000 A 
ATOM      3  C   UNL     1      49.257   4.974  17.960  0.00  0.00    +0.000 A 
ATOM      4  C   UNL     1      49.379   5.724  16.789  0.00  0.00    +0.000 A 
ATOM      5  C   UNL     1      48.968   7.058  16.757  0.00  0.00    +0.000 A 
ATOM      6  N   UNL     1      49.156   7.871  15.647  0.00  0.00    +0.000 N 
ATOM      7  N   UNL     1      48.425   7.640  17.846  0.00  0.00    +0.000 NA
ATOM      8  C   UNL     1      48.297   6.890  18.979  0.00  0.00    +0.000 A 
ATOM      9  H   UNL     1      48.785   8.802  15.811  0.00  0.00    +0.000 HD
BRANCH   2  11
ATOM     10  N   UNL     1      48.521   3.482  20.300  0.00  0.00    +0.000 N 
ATOM     11  C   UNL     1      48.544   4.856  20.368  0.00  0.00    +0.000 C 
ATOM     12  O   UNL     1      48.456   5.442  21.425  0.00  0.00    +0.000 OA
ATOM     13  H   UNL     1      48.500   2.992  21.189  0.00  0.00    +0.000 HD
ATOM     14  H   UNL     1      48.836   2.970  19.492  0.00  0.00    +0.000 HD
ENDBRANCH   2  11
ENDBRANCH   1   6
BRANCH   1  15
ATOM     15  C   UNL     1      47.731   7.440  13.643  0.00  0.00    +0.000 C 
BRANCH  15  16
ATOM     16  C   UNL     1      47.082   6.107  13.323  0.00  0.00    +0.000 A 
ATOM     17  C   UNL     1      47.015   5.065  14.249  0.00  0.00    +0.000 A 
ATOM     18  N   UNL     1      46.411   3.878  14.017  0.00  0.00    +0.000 NA
ATOM     19  C   UNL     1      45.834   3.728  12.810  0.00  0.00    +0.000 A 
ATOM     20  C   UNL     1      45.815   4.685  11.791  0.00  0.00    +0.000 A 
ATOM     21  C   UNL     1      46.480   5.886  12.084  0.00  0.00    +0.000 A 
BRANCH  20  22
ATOM     22  N   UNL     1      45.170   4.477  10.595  0.00  0.00    +0.000 N 
ATOM     23  C   UNL     1      44.157   3.434  10.465  0.00  0.00    +0.000 C 
ATOM     24  C   UNL     1      44.546   2.468   9.353  0.00  0.00    +0.000 C 
ATOM     25  C   UNL     1      44.851   3.213   8.054  0.00  0.00    +0.000 C 
ATOM     26  C   UNL     1      45.886   4.316   8.273  0.00  0.00    +0.000 C 
ATOM     27  C   UNL     1      45.478   5.262   9.404  0.00  0.00    +0.000 C 
ENDBRANCH  20  22
ENDBRANCH  15  16
ENDBRANCH   1  15
TORSDOF 5
ENDMDL
MODEL 9
REMARK VINA RESULT:    -6.001      2.882      5.040
REMARK INTER + INTRA:          -8.683
REMARK INTER:                  -7.546
REMARK INTRA:                  -1.137
REMARK UNBOUND:                -0.928
REMARK  Name = 
REMARK  5 active torsions:
REMARK  status: ('A' for Active; 'I' for Inactive)
REMARK    1  A    between atoms: C_2  and  C_4
REMARK    2  A    between atoms: N_8  and  C_9
REMARK    3  A    between atoms: C_9  and  C_10
REMARK    4  A    between atoms: C_10  and  C_11
REMARK    5  A    between atoms: C_15  and  N_16
REMARK                            x       y       z     vdW  Elec       q    Type
REMARK                         _______ _______ _______ _____ _____    ______ ____
ROOT
ATOM      1  C   UNL     1      47.311   4.570  16.316  0.00  0.00    +0.000 C 
ENDROOT
BRANCH   1   6
ATOM      2  C   UNL     1      45.283   4.692  11.644  0.00  0.00    +0.000 A 
ATOM      3  C   UNL     1      45.788   5.717  12.427  0.00  0.00    +0.000 A 
ATOM      4  C   UNL     1      46.431   5.398  13.625  0.00  0.00    +0.000 A 
ATOM      5  C   UNL     1      46.569   4.066  14.020  0.00  0.00    +0.000 A 
ATOM      6  N   UNL     1      47.282   3.693  15.153  0.00  0.00    +0.000 N 
ATOM      7  N   UNL     1      46.065   3.066  13.268  0.00  0.00    +0.000 NA
ATOM      8  C   UNL     1      45.424   3.394  12.109  0.00  0.00    +0.000 A 
ATOM      9  H   UNL     1      47.262   2.685  15.279  0.00  0.00    +0.000 HD
BRANCH   2  11
ATOM     10  N   UNL     1      45.380   5.220   9.278  0.00  0.00    +0.000 N 
ATOM     11  C   UNL     1      44.584   4.935  10.363  0.00  0.00    +0.000 C 
ATOM     12  O   UNL     1      43.378   4.861  10.267  0.00  0.00    +0.000 OA
ATOM     13  H   UNL     1      44.905   5.291   8.384  0.00  0.00    +0.000 HD
ATOM     14  H   UNL     1      46.371   5.045   9.268  0.00  0.00    +0.000 HD
ENDBRANCH   2  11
ENDBRANCH   1   6
BRANCH   1  15
ATOM     15  C   UNL     1      48.634   4.489  17.094  0.00  0.00    +0.000 C 
BRANCH  15  16
ATOM     16  C   UNL     1      49.659   5.509  16.635  0.00  0.00    +0.000 A 
ATOM     17  C   UNL     1      50.980   5.499  17.084  0.00  0.00    +0.000 A 
ATOM     18  N   UNL     1      51.932   6.364  16.669  0.00  0.00    +0.000 NA
ATOM     19  C   UNL     1      51.553   7.275  15.753  0.00  0.00    +0.000 A 
ATOM     20  C   UNL     1      50.271   7.398  15.209  0.00  0.00    +0.000 A 
ATOM     21  C   UNL     1      49.322   6.487  15.698  0.00  0.00    +0.000 A 
BRANCH  20  22
ATOM     22  N   UNL     1      49.965   8.329  14.245  0.00  0.00    +0.000 N 
ATOM     23  C   UNL     1      48.575   8.645  13.927  0.00  0.00    +0.000 C 
ATOM     24  C   UNL     1      48.315   8.400  12.446  0.00  0.00    +0.000 C 
ATOM     25  C   UNL     1      49.339   9.126  11.576  0.00  0.00    +0.000 C 
ATOM     26  C   UNL     1      50.770   8.782  11.992  0.00  0.00    +0.000 C 
ATOM     27  C   UNL     1      51.000   9.023  13.485  0.00  0.00    +0.000 C 
ENDBRANCH  20  22
ENDBRANCH  15  16
ENDBRANCH   1  15
TORSDOF 5
ENDMDL
