MODEL 1
REMARK VINA RESULT:    -8.648      0.000      0.000
REMARK INTER + INTRA:         -13.149
REMARK INTER:                 -12.187
REMARK INTRA:                  -0.962
REMARK UNBOUND:                -0.962
REMARK  Name = 
REMARK  7 active torsions:
REMARK  status: ('A' for Active; 'I' for Inactive)
REMARK    1  A    between atoms: C_2  and  C_20
REMARK    2  A    between atoms: N_3  and  C_4
REMARK    3  A    between atoms: C_4  and  C_5
REMARK    4  A    between atoms: C_8  and  C_9
REMARK    5  A    between atoms: C_9  and  N_10
REMARK    6  A    between atoms: N_10  and  C_11
REMARK    7  A    between atoms: C_11  and  C_12
REMARK                            x       y       z     vdW  Elec       q    Type
REMARK                         _______ _______ _______ _____ _____    ______ ____
ROOT
ATOM      1  C   UNL     1      46.847   5.954  13.120  0.00  0.00    +0.000 A 
ATOM      2  C   UNL     1      46.689   6.506  11.841  0.00  0.00    +0.000 A 
ATOM      3  C   UNL     1      45.599   6.149  11.041  0.00  0.00    +0.000 A 
ATOM      4  C   UNL     1      44.641   5.232  11.499  0.00  0.00    +0.000 A 
ATOM      5  C   UNL     1      44.794   4.695  12.786  0.00  0.00    +0.000 A 
ATOM      6  C   UNL     1      45.878   5.061  13.592  0.00  0.00    +0.000 A 
ENDROOT
BRANCH   1   7
ATOM      7  C   UNL     1      48.018   6.351  13.980  0.00  0.00    +0.000 C 
BRANCH   7  10
ATOM      8  O   UNL     1      49.995   6.236  15.934  0.00  0.00    +0.000 OA
ATOM      9  C   UNL     1      48.847   5.955  16.253  0.00  0.00    +0.000 C 
ATOM     10  N   UNL     1      47.806   5.974  15.353  0.00  0.00    +0.000 N 
ATOM     11  H   UNL     1      46.862   5.812  15.664  0.00  0.00    +0.000 HD
BRANCH   9  12
ATOM     12  C   UNL     1      48.474   5.580  17.617  0.00  0.00    +0.000 A 
ATOM     13  C   UNL     1      48.372   4.293  18.138  0.00  0.00    +0.000 A 
ATOM     14  N   UNL     1      47.988   4.383  19.452  0.00  0.00    +0.000 N 
ATOM     15  C   UNL     1      47.835   5.691  19.801  0.00  0.00    +0.000 A 
ATOM     16  N   UNL     1      47.454   6.104  21.023  0.00  0.00    +0.000 NA
ATOM     17  C   UNL     1      47.377   7.450  21.121  0.00  0.00    +0.000 A 
ATOM     18  C   UNL     1      47.663   8.352  20.106  0.00  0.00    +0.000 A 
ATOM     19  C   UNL     1      48.056   7.867  18.857  0.00  0.00    +0.000 A 
ATOM     20  C   UNL     1      48.141   6.472  18.692  0.00  0.00    +0.000 A 
ATOM     21  H   UNL     1      47.834   3.614  20.087  0.00  0.00    +0.000 HD
ENDBRANCH   9  12
ENDBRANCH   7  10
ENDBRANCH   1   7
BRANCH   4  22
ATOM     22  C   UNL     1      43.452   4.844  10.642  0.00  0.00    +0.000 C 
BRANCH  22  23
ATOM     23  N   UNL     1      43.881   4.295   9.360  0.00  0.00    +0.000 NA
ATOM     24  H   UNL     1      44.609   4.891   8.969  0.00  0.00    +0.000 HD
BRANCH  23  25
ATOM     25  C   UNL     1      44.409   2.937   9.478  0.00  0.00    +0.000 C 
BRANCH  25  26
ATOM     26  C   UNL     1      45.485   2.694   8.439  0.00  0.00    +0.000 A 
ATOM     27  C   UNL     1      46.083   1.435   8.292  0.00  0.00    +0.000 A 
ATOM     28  C   UNL     1      47.049   1.218   7.305  0.00  0.00    +0.000 A 
ATOM     29  C   UNL     1      47.434   2.259   6.462  0.00  0.00    +0.000 A 
ATOM     30  C   UNL     1      46.866   3.522   6.613  0.00  0.00    +0.000 A 
ATOM     31  C   UNL     1      45.895   3.737   7.592  0.00  0.00    +0.000 A 
ENDBRANCH  25  26
ENDBRANCH  23  25
ENDBRANCH  22  23
ENDBRANCH   4  22
TORSDOF 7
ENDMDL
MODEL 2
REMARK VINA RESULT:    -8.362      1.711      2.336
REMARK INTER + INTRA:         -12.745
REMARK INTER:                 -11.813
REMARK INTRA:                  -0.933
REMARK UNBOUND:                -0.962
REMARK  Name = 
REMARK  7 active torsions:
REMARK  status: ('A' for Active; 'I' for Inactive)
REMARK    1  A    between atoms: C_2  and  C_20
REMARK    2  A    between atoms: N_3  and  C_4
REMARK    3  A    between atoms: C_4  and  C_5
REMARK    4  A    between atoms: C_8  and  C_9
REMARK    5  A    between atoms: C_9  and  N_10
REMARK    6  A    between atoms: N_10  and  C_11
REMARK    7  A    between atoms: C_11  and  C_12
REMARK                            x       y       z     vdW  Elec       q    Type
REMARK                         _______ _______ _______ _____ _____    ______ ____
ROOT
ATOM      1  C   UNL     1      46.365   7.274  12.696  0.00  0.00    +0.000 A 
ATOM      2  C   UNL     1      45.200   7.825  12.146  0.00  0.00    +0.000 A 
ATOM      3  C   UNL     1      44.290   7.021  11.453  0.00  0.00    +0.000 A 
ATOM      4  C   UNL     1      44.523   5.647  11.290  0.00  0.00    +0.000 A 
ATOM      5  C   UNL     1      45.682   5.096  11.856  0.00  0.00    +0.000 A 
ATOM      6  C   UNL     1      46.587   5.898  12.562  0.00  0.00    +0.000 A 
ENDROOT
BRANCH   1   7
ATOM      7  C   UNL     1      47.335   8.143  13.451  0.00  0.00    +0.000 C 
BRANCH   7  10
ATOM      8  O   UNL     1      49.818   7.015  13.997  0.00  0.00    +0.000 OA
ATOM      9  C   UNL     1      48.972   7.012  14.883  0.00  0.00    +0.000 C 
ATOM     10  N   UNL     1      47.714   7.537  14.700  0.00  0.00    +0.000 N 
ATOM     11  H   UNL     1      47.067   7.588  15.472  0.00  0.00    +0.000 HD
BRANCH   9  12
ATOM     12  C   UNL     1      49.221   6.455  16.213  0.00  0.00    +0.000 A 
ATOM     13  C   UNL     1      50.045   6.979  17.204  0.00  0.00    +0.000 A 
ATOM     14  N   UNL     1      50.004   6.146  18.293  0.00  0.00    +0.000 N 
ATOM     15  C   UNL     1      49.177   5.093  18.038  0.00  0.00    +0.000 A 
ATOM     16  N   UNL     1      48.938   4.098  18.910  0.00  0.00    +0.000 NA
ATOM     17  C   UNL     1      48.081   3.171  18.425  0.00  0.00    +0.000 A 
ATOM     18  C   UNL     1      47.477   3.204  17.176  0.00  0.00    +0.000 A 
ATOM     19  C   UNL     1      47.761   4.264  16.312  0.00  0.00    +0.000 A 
ATOM     20  C   UNL     1      48.657   5.252  16.758  0.00  0.00    +0.000 A 
ATOM     21  H   UNL     1      50.500   6.269  19.162  0.00  0.00    +0.000 HD
ENDBRANCH   9  12
ENDBRANCH   7  10
ENDBRANCH   1   7
BRANCH   4  22
ATOM     22  C   UNL     1      43.540   4.765  10.545  0.00  0.00    +0.000 C 
BRANCH  22  23
ATOM     23  N   UNL     1      44.094   4.311   9.274  0.00  0.00    +0.000 NA
ATOM     24  H   UNL     1      44.942   4.839   9.073  0.00  0.00    +0.000 HD
BRANCH  23  25
ATOM     25  C   UNL     1      44.427   2.887   9.282  0.00  0.00    +0.000 C 
BRANCH  25  26
ATOM     26  C   UNL     1      45.511   2.591   8.266  0.00  0.00    +0.000 A 
ATOM     27  C   UNL     1      46.164   1.350   8.240  0.00  0.00    +0.000 A 
ATOM     28  C   UNL     1      47.138   1.080   7.274  0.00  0.00    +0.000 A 
ATOM     29  C   UNL     1      47.475   2.048   6.331  0.00  0.00    +0.000 A 
ATOM     30  C   UNL     1      46.852   3.294   6.360  0.00  0.00    +0.000 A 
ATOM     31  C   UNL     1      45.874   3.562   7.319  0.00  0.00    +0.000 A 
ENDBRANCH  25  26
ENDBRANCH  23  25
ENDBRANCH  22  23
ENDBRANCH   4  22
TORSDOF 7
ENDMDL
MODEL 3
REMARK VINA RESULT:    -7.584      1.144      2.213
REMARK INTER + INTRA:         -11.649
REMARK INTER:                 -10.958
REMARK INTRA:                  -0.691
REMARK UNBOUND:                -0.962
REMARK  Name = 
REMARK  7 active torsions:
REMARK  status: ('A' for Active; 'I' for Inactive)
REMARK    1  A    between atoms: C_2  and  C_20
REMARK    2  A    between atoms: N_3  and  C_4
REMARK    3  A    between atoms: C_4  and  C_5
REMARK    4  A    between atoms: C_8  and  C_9
REMARK    5  A    between atoms: C_9  and  N_10
REMARK    6  A    between atoms: N_10  and  C_11
REMARK    7  A    between atoms: C_11  and  C_12
REMARK                            x       y       z     vdW  Elec       q    Type
REMARK                         _______ _______ _______ _____ _____    ______ ____
ROOT
ATOM      1  C   UNL     1      47.865   6.696  13.390  0.00  0.00    +0.000 A 
ATOM      2  C   UNL     1      47.198   5.567  13.884  0.00  0.00    +0.000 A 
ATOM      3  C   UNL     1      46.241   4.909  13.107  0.00  0.00    +0.000 A 
ATOM      4  C   UNL     1      45.925   5.363  11.818  0.00  0.00    +0.000 A 
ATOM      5  C   UNL     1      46.606   6.483  11.321  0.00  0.00    +0.000 A 
ATOM      6  C   UNL     1      47.575   7.136  12.093  0.00  0.00    +0.000 A 
ENDROOT
BRANCH   1   7
ATOM      7  C   UNL     1      48.904   7.394  14.229  0.00  0.00    +0.000 C 
BRANCH   7  10
ATOM      8  O   UNL     1      49.916   5.940  16.373  0.00  0.00    +0.000 OA
ATOM      9  C   UNL     1      49.038   6.765  16.593  0.00  0.00    +0.000 C 
ATOM     10  N   UNL     1      48.471   7.522  15.595  0.00  0.00    +0.000 N 
ATOM     11  H   UNL     1      47.805   8.245  15.820  0.00  0.00    +0.000 HD
BRANCH   9  12
ATOM     12  C   UNL     1      48.516   7.024  17.935  0.00  0.00    +0.000 A 
ATOM     13  C   UNL     1      47.930   8.198  18.399  0.00  0.00    +0.000 A 
ATOM     14  N   UNL     1      47.587   8.026  19.716  0.00  0.00    +0.000 N 
ATOM     15  C   UNL     1      47.935   6.773  20.124  0.00  0.00    +0.000 A 
ATOM     16  N   UNL     1      47.738   6.308  21.370  0.00  0.00    +0.000 NA
ATOM     17  C   UNL     1      48.166   5.035  21.527  0.00  0.00    +0.000 A 
ATOM     18  C   UNL     1      48.741   4.248  20.539  0.00  0.00    +0.000 A 
ATOM     19  C   UNL     1      48.921   4.783  19.262  0.00  0.00    +0.000 A 
ATOM     20  C   UNL     1      48.505   6.110  19.043  0.00  0.00    +0.000 A 
ATOM     21  H   UNL     1      47.144   8.706  20.315  0.00  0.00    +0.000 HD
ENDBRANCH   9  12
ENDBRANCH   7  10
ENDBRANCH   1   7
BRANCH   4  22
ATOM     22  C   UNL     1      44.892   4.653  10.965  0.00  0.00    +0.000 C 
BRANCH  22  23
ATOM     23  N   UNL     1      44.989   5.059   9.568  0.00  0.00    +0.000 NA
ATOM     24  H   UNL     1      45.971   5.186   9.325  0.00  0.00    +0.000 HD
BRANCH  23  25
ATOM     25  C   UNL     1      44.410   4.077   8.653  0.00  0.00    +0.000 C 
BRANCH  25  26
ATOM     26  C   UNL     1      45.489   3.176   8.090  0.00  0.00    +0.000 A 
ATOM     27  C   UNL     1      46.446   3.664   7.188  0.00  0.00    +0.000 A 
ATOM     28  C   UNL     1      47.457   2.828   6.704  0.00  0.00    +0.000 A 
ATOM     29  C   UNL     1      47.516   1.496   7.108  0.00  0.00    +0.000 A 
ATOM     30  C   UNL     1      46.558   0.992   7.984  0.00  0.00    +0.000 A 
ATOM     31  C   UNL     1      45.553   1.826   8.474  0.00  0.00    +0.000 A 
ENDBRANCH  25  26
ENDBRANCH  23  25
ENDBRANCH  22  23
ENDBRANCH   4  22
TORSDOF 7
ENDMDL
MODEL 4
REMARK VINA RESULT:    -7.416      3.006      9.149
REMARK INTER + INTRA:         -11.413
REMARK INTER:                 -10.130
REMARK INTRA:                  -1.282
REMARK UNBOUND:                -0.962
REMARK  Name = 
REMARK  7 active torsions:
REMARK  status: ('A' for Active; 'I' for Inactive)
REMARK    1  A    between atoms: C_2  and  C_20
REMARK    2  A    between atoms: N_3  and  C_4
REMARK    3  A    between atoms: C_4  and  C_5
REMARK    4  A    between atoms: C_8  and  C_9
REMARK    5  A    between atoms: C_9  and  N_10
REMARK    6  A    between atoms: N_10  and  C_11
REMARK    7  A    between atoms: C_11  and  C_12
REMARK                            x       y       z     vdW  Elec       q    Type
REMARK                         _______ _______ _______ _____ _____    ______ ____
ROOT
ATOM      1  C   UNL     1      46.871   7.673  12.742  0.00  0.00    +0.000 A 
ATOM      2  C   UNL     1      46.927   8.728  13.663  0.00  0.00    +0.000 A 
ATOM      3  C   UNL     1      48.049   8.901  14.479  0.00  0.00    +0.000 A 
ATOM      4  C   UNL     1      49.141   8.024  14.396  0.00  0.00    +0.000 A 
ATOM      5  C   UNL     1      49.087   6.979  13.462  0.00  0.00    +0.000 A 
ATOM      6  C   UNL     1      47.970   6.812  12.635  0.00  0.00    +0.000 A 
ENDROOT
BRANCH   1   7
ATOM      7  C   UNL     1      45.664   7.498  11.858  0.00  0.00    +0.000 C 
BRANCH   7  10
ATOM      8  O   UNL     1      43.303   6.157  11.253  0.00  0.00    +0.000 OA
ATOM      9  C   UNL     1      44.365   5.575  11.070  0.00  0.00    +0.000 C 
ATOM     10  N   UNL     1      45.581   6.154  11.350  0.00  0.00    +0.000 N 
ATOM     11  H   UNL     1      46.437   5.677  11.117  0.00  0.00    +0.000 HD
BRANCH   9  12
ATOM     12  C   UNL     1      44.439   4.215  10.534  0.00  0.00    +0.000 A 
ATOM     13  C   UNL     1      43.830   3.074  11.046  0.00  0.00    +0.000 A 
ATOM     14  N   UNL     1      44.162   2.007  10.250  0.00  0.00    +0.000 N 
ATOM     15  C   UNL     1      44.971   2.421   9.236  0.00  0.00    +0.000 A 
ATOM     16  N   UNL     1      45.474   1.602   8.294  0.00  0.00    +0.000 NA
ATOM     17  C   UNL     1      46.248   2.251   7.395  0.00  0.00    +0.000 A 
ATOM     18  C   UNL     1      46.515   3.614   7.392  0.00  0.00    +0.000 A 
ATOM     19  C   UNL     1      45.964   4.416   8.394  0.00  0.00    +0.000 A 
ATOM     20  C   UNL     1      45.160   3.792   9.366  0.00  0.00    +0.000 A 
ATOM     21  H   UNL     1      43.865   1.050  10.374  0.00  0.00    +0.000 HD
ENDBRANCH   9  12
ENDBRANCH   7  10
ENDBRANCH   1   7
BRANCH   4  22
ATOM     22  C   UNL     1      50.364   8.207  15.273  0.00  0.00    +0.000 C 
BRANCH  22  23
ATOM     23  N   UNL     1      50.804   6.937  15.840  0.00  0.00    +0.000 NA
ATOM     24  H   UNL     1      51.812   6.970  15.989  0.00  0.00    +0.000 HD
BRANCH  23  25
ATOM     25  C   UNL     1      50.157   6.636  17.116  0.00  0.00    +0.000 C 
BRANCH  25  26
ATOM     26  C   UNL     1      49.476   5.284  17.059  0.00  0.00    +0.000 A 
ATOM     27  C   UNL     1      50.135   4.119  17.476  0.00  0.00    +0.000 A 
ATOM     28  C   UNL     1      49.480   2.884  17.451  0.00  0.00    +0.000 A 
ATOM     29  C   UNL     1      48.164   2.800  16.999  0.00  0.00    +0.000 A 
ATOM     30  C   UNL     1      47.506   3.945  16.559  0.00  0.00    +0.000 A 
ATOM     31  C   UNL     1      48.156   5.180  16.592  0.00  0.00    +0.000 A 
ENDBRANCH  25  26
ENDBRANCH  23  25
ENDBRANCH  22  23
ENDBRANCH   4  22
TORSDOF 7
ENDMDL
MODEL 5
REMARK VINA RESULT:    -7.061      2.405      8.818
REMARK INTER + INTRA:         -10.912
REMARK INTER:                  -9.287
REMARK INTRA:                  -1.625
REMARK UNBOUND:                -0.962
REMARK  Name = 
REMARK  7 active torsions:
REMARK  status: ('A' for Active; 'I' for Inactive)
REMARK    1  A    between atoms: C_2  and  C_20
REMARK    2  A    between atoms: N_3  and  C_4
REMARK    3  A    between atoms: C_4  and  C_5
REMARK    4  A    between atoms: C_8  and  C_9
REMARK    5  A    between atoms: C_9  and  N_10
REMARK    6  A    between atoms: N_10  and  C_11
REMARK    7  A    between atoms: C_11  and  C_12
REMARK                            x       y       z     vdW  Elec       q    Type
REMARK                         _______ _______ _______ _____ _____    ______ ____
ROOT
ATOM      1  C   UNL     1      48.508   7.963  13.904  0.00  0.00    +0.000 A 
ATOM      2  C   UNL     1      47.960   8.853  14.837  0.00  0.00    +0.000 A 
ATOM      3  C   UNL     1      48.472   8.929  16.136  0.00  0.00    +0.000 A 
ATOM      4  C   UNL     1      49.543   8.115  16.535  0.00  0.00    +0.000 A 
ATOM      5  C   UNL     1      50.099   7.236  15.594  0.00  0.00    +0.000 A 
ATOM      6  C   UNL     1      49.596   7.170  14.289  0.00  0.00    +0.000 A 
ENDROOT
BRANCH   1   7
ATOM      7  C   UNL     1      47.960   7.895  12.503  0.00  0.00    +0.000 C 
BRANCH   7  10
ATOM      8  O   UNL     1      45.251   7.363  12.848  0.00  0.00    +0.000 OA
ATOM      9  C   UNL     1      45.973   6.460  12.444  0.00  0.00    +0.000 C 
ATOM     10  N   UNL     1      47.326   6.628  12.253  0.00  0.00    +0.000 N 
ATOM     11  H   UNL     1      47.878   5.888  11.848  0.00  0.00    +0.000 HD
BRANCH   9  12
ATOM     12  C   UNL     1      45.466   5.126  12.122  0.00  0.00    +0.000 A 
ATOM     13  C   UNL     1      45.086   4.131  13.018  0.00  0.00    +0.000 A 
ATOM     14  N   UNL     1      44.680   3.032  12.304  0.00  0.00    +0.000 N 
ATOM     15  C   UNL     1      44.786   3.283  10.969  0.00  0.00    +0.000 A 
ATOM     16  N   UNL     1      44.472   2.393  10.011  0.00  0.00    +0.000 NA
ATOM     17  C   UNL     1      44.662   2.879   8.763  0.00  0.00    +0.000 A 
ATOM     18  C   UNL     1      45.116   4.153   8.452  0.00  0.00    +0.000 A 
ATOM     19  C   UNL     1      45.426   5.036   9.488  0.00  0.00    +0.000 A 
ATOM     20  C   UNL     1      45.260   4.580  10.810  0.00  0.00    +0.000 A 
ATOM     21  H   UNL     1      44.348   2.159  12.684  0.00  0.00    +0.000 HD
ENDBRANCH   9  12
ENDBRANCH   7  10
ENDBRANCH   1   7
BRANCH   4  22
ATOM     22  C   UNL     1      50.109   8.193  17.940  0.00  0.00    +0.000 C 
BRANCH  22  23
ATOM     23  N   UNL     1      50.456   6.869  18.445  0.00  0.00    +0.000 NA
ATOM     24  H   UNL     1      51.178   6.963  19.157  0.00  0.00    +0.000 HD
BRANCH  23  25
ATOM     25  C   UNL     1      49.313   6.174  19.035  0.00  0.00    +0.000 C 
BRANCH  25  26
ATOM     26  C   UNL     1      48.937   4.967  18.200  0.00  0.00    +0.000 A 
ATOM     27  C   UNL     1      47.731   4.922  17.487  0.00  0.00    +0.000 A 
ATOM     28  C   UNL     1      47.415   3.816  16.694  0.00  0.00    +0.000 A 
ATOM     29  C   UNL     1      48.295   2.739  16.613  0.00  0.00    +0.000 A 
ATOM     30  C   UNL     1      49.486   2.759  17.335  0.00  0.00    +0.000 A 
ATOM     31  C   UNL     1      49.807   3.867  18.121  0.00  0.00    +0.000 A 
ENDBRANCH  25  26
ENDBRANCH  23  25
ENDBRANCH  22  23
ENDBRANCH   4  22
TORSDOF 7
ENDMDL
MODEL 6
REMARK VINA RESULT:    -6.972      1.859      2.775
REMARK INTER + INTRA:         -10.787
REMARK INTER:                  -9.910
REMARK INTRA:                  -0.878
REMARK UNBOUND:                -0.962
REMARK  Name = 
REMARK  7 active torsions:
REMARK  status: ('A' for Active; 'I' for Inactive)
REMARK    1  A    between atoms: C_2  and  C_20
REMARK    2  A    between atoms: N_3  and  C_4
REMARK    3  A    between atoms: C_4  and  C_5
REMARK    4  A    between atoms: C_8  and  C_9
REMARK    5  A    between atoms: C_9  and  N_10
REMARK    6  A    between atoms: N_10  and  C_11
REMARK    7  A    between atoms: C_11  and  C_12
REMARK                            x       y       z     vdW  Elec       q    Type
REMARK                         _______ _______ _______ _____ _____    ______ ____
ROOT
ATOM      1  C   UNL     1      47.705   8.210  13.228  0.00  0.00    +0.000 A 
ATOM      2  C   UNL     1      48.038   7.135  12.393  0.00  0.00    +0.000 A 
ATOM      3  C   UNL     1      47.052   6.476  11.653  0.00  0.00    +0.000 A 
ATOM      4  C   UNL     1      45.709   6.874  11.729  0.00  0.00    +0.000 A 
ATOM      5  C   UNL     1      45.382   7.961  12.553  0.00  0.00    +0.000 A 
ATOM      6  C   UNL     1      46.371   8.630  13.285  0.00  0.00    +0.000 A 
ENDROOT
BRANCH   1   7
ATOM      7  C   UNL     1      48.774   8.923  14.014  0.00  0.00    +0.000 C 
BRANCH   7  10
ATOM      8  O   UNL     1      47.770   9.260  16.586  0.00  0.00    +0.000 OA
ATOM      9  C   UNL     1      48.610   8.389  16.400  0.00  0.00    +0.000 C 
ATOM     10  N   UNL     1      49.171   8.157  15.166  0.00  0.00    +0.000 N 
ATOM     11  H   UNL     1      49.803   7.384  15.031  0.00  0.00    +0.000 HD
BRANCH   9  12
ATOM     12  C   UNL     1      49.091   7.514  17.470  0.00  0.00    +0.000 A 
ATOM     13  C   UNL     1      49.881   7.871  18.559  0.00  0.00    +0.000 A 
ATOM     14  N   UNL     1      50.113   6.751  19.316  0.00  0.00    +0.000 N 
ATOM     15  C   UNL     1      49.499   5.675  18.751  0.00  0.00    +0.000 A 
ATOM     16  N   UNL     1      49.551   4.429  19.255  0.00  0.00    +0.000 NA
ATOM     17  C   UNL     1      48.860   3.534  18.513  0.00  0.00    +0.000 A 
ATOM     18  C   UNL     1      48.147   3.822  17.357  0.00  0.00    +0.000 A 
ATOM     19  C   UNL     1      48.126   5.134  16.880  0.00  0.00    +0.000 A 
ATOM     20  C   UNL     1      48.839   6.107  17.605  0.00  0.00    +0.000 A 
ATOM     21  H   UNL     1      50.653   6.703  20.167  0.00  0.00    +0.000 HD
ENDBRANCH   9  12
ENDBRANCH   7  10
ENDBRANCH   1   7
BRANCH   4  22
ATOM     22  C   UNL     1      44.633   6.170  10.926  0.00  0.00    +0.000 C 
BRANCH  22  23
ATOM     23  N   UNL     1      45.196   5.501   9.759  0.00  0.00    +0.000 NA
ATOM     24  H   UNL     1      46.181   5.305   9.930  0.00  0.00    +0.000 HD
BRANCH  23  25
ATOM     25  C   UNL     1      44.521   4.241   9.451  0.00  0.00    +0.000 C 
BRANCH  25  26
ATOM     26  C   UNL     1      45.412   3.356   8.604  0.00  0.00    +0.000 A 
ATOM     27  C   UNL     1      46.228   3.894   7.599  0.00  0.00    +0.000 A 
ATOM     28  C   UNL     1      47.070   3.068   6.849  0.00  0.00    +0.000 A 
ATOM     29  C   UNL     1      47.098   1.695   7.088  0.00  0.00    +0.000 A 
ATOM     30  C   UNL     1      46.274   1.144   8.066  0.00  0.00    +0.000 A 
ATOM     31  C   UNL     1      45.439   1.968   8.821  0.00  0.00    +0.000 A 
ENDBRANCH  25  26
ENDBRANCH  23  25
ENDBRANCH  22  23
ENDBRANCH   4  22
TORSDOF 7
ENDMDL
MODEL 7
REMARK VINA RESULT:    -6.780      2.650      3.608
REMARK INTER + INTRA:         -10.516
REMARK INTER:                  -9.746
REMARK INTRA:                  -0.770
REMARK UNBOUND:                -0.962
REMARK  Name = 
REMARK  7 active torsions:
REMARK  status: ('A' for Active; 'I' for Inactive)
REMARK    1  A    between atoms: C_2  and  C_20
REMARK    2  A    between atoms: N_3  and  C_4
REMARK    3  A    between atoms: C_4  and  C_5
REMARK    4  A    between atoms: C_8  and  C_9
REMARK    5  A    between atoms: C_9  and  N_10
REMARK    6  A    between atoms: N_10  and  C_11
REMARK    7  A    between atoms: C_11  and  C_12
REMARK                            x       y       z     vdW  Elec       q    Type
REMARK                         _______ _______ _______ _____ _____    ______ ____
ROOT
ATOM      1  C   UNL     1      47.966   7.512  13.982  0.00  0.00    +0.000 A 
ATOM      2  C   UNL     1      47.704   6.229  13.482  0.00  0.00    +0.000 A 
ATOM      3  C   UNL     1      46.556   5.981  12.724  0.00  0.00    +0.000 A 
ATOM      4  C   UNL     1      45.641   7.008  12.449  0.00  0.00    +0.000 A 
ATOM      5  C   UNL     1      45.914   8.293  12.937  0.00  0.00    +0.000 A 
ATOM      6  C   UNL     1      47.070   8.546  13.686  0.00  0.00    +0.000 A 
ENDROOT
BRANCH   1   7
ATOM      7  C   UNL     1      49.210   7.775  14.789  0.00  0.00    +0.000 C 
BRANCH   7  10
ATOM      8  O   UNL     1      50.409   7.705  17.299  0.00  0.00    +0.000 OA
ATOM      9  C   UNL     1      50.232   6.646  16.710  0.00  0.00    +0.000 C 
ATOM     10  N   UNL     1      49.656   6.584  15.462  0.00  0.00    +0.000 N 
ATOM     11  H   UNL     1      49.455   5.692  15.038  0.00  0.00    +0.000 HD
BRANCH   9  12
ATOM     12  C   UNL     1      50.609   5.352  17.280  0.00  0.00    +0.000 A 
ATOM     13  C   UNL     1      49.755   4.347  17.724  0.00  0.00    +0.000 A 
ATOM     14  N   UNL     1      50.514   3.305  18.193  0.00  0.00    +0.000 N 
ATOM     15  C   UNL     1      51.838   3.603  18.067  0.00  0.00    +0.000 A 
ATOM     16  N   UNL     1      52.832   2.783  18.450  0.00  0.00    +0.000 NA
ATOM     17  C   UNL     1      54.059   3.304  18.220  0.00  0.00    +0.000 A 
ATOM     18  C   UNL     1      54.317   4.540  17.643  0.00  0.00    +0.000 A 
ATOM     19  C   UNL     1      53.244   5.350  17.263  0.00  0.00    +0.000 A 
ATOM     20  C   UNL     1      51.943   4.864  17.490  0.00  0.00    +0.000 A 
ATOM     21  H   UNL     1      50.171   2.437  18.577  0.00  0.00    +0.000 HD
ENDBRANCH   9  12
ENDBRANCH   7  10
ENDBRANCH   1   7
BRANCH   4  22
ATOM     22  C   UNL     1      44.395   6.750  11.622  0.00  0.00    +0.000 C 
BRANCH  22  23
ATOM     23  N   UNL     1      44.721   6.075  10.371  0.00  0.00    +0.000 NA
ATOM     24  H   UNL     1      45.730   5.947  10.314  0.00  0.00    +0.000 HD
BRANCH  23  25
ATOM     25  C   UNL     1      44.081   4.765  10.254  0.00  0.00    +0.000 C 
BRANCH  25  26
ATOM     26  C   UNL     1      44.899   3.853   9.365  0.00  0.00    +0.000 A 
ATOM     27  C   UNL     1      44.870   2.460   9.528  0.00  0.00    +0.000 A 
ATOM     28  C   UNL     1      45.604   1.630   8.676  0.00  0.00    +0.000 A 
ATOM     29  C   UNL     1      46.382   2.181   7.661  0.00  0.00    +0.000 A 
ATOM     30  C   UNL     1      46.441   3.564   7.503  0.00  0.00    +0.000 A 
ATOM     31  C   UNL     1      45.702   4.394   8.347  0.00  0.00    +0.000 A 
ENDBRANCH  25  26
ENDBRANCH  23  25
ENDBRANCH  22  23
ENDBRANCH   4  22
TORSDOF 7
ENDMDL
MODEL 8
REMARK VINA RESULT:    -6.668      2.991      8.492
REMARK INTER + INTRA:         -10.359
REMARK INTER:                  -8.671
REMARK INTRA:                  -1.688
REMARK UNBOUND:                -0.962
REMARK  Name = 
REMARK  7 active torsions:
REMARK  status: ('A' for Active; 'I' for Inactive)
REMARK    1  A    between atoms: C_2  and  C_20
REMARK    2  A    between atoms: N_3  and  C_4
REMARK    3  A    between atoms: C_4  and  C_5
REMARK    4  A    between atoms: C_8  and  C_9
REMARK    5  A    between atoms: C_9  and  N_10
REMARK    6  A    between atoms: N_10  and  C_11
REMARK    7  A    between atoms: C_11  and  C_12
REMARK                            x       y       z     vdW  Elec       q    Type
REMARK                         _______ _______ _______ _____ _____    ______ ____
ROOT
ATOM      1  C   UNL     1      49.404   7.887  15.058  0.00  0.00    +0.000 A 
ATOM      2  C   UNL     1      50.339   6.993  15.597  0.00  0.00    +0.000 A 
ATOM      3  C   UNL     1      50.416   6.791  16.979  0.00  0.00    +0.000 A 
ATOM      4  C   UNL     1      49.564   7.479  17.855  0.00  0.00    +0.000 A 
ATOM      5  C   UNL     1      48.619   8.361  17.310  0.00  0.00    +0.000 A 
ATOM      6  C   UNL     1      48.532   8.554  15.926  0.00  0.00    +0.000 A 
ENDROOT
BRANCH   1   7
ATOM      7  C   UNL     1      49.318   8.091  13.568  0.00  0.00    +0.000 C 
BRANCH   7  10
ATOM      8  O   UNL     1      48.119   5.619  13.134  0.00  0.00    +0.000 OA
ATOM      9  C   UNL     1      47.461   6.630  12.917  0.00  0.00    +0.000 C 
ATOM     10  N   UNL     1      47.974   7.894  13.092  0.00  0.00    +0.000 N 
ATOM     11  H   UNL     1      47.384   8.703  12.978  0.00  0.00    +0.000 HD
BRANCH   9  12
ATOM     12  C   UNL     1      46.073   6.586  12.456  0.00  0.00    +0.000 A 
ATOM     13  C   UNL     1      45.264   7.667  12.120  0.00  0.00    +0.000 A 
ATOM     14  N   UNL     1      44.032   7.191  11.747  0.00  0.00    +0.000 N 
ATOM     15  C   UNL     1      44.016   5.832  11.833  0.00  0.00    +0.000 A 
ATOM     16  N   UNL     1      42.944   5.073  11.544  0.00  0.00    +0.000 NA
ATOM     17  C   UNL     1      43.179   3.751  11.705  0.00  0.00    +0.000 A 
ATOM     18  C   UNL     1      44.381   3.187  12.110  0.00  0.00    +0.000 A 
ATOM     19  C   UNL     1      45.461   4.024  12.396  0.00  0.00    +0.000 A 
ATOM     20  C   UNL     1      45.272   5.411  12.258  0.00  0.00    +0.000 A 
ATOM     21  H   UNL     1      43.240   7.742  11.451  0.00  0.00    +0.000 HD
ENDBRANCH   9  12
ENDBRANCH   7  10
ENDBRANCH   1   7
BRANCH   4  22
ATOM     22  C   UNL     1      49.637   7.263  19.354  0.00  0.00    +0.000 C 
BRANCH  22  23
ATOM     23  N   UNL     1      48.415   6.648  19.860  0.00  0.00    +0.000 NA
ATOM     24  H   UNL     1      47.660   6.809  19.194  0.00  0.00    +0.000 HD
BRANCH  23  25
ATOM     25  C   UNL     1      48.552   5.206  20.062  0.00  0.00    +0.000 C 
BRANCH  25  26
ATOM     26  C   UNL     1      48.378   4.468  18.751  0.00  0.00    +0.000 A 
ATOM     27  C   UNL     1      49.285   3.478  18.348  0.00  0.00    +0.000 A 
ATOM     28  C   UNL     1      49.092   2.781  17.152  0.00  0.00    +0.000 A 
ATOM     29  C   UNL     1      47.996   3.073  16.342  0.00  0.00    +0.000 A 
ATOM     30  C   UNL     1      47.100   4.071  16.718  0.00  0.00    +0.000 A 
ATOM     31  C   UNL     1      47.288   4.762  17.916  0.00  0.00    +0.000 A 
ENDBRANCH  25  26
ENDBRANCH  23  25
ENDBRANCH  22  23
ENDBRANCH   4  22
TORSDOF 7
ENDMDL
MODEL 9
REMARK VINA RESULT:    -6.556      3.422      9.525
REMARK INTER + INTRA:         -10.201
REMARK INTER:                  -8.541
REMARK INTRA:                  -1.660
REMARK UNBOUND:                -0.962
REMARK  Name = 
REMARK  7 active torsions:
REMARK  status: ('A' for Active; 'I' for Inactive)
REMARK    1  A    between atoms: C_2  and  C_20
REMARK    2  A    between atoms: N_3  and  C_4
REMARK    3  A    between atoms: C_4  and  C_5
REMARK    4  A    between atoms: C_8  and  C_9
REMARK    5  A    between atoms: C_9  and  N_10
REMARK    6  A    between atoms: N_10  and  C_11
REMARK    7  A    between atoms: C_11  and  C_12
REMARK                            x       y       z     vdW  Elec       q    Type
REMARK                         _______ _______ _______ _____ _____    ______ ____
ROOT
ATOM      1  C   UNL     1      47.980   4.541  18.058  0.00  0.00    +0.000 A 
ATOM      2  C   UNL     1      49.214   4.333  18.688  0.00  0.00    +0.000 A 
ATOM      3  C   UNL     1      49.532   5.007  19.871  0.00  0.00    +0.000 A 
ATOM      4  C   UNL     1      48.626   5.906  20.453  0.00  0.00    +0.000 A 
ATOM      5  C   UNL     1      47.385   6.099  19.828  0.00  0.00    +0.000 A 
ATOM      6  C   UNL     1      47.061   5.415  18.650  0.00  0.00    +0.000 A 
ENDROOT
BRANCH   1   7
ATOM      7  C   UNL     1      47.639   3.803  16.790  0.00  0.00    +0.000 C 
BRANCH   7  10
ATOM      8  O   UNL     1      47.322   3.198  14.093  0.00  0.00    +0.000 OA
ATOM      9  C   UNL     1      46.972   4.304  14.485  0.00  0.00    +0.000 C 
ATOM     10  N   UNL     1      47.100   4.696  15.798  0.00  0.00    +0.000 N 
ATOM     11  H   UNL     1      46.733   5.583  16.102  0.00  0.00    +0.000 HD
BRANCH   9  12
ATOM     12  C   UNL     1      46.382   5.307  13.598  0.00  0.00    +0.000 A 
ATOM     13  C   UNL     1      46.934   6.528  13.222  0.00  0.00    +0.000 A 
ATOM     14  N   UNL     1      46.053   7.168  12.388  0.00  0.00    +0.000 N 
ATOM     15  C   UNL     1      44.941   6.400  12.212  0.00  0.00    +0.000 A 
ATOM     16  N   UNL     1      43.890   6.761  11.455  0.00  0.00    +0.000 NA
ATOM     17  C   UNL     1      42.912   5.828  11.438  0.00  0.00    +0.000 A 
ATOM     18  C   UNL     1      42.945   4.609  12.101  0.00  0.00    +0.000 A 
ATOM     19  C   UNL     1      44.063   4.286  12.872  0.00  0.00    +0.000 A 
ATOM     20  C   UNL     1      45.109   5.225  12.938  0.00  0.00    +0.000 A 
ATOM     21  H   UNL     1      46.182   8.070  11.956  0.00  0.00    +0.000 HD
ENDBRANCH   9  12
ENDBRANCH   7  10
ENDBRANCH   1   7
BRANCH   4  22
ATOM     22  C   UNL     1      48.959   6.638  21.738  0.00  0.00    +0.000 C 
BRANCH  22  23
ATOM     23  N   UNL     1      48.701   8.068  21.616  0.00  0.00    +0.000 NA
ATOM     24  H   UNL     1      48.637   8.476  22.547  0.00  0.00    +0.000 HD
BRANCH  23  25
ATOM     25  C   UNL     1      49.749   8.769  20.875  0.00  0.00    +0.000 C 
BRANCH  25  26
ATOM     26  C   UNL     1      49.360   8.920  19.420  0.00  0.00    +0.000 A 
ATOM     27  C   UNL     1      50.160   8.396  18.394  0.00  0.00    +0.000 A 
ATOM     28  C   UNL     1      49.770   8.514  17.057  0.00  0.00    +0.000 A 
ATOM     29  C   UNL     1      48.581   9.164  16.731  0.00  0.00    +0.000 A 
ATOM     30  C   UNL     1      47.789   9.710  17.737  0.00  0.00    +0.000 A 
ATOM     31  C   UNL     1      48.173   9.587  19.073  0.00  0.00    +0.000 A 
ENDBRANCH  25  26
ENDBRANCH  23  25
ENDBRANCH  22  23
ENDBRANCH   4  22
TORSDOF 7
ENDMDL
