MODEL 1
REMARK VINA RESULT:    -7.343      0.000      0.000
REMARK INTER + INTRA:         -10.800
REMARK INTER:                  -9.919
REMARK INTRA:                  -0.882
REMARK UNBOUND:                -0.882
REMARK  Name = 
REMARK  7 active torsions:
REMARK  status: ('A' for Active; 'I' for Inactive)
REMARK    1  A    between atoms: C_1  and  O_2
REMARK    2  A    between atoms: O_2  and  C_3
REMARK    3  A    between atoms: C_5  and  O_6
REMARK    4  A    between atoms: O_6  and  C_7
REMARK    5  A    between atoms: C_7  and  C_8
REMARK    6  A    between atoms: C_8  and  C_9
REMARK    7  A    between atoms: C_17  and  C_18
REMARK                            x       y       z     vdW  Elec       q    Type
REMARK                         _______ _______ _______ _____ _____    ______ ____
ROOT
ATOM      1  C   UNL     1      46.138   6.207  12.220  0.00  0.00    +0.000 A 
ATOM      2  C   UNL     1      45.270   5.244  11.696  0.00  0.00    +0.000 A 
ATOM      3  C   UNL     1      45.221   3.994  12.289  0.00  0.00    +0.000 A 
ATOM      4  N   UNL     1      46.002   3.633  13.323  0.00  0.00    +0.000 NA
ATOM      5  C   UNL     1      46.870   4.564  13.788  0.00  0.00    +0.000 A 
ATOM      6  C   UNL     1      46.983   5.855  13.285  0.00  0.00    +0.000 A 
ENDROOT
BRANCH   6   7
ATOM      7  C   UNL     1      47.982   6.744  13.942  0.00  0.00    +0.000 C 
ATOM      8  N   UNL     1      47.549   7.898  14.515  0.00  0.00    +0.000 N 
ATOM      9  O   UNL     1      49.172   6.448  13.971  0.00  0.00    +0.000 OA
ATOM     10  H   UNL     1      46.578   8.191  14.461  0.00  0.00    +0.000 HD
ATOM     11  H   UNL     1      48.229   8.519  14.929  0.00  0.00    +0.000 HD
ENDBRANCH   6   7
BRANCH   1  13
ATOM     12  C   UNL     1      45.080   8.305  11.888  0.00  0.00    +0.000 C 
ATOM     13  O   UNL     1      46.227   7.477  11.702  0.00  0.00    +0.000 OA
ENDBRANCH   1  13
BRANCH   3  14
ATOM     14  O   UNL     1      44.332   3.081  11.747  0.00  0.00    +0.000 OA
BRANCH  14  15
ATOM     15  C   UNL     1      44.093   3.347  10.361  0.00  0.00    +0.000 C 
BRANCH  15  16
ATOM     16  C   UNL     1      44.509   2.140   9.517  0.00  0.00    +0.000 C 
BRANCH  16  17
ATOM     17  C   UNL     1      45.774   2.417   8.676  0.00  0.00    +0.000 C 
ATOM     18  C   UNL     1      45.533   3.489   7.597  0.00  0.00    +0.000 C 
ATOM     19  C   UNL     1      46.763   3.717   6.724  0.00  0.00    +0.000 C 
ATOM     20  C   UNL     1      47.251   2.421   6.094  0.00  0.00    +0.000 C 
ATOM     21  C   UNL     1      47.518   1.359   7.156  0.00  0.00    +0.000 C 
ATOM     22  C   UNL     1      46.290   1.118   8.034  0.00  0.00    +0.000 C 
ENDBRANCH  16  17
ENDBRANCH  15  16
ENDBRANCH  14  15
ENDBRANCH   3  14
TORSDOF 6
ENDMDL
MODEL 2
REMARK VINA RESULT:    -7.214      1.624      2.472
REMARK INTER + INTRA:         -10.627
REMARK INTER:                  -9.911
REMARK INTRA:                  -0.716
REMARK UNBOUND:                -0.882
REMARK  Name = 
REMARK  7 active torsions:
REMARK  status: ('A' for Active; 'I' for Inactive)
REMARK    1  A    between atoms: C_1  and  O_2
REMARK    2  A    between atoms: O_2  and  C_3
REMARK    3  A    between atoms: C_5  and  O_6
REMARK    4  A    between atoms: O_6  and  C_7
REMARK    5  A    between atoms: C_7  and  C_8
REMARK    6  A    between atoms: C_8  and  C_9
REMARK    7  A    between atoms: C_17  and  C_18
REMARK                            x       y       z     vdW  Elec       q    Type
REMARK                         _______ _______ _______ _____ _____    ______ ____
ROOT
ATOM      1  C   UNL     1      47.369   5.727  13.143  0.00  0.00    +0.000 A 
ATOM      2  C   UNL     1      46.748   6.026  11.925  0.00  0.00    +0.000 A 
ATOM      3  C   UNL     1      45.532   5.434  11.632  0.00  0.00    +0.000 A 
ATOM      4  N   UNL     1      44.927   4.543  12.439  0.00  0.00    +0.000 NA
ATOM      5  C   UNL     1      45.565   4.230  13.592  0.00  0.00    +0.000 A 
ATOM      6  C   UNL     1      46.774   4.784  13.997  0.00  0.00    +0.000 A 
ENDROOT
BRANCH   6   7
ATOM      7  C   UNL     1      47.311   4.331  15.311  0.00  0.00    +0.000 C 
ATOM      8  N   UNL     1      47.491   5.253  16.294  0.00  0.00    +0.000 N 
ATOM      9  O   UNL     1      47.586   3.153  15.512  0.00  0.00    +0.000 OA
ATOM     10  H   UNL     1      47.318   6.242  16.139  0.00  0.00    +0.000 HD
ATOM     11  H   UNL     1      47.888   4.954  17.173  0.00  0.00    +0.000 HD
ENDBRANCH   6   7
BRANCH   1  13
ATOM     12  C   UNL     1      48.935   7.480  12.821  0.00  0.00    +0.000 C 
ATOM     13  O   UNL     1      48.565   6.292  13.518  0.00  0.00    +0.000 OA
ENDBRANCH   1  13
BRANCH   3  14
ATOM     14  O   UNL     1      44.948   5.776  10.424  0.00  0.00    +0.000 OA
BRANCH  14  15
ATOM     15  C   UNL     1      45.578   5.100   9.331  0.00  0.00    +0.000 C 
BRANCH  15  16
ATOM     16  C   UNL     1      44.598   4.116   8.689  0.00  0.00    +0.000 C 
BRANCH  16  17
ATOM     17  C   UNL     1      45.307   3.081   7.789  0.00  0.00    +0.000 C 
ATOM     18  C   UNL     1      45.844   1.882   8.592  0.00  0.00    +0.000 C 
ATOM     19  C   UNL     1      46.600   0.890   7.713  0.00  0.00    +0.000 C 
ATOM     20  C   UNL     1      47.724   1.568   6.943  0.00  0.00    +0.000 C 
ATOM     21  C   UNL     1      47.200   2.742   6.123  0.00  0.00    +0.000 C 
ATOM     22  C   UNL     1      46.444   3.746   6.995  0.00  0.00    +0.000 C 
ENDBRANCH  16  17
ENDBRANCH  15  16
ENDBRANCH  14  15
ENDBRANCH   3  14
TORSDOF 6
ENDMDL
MODEL 3
REMARK VINA RESULT:    -7.075      1.173      2.076
REMARK INTER + INTRA:         -10.438
REMARK INTER:                  -9.777
REMARK INTRA:                  -0.662
REMARK UNBOUND:                -0.882
REMARK  Name = 
REMARK  7 active torsions:
REMARK  status: ('A' for Active; 'I' for Inactive)
REMARK    1  A    between atoms: C_1  and  O_2
REMARK    2  A    between atoms: O_2  and  C_3
REMARK    3  A    between atoms: C_5  and  O_6
REMARK    4  A    between atoms: O_6  and  C_7
REMARK    5  A    between atoms: C_7  and  C_8
REMARK    6  A    between atoms: C_8  and  C_9
REMARK    7  A    between atoms: C_17  and  C_18
REMARK                            x       y       z     vdW  Elec       q    Type
REMARK                         _______ _______ _______ _____ _____    ______ ____
ROOT
ATOM      1  C   UNL     1      46.890   4.444  13.603  0.00  0.00    +0.000 A 
ATOM      2  C   UNL     1      45.844   3.673  13.085  0.00  0.00    +0.000 A 
ATOM      3  C   UNL     1      45.064   4.200  12.071  0.00  0.00    +0.000 A 
ATOM      4  N   UNL     1      45.226   5.443  11.579  0.00  0.00    +0.000 NA
ATOM      5  C   UNL     1      46.215   6.191  12.124  0.00  0.00    +0.000 A 
ATOM      6  C   UNL     1      47.073   5.752  13.127  0.00  0.00    +0.000 A 
ENDROOT
BRANCH   6   7
ATOM      7  C   UNL     1      48.115   6.714  13.585  0.00  0.00    +0.000 C 
ATOM      8  N   UNL     1      47.766   7.671  14.486  0.00  0.00    +0.000 N 
ATOM      9  O   UNL     1      49.264   6.652  13.164  0.00  0.00    +0.000 OA
ATOM     10  H   UNL     1      46.810   7.776  14.813  0.00  0.00    +0.000 HD
ATOM     11  H   UNL     1      48.461   8.346  14.770  0.00  0.00    +0.000 HD
ENDBRANCH   6   7
BRANCH   1  13
ATOM     12  C   UNL     1      47.208   4.050  15.922  0.00  0.00    +0.000 C 
ATOM     13  O   UNL     1      47.724   3.982  14.594  0.00  0.00    +0.000 OA
ENDBRANCH   1  13
BRANCH   3  14
ATOM     14  O   UNL     1      44.053   3.393  11.578  0.00  0.00    +0.000 OA
BRANCH  14  15
ATOM     15  C   UNL     1      43.984   3.457  10.150  0.00  0.00    +0.000 C 
BRANCH  15  16
ATOM     16  C   UNL     1      44.542   2.170   9.540  0.00  0.00    +0.000 C 
BRANCH  16  17
ATOM     17  C   UNL     1      45.785   2.425   8.661  0.00  0.00    +0.000 C 
ATOM     18  C   UNL     1      45.523   3.484   7.574  0.00  0.00    +0.000 C 
ATOM     19  C   UNL     1      46.731   3.690   6.665  0.00  0.00    +0.000 C 
ATOM     20  C   UNL     1      47.191   2.381   6.040  0.00  0.00    +0.000 C 
ATOM     21  C   UNL     1      47.479   1.331   7.108  0.00  0.00    +0.000 C 
ATOM     22  C   UNL     1      46.273   1.113   8.023  0.00  0.00    +0.000 C 
ENDBRANCH  16  17
ENDBRANCH  15  16
ENDBRANCH  14  15
ENDBRANCH   3  14
TORSDOF 6
ENDMDL
MODEL 4
REMARK VINA RESULT:    -7.018      1.479      2.599
REMARK INTER + INTRA:         -10.362
REMARK INTER:                  -9.624
REMARK INTRA:                  -0.737
REMARK UNBOUND:                -0.882
REMARK  Name = 
REMARK  7 active torsions:
REMARK  status: ('A' for Active; 'I' for Inactive)
REMARK    1  A    between atoms: C_1  and  O_2
REMARK    2  A    between atoms: O_2  and  C_3
REMARK    3  A    between atoms: C_5  and  O_6
REMARK    4  A    between atoms: O_6  and  C_7
REMARK    5  A    between atoms: C_7  and  C_8
REMARK    6  A    between atoms: C_8  and  C_9
REMARK    7  A    between atoms: C_17  and  C_18
REMARK                            x       y       z     vdW  Elec       q    Type
REMARK                         _______ _______ _______ _____ _____    ______ ____
ROOT
ATOM      1  C   UNL     1      46.004   5.922  12.901  0.00  0.00    +0.000 A 
ATOM      2  C   UNL     1      45.233   4.867  12.402  0.00  0.00    +0.000 A 
ATOM      3  C   UNL     1      44.197   5.150  11.529  0.00  0.00    +0.000 A 
ATOM      4  N   UNL     1      43.856   6.400  11.163  0.00  0.00    +0.000 NA
ATOM      5  C   UNL     1      44.584   7.412  11.692  0.00  0.00    +0.000 A 
ATOM      6  C   UNL     1      45.660   7.239  12.556  0.00  0.00    +0.000 A 
ENDROOT
BRANCH   6   7
ATOM      7  C   UNL     1      46.353   8.475  13.017  0.00  0.00    +0.000 C 
ATOM      8  N   UNL     1      46.899   8.489  14.262  0.00  0.00    +0.000 N 
ATOM      9  O   UNL     1      46.434   9.463  12.296  0.00  0.00    +0.000 OA
ATOM     10  H   UNL     1      46.803   7.703  14.898  0.00  0.00    +0.000 HD
ATOM     11  H   UNL     1      47.338   9.338  14.590  0.00  0.00    +0.000 HD
ENDBRANCH   6   7
BRANCH   1  13
ATOM     12  C   UNL     1      46.950   4.604  14.633  0.00  0.00    +0.000 C 
ATOM     13  O   UNL     1      47.064   5.721  13.753  0.00  0.00    +0.000 OA
ENDBRANCH   1  13
BRANCH   3  14
ATOM     14  O   UNL     1      43.475   4.072  11.048  0.00  0.00    +0.000 OA
BRANCH  14  15
ATOM     15  C   UNL     1      44.286   3.228  10.224  0.00  0.00    +0.000 C 
BRANCH  15  16
ATOM     16  C   UNL     1      44.506   3.883   8.859  0.00  0.00    +0.000 C 
BRANCH  16  17
ATOM     17  C   UNL     1      45.270   2.964   7.881  0.00  0.00    +0.000 C 
ATOM     18  C   UNL     1      45.863   1.730   8.584  0.00  0.00    +0.000 C 
ATOM     19  C   UNL     1      46.672   0.855   7.632  0.00  0.00    +0.000 C 
ATOM     20  C   UNL     1      47.764   1.651   6.931  0.00  0.00    +0.000 C 
ATOM     21  C   UNL     1      47.185   2.863   6.209  0.00  0.00    +0.000 C 
ATOM     22  C   UNL     1      46.376   3.750   7.156  0.00  0.00    +0.000 C 
ENDBRANCH  16  17
ENDBRANCH  15  16
ENDBRANCH  14  15
ENDBRANCH   3  14
TORSDOF 6
ENDMDL
MODEL 5
REMARK VINA RESULT:    -6.886      3.125      6.650
REMARK INTER + INTRA:         -10.183
REMARK INTER:                  -9.243
REMARK INTRA:                  -0.939
REMARK UNBOUND:                -0.882
REMARK  Name = 
REMARK  7 active torsions:
REMARK  status: ('A' for Active; 'I' for Inactive)
REMARK    1  A    between atoms: C_1  and  O_2
REMARK    2  A    between atoms: O_2  and  C_3
REMARK    3  A    between atoms: C_5  and  O_6
REMARK    4  A    between atoms: O_6  and  C_7
REMARK    5  A    between atoms: C_7  and  C_8
REMARK    6  A    between atoms: C_8  and  C_9
REMARK    7  A    between atoms: C_17  and  C_18
REMARK                            x       y       z     vdW  Elec       q    Type
REMARK                         _______ _______ _______ _____ _____    ______ ____
ROOT
ATOM      1  C   UNL     1      46.282   1.640   8.140  0.00  0.00    +0.000 A 
ATOM      2  C   UNL     1      45.348   1.768   9.174  0.00  0.00    +0.000 A 
ATOM      3  C   UNL     1      44.561   2.906   9.228  0.00  0.00    +0.000 A 
ATOM      4  N   UNL     1      44.675   3.928   8.360  0.00  0.00    +0.000 NA
ATOM      5  C   UNL     1      45.617   3.808   7.394  0.00  0.00    +0.000 A 
ATOM      6  C   UNL     1      46.441   2.700   7.232  0.00  0.00    +0.000 A 
ENDROOT
BRANCH   6   7
ATOM      7  C   UNL     1      47.403   2.742   6.095  0.00  0.00    +0.000 C 
ATOM      8  N   UNL     1      48.716   2.489   6.343  0.00  0.00    +0.000 N 
ATOM      9  O   UNL     1      47.028   2.997   4.956  0.00  0.00    +0.000 OA
ATOM     10  H   UNL     1      49.061   2.324   7.284  0.00  0.00    +0.000 HD
ATOM     11  H   UNL     1      49.375   2.553   5.581  0.00  0.00    +0.000 HD
ENDBRANCH   6   7
BRANCH   1  13
ATOM     12  C   UNL     1      46.449  -0.629   7.469  0.00  0.00    +0.000 C 
ATOM     13  O   UNL     1      47.082   0.531   8.004  0.00  0.00    +0.000 OA
ENDBRANCH   1  13
BRANCH   3  14
ATOM     14  O   UNL     1      43.638   2.977  10.257  0.00  0.00    +0.000 OA
BRANCH  14  15
ATOM     15  C   UNL     1      43.632   4.274  10.862  0.00  0.00    +0.000 C 
BRANCH  15  16
ATOM     16  C   UNL     1      44.070   4.173  12.325  0.00  0.00    +0.000 C 
BRANCH  16  17
ATOM     17  C   UNL     1      45.139   5.224  12.695  0.00  0.00    +0.000 C 
ATOM     18  C   UNL     1      45.819   5.825  11.452  0.00  0.00    +0.000 C 
ATOM     19  C   UNL     1      46.919   6.817  11.817  0.00  0.00    +0.000 C 
ATOM     20  C   UNL     1      47.951   6.191  12.745  0.00  0.00    +0.000 C 
ATOM     21  C   UNL     1      47.291   5.614  13.993  0.00  0.00    +0.000 C 
ATOM     22  C   UNL     1      46.189   4.615  13.639  0.00  0.00    +0.000 C 
ENDBRANCH  16  17
ENDBRANCH  15  16
ENDBRANCH  14  15
ENDBRANCH   3  14
TORSDOF 6
ENDMDL
MODEL 6
REMARK VINA RESULT:    -6.181      3.443      7.048
REMARK INTER + INTRA:          -9.231
REMARK INTER:                  -8.538
REMARK INTRA:                  -0.693
REMARK UNBOUND:                -0.882
REMARK  Name = 
REMARK  7 active torsions:
REMARK  status: ('A' for Active; 'I' for Inactive)
REMARK    1  A    between atoms: C_1  and  O_2
REMARK    2  A    between atoms: O_2  and  C_3
REMARK    3  A    between atoms: C_5  and  O_6
REMARK    4  A    between atoms: O_6  and  C_7
REMARK    5  A    between atoms: C_7  and  C_8
REMARK    6  A    between atoms: C_8  and  C_9
REMARK    7  A    between atoms: C_17  and  C_18
REMARK                            x       y       z     vdW  Elec       q    Type
REMARK                         _______ _______ _______ _____ _____    ______ ____
ROOT
ATOM      1  C   UNL     1      45.605   5.850  12.353  0.00  0.00    +0.000 A 
ATOM      2  C   UNL     1      46.546   5.415  13.292  0.00  0.00    +0.000 A 
ATOM      3  C   UNL     1      46.634   4.063  13.573  0.00  0.00    +0.000 A 
ATOM      4  N   UNL     1      45.828   3.136  13.023  0.00  0.00    +0.000 NA
ATOM      5  C   UNL     1      44.892   3.581  12.150  0.00  0.00    +0.000 A 
ATOM      6  C   UNL     1      44.734   4.911  11.776  0.00  0.00    +0.000 A 
ENDROOT
BRANCH   6   7
ATOM      7  C   UNL     1      43.661   5.204  10.785  0.00  0.00    +0.000 C 
ATOM      8  N   UNL     1      42.756   6.178  11.074  0.00  0.00    +0.000 N 
ATOM      9  O   UNL     1      43.587   4.587   9.729  0.00  0.00    +0.000 OA
ATOM     10  H   UNL     1      42.764   6.670  11.963  0.00  0.00    +0.000 HD
ATOM     11  H   UNL     1      42.007   6.353  10.420  0.00  0.00    +0.000 HD
ENDBRANCH   6   7
BRANCH   1  13
ATOM     12  C   UNL     1      46.019   8.117  12.921  0.00  0.00    +0.000 C 
ATOM     13  O   UNL     1      45.472   7.172  12.002  0.00  0.00    +0.000 OA
ENDBRANCH   1  13
BRANCH   3  14
ATOM     14  O   UNL     1      47.593   3.679  14.495  0.00  0.00    +0.000 OA
BRANCH  14  15
ATOM     15  C   UNL     1      47.388   4.320  15.758  0.00  0.00    +0.000 C 
BRANCH  15  16
ATOM     16  C   UNL     1      47.365   3.278  16.878  0.00  0.00    +0.000 C 
BRANCH  16  17
ATOM     17  C   UNL     1      48.732   3.138  17.581  0.00  0.00    +0.000 C 
ATOM     18  C   UNL     1      49.453   4.491  17.727  0.00  0.00    +0.000 C 
ATOM     19  C   UNL     1      50.831   4.345  18.365  0.00  0.00    +0.000 C 
ATOM     20  C   UNL     1      51.699   3.353  17.603  0.00  0.00    +0.000 C 
ATOM     21  C   UNL     1      51.006   2.001  17.474  0.00  0.00    +0.000 C 
ATOM     22  C   UNL     1      49.624   2.134  16.832  0.00  0.00    +0.000 C 
ENDBRANCH  16  17
ENDBRANCH  15  16
ENDBRANCH  14  15
ENDBRANCH   3  14
TORSDOF 6
ENDMDL
MODEL 7
REMARK VINA RESULT:    -5.471      3.422      6.566
REMARK INTER + INTRA:          -8.272
REMARK INTER:                  -7.441
REMARK INTRA:                  -0.831
REMARK UNBOUND:                -0.882
REMARK  Name = 
REMARK  7 active torsions:
REMARK  status: ('A' for Active; 'I' for Inactive)
REMARK    1  A    between atoms: C_1  and  O_2
REMARK    2  A    between atoms: O_2  and  C_3
REMARK    3  A    between atoms: C_5  and  O_6
REMARK    4  A    between atoms: O_6  and  C_7
REMARK    5  A    between atoms: C_7  and  C_8
REMARK    6  A    between atoms: C_8  and  C_9
REMARK    7  A    between atoms: C_17  and  C_18
REMARK                            x       y       z     vdW  Elec       q    Type
REMARK                         _______ _______ _______ _____ _____    ______ ____
ROOT
ATOM      1  C   UNL     1      45.269   4.829  12.866  0.00  0.00    +0.000 A 
ATOM      2  C   UNL     1      45.600   6.172  13.075  0.00  0.00    +0.000 A 
ATOM      3  C   UNL     1      44.944   7.145  12.341  0.00  0.00    +0.000 A 
ATOM      4  N   UNL     1      44.027   6.869  11.396  0.00  0.00    +0.000 NA
ATOM      5  C   UNL     1      43.752   5.560  11.175  0.00  0.00    +0.000 A 
ATOM      6  C   UNL     1      44.332   4.506  11.871  0.00  0.00    +0.000 A 
ENDROOT
BRANCH   6   7
ATOM      7  C   UNL     1      43.886   3.133  11.500  0.00  0.00    +0.000 C 
ATOM      8  N   UNL     1      43.696   2.221  12.490  0.00  0.00    +0.000 N 
ATOM      9  O   UNL     1      43.690   2.825  10.330  0.00  0.00    +0.000 OA
ATOM     10  H   UNL     1      43.898   2.436  13.462  0.00  0.00    +0.000 HD
ATOM     11  H   UNL     1      43.428   1.281  12.238  0.00  0.00    +0.000 HD
ENDBRANCH   6   7
BRANCH   1  13
ATOM     12  C   UNL     1      47.023   4.158  14.316  0.00  0.00    +0.000 C 
ATOM     13  O   UNL     1      45.858   3.807  13.572  0.00  0.00    +0.000 OA
ENDBRANCH   1  13
BRANCH   3  14
ATOM     14  O   UNL     1      45.292   8.460  12.597  0.00  0.00    +0.000 OA
BRANCH  14  15
ATOM     15  C   UNL     1      46.623   8.555  13.113  0.00  0.00    +0.000 C 
BRANCH  15  16
ATOM     16  C   UNL     1      47.340   9.760  12.499  0.00  0.00    +0.000 C 
BRANCH  16  17
ATOM     17  C   UNL     1      48.572   9.350  11.664  0.00  0.00    +0.000 C 
ATOM     18  C   UNL     1      49.133   7.980  12.087  0.00  0.00    +0.000 C 
ATOM     19  C   UNL     1      50.388   7.603  11.305  0.00  0.00    +0.000 C 
ATOM     20  C   UNL     1      51.459   8.680  11.413  0.00  0.00    +0.000 C 
ATOM     21  C   UNL     1      50.922  10.037  10.972  0.00  0.00    +0.000 C 
ATOM     22  C   UNL     1      49.666  10.427  11.752  0.00  0.00    +0.000 C 
ENDBRANCH  16  17
ENDBRANCH  15  16
ENDBRANCH  14  15
ENDBRANCH   3  14
TORSDOF 6
ENDMDL
MODEL 8
REMARK VINA RESULT:    -5.389      3.088      5.317
REMARK INTER + INTRA:          -8.161
REMARK INTER:                  -7.229
REMARK INTRA:                  -0.932
REMARK UNBOUND:                -0.882
REMARK  Name = 
REMARK  7 active torsions:
REMARK  status: ('A' for Active; 'I' for Inactive)
REMARK    1  A    between atoms: C_1  and  O_2
REMARK    2  A    between atoms: O_2  and  C_3
REMARK    3  A    between atoms: C_5  and  O_6
REMARK    4  A    between atoms: O_6  and  C_7
REMARK    5  A    between atoms: C_7  and  C_8
REMARK    6  A    between atoms: C_8  and  C_9
REMARK    7  A    between atoms: C_17  and  C_18
REMARK                            x       y       z     vdW  Elec       q    Type
REMARK                         _______ _______ _______ _____ _____    ______ ____
ROOT
ATOM      1  C   UNL     1      48.363   5.548  16.194  0.00  0.00    +0.000 A 
ATOM      2  C   UNL     1      48.336   6.357  15.053  0.00  0.00    +0.000 A 
ATOM      3  C   UNL     1      47.615   5.935  13.950  0.00  0.00    +0.000 A 
ATOM      4  N   UNL     1      46.967   4.756  13.894  0.00  0.00    +0.000 NA
ATOM      5  C   UNL     1      47.042   3.965  14.991  0.00  0.00    +0.000 A 
ATOM      6  C   UNL     1      47.715   4.302  16.160  0.00  0.00    +0.000 A 
ENDROOT
BRANCH   6   7
ATOM      7  C   UNL     1      47.667   3.308  17.269  0.00  0.00    +0.000 C 
ATOM      8  N   UNL     1      48.813   3.036  17.949  0.00  0.00    +0.000 N 
ATOM      9  O   UNL     1      46.621   2.744  17.571  0.00  0.00    +0.000 OA
ATOM     10  H   UNL     1      49.702   3.452  17.688  0.00  0.00    +0.000 HD
ATOM     11  H   UNL     1      48.790   2.337  18.677  0.00  0.00    +0.000 HD
ENDBRANCH   6   7
BRANCH   1  13
ATOM     12  C   UNL     1      48.345   6.800  18.209  0.00  0.00    +0.000 C 
ATOM     13  O   UNL     1      49.036   5.908  17.337  0.00  0.00    +0.000 OA
ENDBRANCH   1  13
BRANCH   3  14
ATOM     14  O   UNL     1      47.603   6.778  12.852  0.00  0.00    +0.000 OA
BRANCH  14  15
ATOM     15  C   UNL     1      46.357   7.473  12.743  0.00  0.00    +0.000 C 
BRANCH  15  16
ATOM     16  C   UNL     1      45.731   7.216  11.370  0.00  0.00    +0.000 C 
BRANCH  16  17
ATOM     17  C   UNL     1      44.603   6.163  11.424  0.00  0.00    +0.000 C 
ATOM     18  C   UNL     1      44.065   5.958  12.852  0.00  0.00    +0.000 C 
ATOM     19  C   UNL     1      42.995   4.873  12.917  0.00  0.00    +0.000 C 
ATOM     20  C   UNL     1      43.497   3.558  12.338  0.00  0.00    +0.000 C 
ATOM     21  C   UNL     1      44.009   3.743  10.914  0.00  0.00    +0.000 C 
ATOM     22  C   UNL     1      45.086   4.826  10.838  0.00  0.00    +0.000 C 
ENDBRANCH  16  17
ENDBRANCH  15  16
ENDBRANCH  14  15
ENDBRANCH   3  14
TORSDOF 6
ENDMDL
MODEL 9
REMARK VINA RESULT:    -5.328      3.815      7.643
REMARK INTER + INTRA:          -8.079
REMARK INTER:                  -7.490
REMARK INTRA:                  -0.589
REMARK UNBOUND:                -0.882
REMARK  Name = 
REMARK  7 active torsions:
REMARK  status: ('A' for Active; 'I' for Inactive)
REMARK    1  A    between atoms: C_1  and  O_2
REMARK    2  A    between atoms: O_2  and  C_3
REMARK    3  A    between atoms: C_5  and  O_6
REMARK    4  A    between atoms: O_6  and  C_7
REMARK    5  A    between atoms: C_7  and  C_8
REMARK    6  A    between atoms: C_8  and  C_9
REMARK    7  A    between atoms: C_17  and  C_18
REMARK                            x       y       z     vdW  Elec       q    Type
REMARK                         _______ _______ _______ _____ _____    ______ ____
ROOT
ATOM      1  C   UNL     1      45.191   4.322  12.348  0.00  0.00    +0.000 A 
ATOM      2  C   UNL     1      45.960   3.432  13.105  0.00  0.00    +0.000 A 
ATOM      3  C   UNL     1      46.930   3.939  13.953  0.00  0.00    +0.000 A 
ATOM      4  N   UNL     1      47.209   5.252  14.059  0.00  0.00    +0.000 NA
ATOM      5  C   UNL     1      46.485   6.095  13.284  0.00  0.00    +0.000 A 
ATOM      6  C   UNL     1      45.472   5.696  12.420  0.00  0.00    +0.000 A 
ENDROOT
BRANCH   6   7
ATOM      7  C   UNL     1      44.773   6.774  11.665  0.00  0.00    +0.000 C 
ATOM      8  N   UNL     1      43.465   6.598  11.340  0.00  0.00    +0.000 N 
ATOM      9  O   UNL     1      45.357   7.802  11.341  0.00  0.00    +0.000 OA
ATOM     10  H   UNL     1      42.971   5.736  11.553  0.00  0.00    +0.000 HD
ATOM     11  H   UNL     1      42.999   7.312  10.798  0.00  0.00    +0.000 HD
ENDBRANCH   6   7
BRANCH   1  13
ATOM     12  C   UNL     1      44.622   3.163  10.357  0.00  0.00    +0.000 C 
ATOM     13  O   UNL     1      44.194   3.898  11.503  0.00  0.00    +0.000 OA
ENDBRANCH   1  13
BRANCH   3  14
ATOM     14  O   UNL     1      47.652   3.021  14.695  0.00  0.00    +0.000 OA
BRANCH  14  15
ATOM     15  C   UNL     1      47.630   3.345  16.088  0.00  0.00    +0.000 C 
BRANCH  15  16
ATOM     16  C   UNL     1      48.753   2.603  16.817  0.00  0.00    +0.000 C 
BRANCH  16  17
ATOM     17  C   UNL     1      49.828   3.562  17.373  0.00  0.00    +0.000 C 
ATOM     18  C   UNL     1      51.187   2.864  17.567  0.00  0.00    +0.000 C 
ATOM     19  C   UNL     1      52.232   3.793  18.176  0.00  0.00    +0.000 C 
ATOM     20  C   UNL     1      51.747   4.399  19.485  0.00  0.00    +0.000 C 
ATOM     21  C   UNL     1      50.414   5.116  19.300  0.00  0.00    +0.000 C 
ATOM     22  C   UNL     1      49.357   4.192  18.694  0.00  0.00    +0.000 C 
ENDBRANCH  16  17
ENDBRANCH  15  16
ENDBRANCH  14  15
ENDBRANCH   3  14
TORSDOF 6
ENDMDL
