MODEL 1
REMARK VINA RESULT:    -8.813      0.000      0.000
REMARK INTER + INTRA:         -12.753
REMARK INTER:                 -11.904
REMARK INTRA:                  -0.849
REMARK UNBOUND:                -0.849
REMARK  Name = 
REMARK  6 active torsions:
REMARK  status: ('A' for Active; 'I' for Inactive)
REMARK    1  A    between atoms: C_2  and  C_25
REMARK    2  A    between atoms: N_3  and  C_4
REMARK    3  A    between atoms: C_4  and  C_5
REMARK    4  A    between atoms: C_9  and  C_10
REMARK    5  A    between atoms: C_10  and  N_11
REMARK    6  A    between atoms: C_12  and  C_14
REMARK                            x       y       z     vdW  Elec       q    Type
REMARK                         _______ _______ _______ _____ _____    ______ ____
ROOT
ATOM      1  C   UNL     1      45.126   5.240  11.223  0.00  0.00    +0.000 A 
ATOM      2  C   UNL     1      45.786   6.473  11.143  0.00  0.00    +0.000 A 
ATOM      3  C   UNL     1      46.560   6.930  12.211  0.00  0.00    +0.000 A 
ATOM      4  C   UNL     1      46.658   6.174  13.380  0.00  0.00    +0.000 A 
ATOM      5  C   UNL     1      45.972   4.958  13.504  0.00  0.00    +0.000 A 
ATOM      6  C   UNL     1      45.231   4.487  12.406  0.00  0.00    +0.000 A 
ENDROOT
BRANCH   1   7
ATOM      7  C   UNL     1      44.288   4.750  10.071  0.00  0.00    +0.000 C 
BRANCH   7  10
ATOM      8  O   UNL     1      45.056   2.101   9.577  0.00  0.00    +0.000 OA
ATOM      9  C   UNL     1      45.422   2.980   8.801  0.00  0.00    +0.000 C 
ATOM     10  N   UNL     1      45.093   4.311   8.957  0.00  0.00    +0.000 N 
ATOM     11  H   UNL     1      45.440   4.985   8.280  0.00  0.00    +0.000 HD
BRANCH   9  12
ATOM     12  C   UNL     1      46.268   2.644   7.619  0.00  0.00    +0.000 A 
ATOM     13  C   UNL     1      46.292   3.473   6.507  0.00  0.00    +0.000 A 
ATOM     14  C   UNL     1      47.082   3.101   5.427  0.00  0.00    +0.000 A 
ATOM     15  C   UNL     1      47.801   1.925   5.520  0.00  0.00    +0.000 A 
ATOM     16  N   UNL     1      47.767   1.137   6.618  0.00  0.00    +0.000 NA
ATOM     17  N   UNL     1      46.990   1.499   7.683  0.00  0.00    +0.000 NA
ENDBRANCH   9  12
ENDBRANCH   7  10
ENDBRANCH   1   7
BRANCH   5  18
ATOM     18  C   UNL     1      46.015   4.182  14.797  0.00  0.00    +0.000 C 
BRANCH  18  19
ATOM     19  N   UNL     1      47.195   4.465  15.570  0.00  0.00    +0.000 N 
ATOM     20  C   UNL     1      47.378   3.914  16.814  0.00  0.00    +0.000 C 
ATOM     21  O   UNL     1      46.567   3.133  17.309  0.00  0.00    +0.000 OA
ATOM     22  H   UNL     1      47.721   5.297  15.318  0.00  0.00    +0.000 HD
BRANCH  20  23
ATOM     23  C   UNL     1      48.630   4.254  17.505  0.00  0.00    +0.000 A 
ATOM     24  C   UNL     1      48.726   5.438  18.222  0.00  0.00    +0.000 A 
ATOM     25  S   UNL     1      50.230   5.643  19.004  0.00  0.00    +0.000 S 
ATOM     26  C   UNL     1      50.824   4.183  18.365  0.00  0.00    +0.000 A 
ATOM     27  N   UNL     1      52.092   3.768  18.624  0.00  0.00    +0.000 NA
ATOM     28  C   UNL     1      52.418   2.657  18.051  0.00  0.00    +0.000 A 
ATOM     29  N   UNL     1      51.588   1.920  17.245  0.00  0.00    +0.000 N 
ATOM     30  C   UNL     1      50.291   2.285  16.983  0.00  0.00    +0.000 A 
ATOM     31  O   UNL     1      49.558   1.578  16.295  0.00  0.00    +0.000 OA
ATOM     32  C   UNL     1      49.878   3.536  17.585  0.00  0.00    +0.000 A 
ATOM     33  H   UNL     1      51.900   1.054  16.834  0.00  0.00    +0.000 HD
ENDBRANCH  20  23
ENDBRANCH  18  19
ENDBRANCH   5  18
TORSDOF 6
ENDMDL
MODEL 2
REMARK VINA RESULT:    -8.690      2.004      2.863
REMARK INTER + INTRA:         -12.587
REMARK INTER:                 -11.431
REMARK INTRA:                  -1.156
REMARK UNBOUND:                -0.849
REMARK  Name = 
REMARK  6 active torsions:
REMARK  status: ('A' for Active; 'I' for Inactive)
REMARK    1  A    between atoms: C_2  and  C_25
REMARK    2  A    between atoms: N_3  and  C_4
REMARK    3  A    between atoms: C_4  and  C_5
REMARK    4  A    between atoms: C_9  and  C_10
REMARK    5  A    between atoms: C_10  and  N_11
REMARK    6  A    between atoms: C_12  and  C_14
REMARK                            x       y       z     vdW  Elec       q    Type
REMARK                         _______ _______ _______ _____ _____    ______ ____
ROOT
ATOM      1  C   UNL     1      45.140   6.304  11.255  0.00  0.00    +0.000 A 
ATOM      2  C   UNL     1      44.412   7.476  11.500  0.00  0.00    +0.000 A 
ATOM      3  C   UNL     1      45.053   8.615  11.989  0.00  0.00    +0.000 A 
ATOM      4  C   UNL     1      46.421   8.587  12.265  0.00  0.00    +0.000 A 
ATOM      5  C   UNL     1      47.164   7.415  12.072  0.00  0.00    +0.000 A 
ATOM      6  C   UNL     1      46.517   6.287  11.537  0.00  0.00    +0.000 A 
ENDROOT
BRANCH   1   7
ATOM      7  C   UNL     1      44.447   5.074  10.731  0.00  0.00    +0.000 C 
BRANCH   7  10
ATOM      8  O   UNL     1      44.054   2.446   9.842  0.00  0.00    +0.000 OA
ATOM      9  C   UNL     1      44.929   3.126   9.313  0.00  0.00    +0.000 C 
ATOM     10  N   UNL     1      45.197   4.430   9.679  0.00  0.00    +0.000 N 
ATOM     11  H   UNL     1      45.944   4.929   9.205  0.00  0.00    +0.000 HD
BRANCH   9  12
ATOM     12  C   UNL     1      45.776   2.561   8.222  0.00  0.00    +0.000 A 
ATOM     13  C   UNL     1      46.111   3.329   7.117  0.00  0.00    +0.000 A 
ATOM     14  C   UNL     1      46.884   2.744   6.121  0.00  0.00    +0.000 A 
ATOM     15  C   UNL     1      47.276   1.430   6.289  0.00  0.00    +0.000 A 
ATOM     16  N   UNL     1      46.943   0.704   7.379  0.00  0.00    +0.000 NA
ATOM     17  N   UNL     1      46.181   1.275   8.361  0.00  0.00    +0.000 NA
ENDBRANCH   9  12
ENDBRANCH   7  10
ENDBRANCH   1   7
BRANCH   5  18
ATOM     18  C   UNL     1      48.625   7.362  12.447  0.00  0.00    +0.000 C 
BRANCH  18  19
ATOM     19  N   UNL     1      48.854   6.629  13.664  0.00  0.00    +0.000 N 
ATOM     20  C   UNL     1      48.870   7.264  14.882  0.00  0.00    +0.000 C 
ATOM     21  O   UNL     1      48.657   8.469  14.994  0.00  0.00    +0.000 OA
ATOM     22  H   UNL     1      49.299   5.720  13.577  0.00  0.00    +0.000 HD
BRANCH  20  23
ATOM     23  C   UNL     1      49.091   6.414  16.061  0.00  0.00    +0.000 A 
ATOM     24  C   UNL     1      50.073   6.749  16.981  0.00  0.00    +0.000 A 
ATOM     25  S   UNL     1      50.153   5.685  18.314  0.00  0.00    +0.000 S 
ATOM     26  C   UNL     1      48.914   4.708  17.678  0.00  0.00    +0.000 A 
ATOM     27  N   UNL     1      48.505   3.584  18.323  0.00  0.00    +0.000 NA
ATOM     28  C   UNL     1      47.577   2.924  17.712  0.00  0.00    +0.000 A 
ATOM     29  N   UNL     1      47.017   3.291  16.515  0.00  0.00    +0.000 N 
ATOM     30  C   UNL     1      47.377   4.433  15.845  0.00  0.00    +0.000 A 
ATOM     31  O   UNL     1      46.822   4.758  14.798  0.00  0.00    +0.000 OA
ATOM     32  C   UNL     1      48.429   5.202  16.477  0.00  0.00    +0.000 A 
ATOM     33  H   UNL     1      46.288   2.736  16.094  0.00  0.00    +0.000 HD
ENDBRANCH  20  23
ENDBRANCH  18  19
ENDBRANCH   5  18
TORSDOF 6
ENDMDL
MODEL 3
REMARK VINA RESULT:    -8.139      2.011      2.693
REMARK INTER + INTRA:         -11.843
REMARK INTER:                 -11.009
REMARK INTRA:                  -0.834
REMARK UNBOUND:                -0.849
REMARK  Name = 
REMARK  6 active torsions:
REMARK  status: ('A' for Active; 'I' for Inactive)
REMARK    1  A    between atoms: C_2  and  C_25
REMARK    2  A    between atoms: N_3  and  C_4
REMARK    3  A    between atoms: C_4  and  C_5
REMARK    4  A    between atoms: C_9  and  C_10
REMARK    5  A    between atoms: C_10  and  N_11
REMARK    6  A    between atoms: C_12  and  C_14
REMARK                            x       y       z     vdW  Elec       q    Type
REMARK                         _______ _______ _______ _____ _____    ______ ____
ROOT
ATOM      1  C   UNL     1      44.538   4.897  11.116  0.00  0.00    +0.000 A 
ATOM      2  C   UNL     1      44.490   3.923  12.122  0.00  0.00    +0.000 A 
ATOM      3  C   UNL     1      45.106   4.150  13.354  0.00  0.00    +0.000 A 
ATOM      4  C   UNL     1      45.799   5.340  13.583  0.00  0.00    +0.000 A 
ATOM      5  C   UNL     1      45.901   6.311  12.579  0.00  0.00    +0.000 A 
ATOM      6  C   UNL     1      45.240   6.091  11.358  0.00  0.00    +0.000 A 
ENDROOT
BRANCH   1   7
ATOM      7  C   UNL     1      43.877   4.649   9.785  0.00  0.00    +0.000 C 
BRANCH   7  10
ATOM      8  O   UNL     1      44.684   2.016   9.271  0.00  0.00    +0.000 OA
ATOM      9  C   UNL     1      45.159   2.924   8.596  0.00  0.00    +0.000 C 
ATOM     10  N   UNL     1      44.823   4.251   8.770  0.00  0.00    +0.000 N 
ATOM     11  H   UNL     1      45.264   4.951   8.180  0.00  0.00    +0.000 HD
BRANCH   9  12
ATOM     12  C   UNL     1      46.156   2.632   7.525  0.00  0.00    +0.000 A 
ATOM     13  C   UNL     1      46.250   3.446   6.405  0.00  0.00    +0.000 A 
ATOM     14  C   UNL     1      47.182   3.115   5.429  0.00  0.00    +0.000 A 
ATOM     15  C   UNL     1      47.964   1.993   5.629  0.00  0.00    +0.000 A 
ATOM     16  N   UNL     1      47.858   1.220   6.732  0.00  0.00    +0.000 NA
ATOM     17  N   UNL     1      46.942   1.541   7.695  0.00  0.00    +0.000 NA
ENDBRANCH   9  12
ENDBRANCH   7  10
ENDBRANCH   1   7
BRANCH   5  18
ATOM     18  C   UNL     1      46.718   7.561  12.801  0.00  0.00    +0.000 C 
BRANCH  18  19
ATOM     19  N   UNL     1      47.308   7.606  14.113  0.00  0.00    +0.000 N 
ATOM     20  C   UNL     1      48.549   7.067  14.350  0.00  0.00    +0.000 C 
ATOM     21  O   UNL     1      49.222   6.556  13.457  0.00  0.00    +0.000 OA
ATOM     22  H   UNL     1      46.680   7.759  14.895  0.00  0.00    +0.000 HD
BRANCH  20  23
ATOM     23  C   UNL     1      49.064   7.189  15.721  0.00  0.00    +0.000 A 
ATOM     24  C   UNL     1      49.642   8.378  16.141  0.00  0.00    +0.000 A 
ATOM     25  S   UNL     1      50.134   8.360  17.776  0.00  0.00    +0.000 S 
ATOM     26  C   UNL     1      49.642   6.742  17.963  0.00  0.00    +0.000 A 
ATOM     27  N   UNL     1      49.813   6.089  19.143  0.00  0.00    +0.000 NA
ATOM     28  C   UNL     1      49.421   4.858  19.133  0.00  0.00    +0.000 A 
ATOM     29  N   UNL     1      48.867   4.223  18.050  0.00  0.00    +0.000 N 
ATOM     30  C   UNL     1      48.647   4.853  16.851  0.00  0.00    +0.000 A 
ATOM     31  O   UNL     1      48.106   4.268  15.916  0.00  0.00    +0.000 OA
ATOM     32  C   UNL     1      49.088   6.232  16.800  0.00  0.00    +0.000 A 
ATOM     33  H   UNL     1      48.572   3.261  18.111  0.00  0.00    +0.000 HD
ENDBRANCH  20  23
ENDBRANCH  18  19
ENDBRANCH   5  18
TORSDOF 6
ENDMDL
MODEL 4
REMARK VINA RESULT:    -7.932      2.763      3.666
REMARK INTER + INTRA:         -11.562
REMARK INTER:                 -10.596
REMARK INTRA:                  -0.967
REMARK UNBOUND:                -0.849
REMARK  Name = 
REMARK  6 active torsions:
REMARK  status: ('A' for Active; 'I' for Inactive)
REMARK    1  A    between atoms: C_2  and  C_25
REMARK    2  A    between atoms: N_3  and  C_4
REMARK    3  A    between atoms: C_4  and  C_5
REMARK    4  A    between atoms: C_9  and  C_10
REMARK    5  A    between atoms: C_10  and  N_11
REMARK    6  A    between atoms: C_12  and  C_14
REMARK                            x       y       z     vdW  Elec       q    Type
REMARK                         _______ _______ _______ _____ _____    ______ ____
ROOT
ATOM      1  C   UNL     1      44.794   7.863  11.710  0.00  0.00    +0.000 A 
ATOM      2  C   UNL     1      44.354   9.109  11.245  0.00  0.00    +0.000 A 
ATOM      3  C   UNL     1      45.072  10.268  11.543  0.00  0.00    +0.000 A 
ATOM      4  C   UNL     1      46.222  10.198  12.332  0.00  0.00    +0.000 A 
ATOM      5  C   UNL     1      46.660   8.970  12.847  0.00  0.00    +0.000 A 
ATOM      6  C   UNL     1      45.953   7.804  12.504  0.00  0.00    +0.000 A 
ENDROOT
BRANCH   1   7
ATOM      7  C   UNL     1      44.016   6.614  11.391  0.00  0.00    +0.000 C 
BRANCH   7  10
ATOM      8  O   UNL     1      43.320   3.975  10.756  0.00  0.00    +0.000 OA
ATOM      9  C   UNL     1      44.267   4.495  10.172  0.00  0.00    +0.000 C 
ATOM     10  N   UNL     1      44.684   5.789  10.412  0.00  0.00    +0.000 N 
ATOM     11  H   UNL     1      45.482   6.150   9.898  0.00  0.00    +0.000 HD
BRANCH   9  12
ATOM     12  C   UNL     1      45.039   3.733   9.148  0.00  0.00    +0.000 A 
ATOM     13  C   UNL     1      45.201   2.360   9.262  0.00  0.00    +0.000 A 
ATOM     14  C   UNL     1      45.947   1.704   8.290  0.00  0.00    +0.000 A 
ATOM     15  C   UNL     1      46.486   2.457   7.264  0.00  0.00    +0.000 A 
ATOM     16  N   UNL     1      46.308   3.793   7.172  0.00  0.00    +0.000 NA
ATOM     17  N   UNL     1      45.575   4.443   8.126  0.00  0.00    +0.000 NA
ENDBRANCH   9  12
ENDBRANCH   7  10
ENDBRANCH   1   7
BRANCH   5  18
ATOM     18  C   UNL     1      47.856   8.907  13.765  0.00  0.00    +0.000 C 
BRANCH  18  19
ATOM     19  N   UNL     1      47.717   7.897  14.782  0.00  0.00    +0.000 N 
ATOM     20  C   UNL     1      48.383   6.700  14.688  0.00  0.00    +0.000 C 
ATOM     21  O   UNL     1      49.149   6.449  13.759  0.00  0.00    +0.000 OA
ATOM     22  H   UNL     1      46.903   7.962  15.386  0.00  0.00    +0.000 HD
BRANCH  20  23
ATOM     23  C   UNL     1      48.185   5.752  15.793  0.00  0.00    +0.000 A 
ATOM     24  C   UNL     1      47.435   4.601  15.593  0.00  0.00    +0.000 A 
ATOM     25  S   UNL     1      47.357   3.589  16.965  0.00  0.00    +0.000 S 
ATOM     26  C   UNL     1      48.276   4.681  17.891  0.00  0.00    +0.000 A 
ATOM     27  N   UNL     1      48.556   4.431  19.198  0.00  0.00    +0.000 NA
ATOM     28  C   UNL     1      49.237   5.358  19.785  0.00  0.00    +0.000 A 
ATOM     29  N   UNL     1      49.668   6.512  19.182  0.00  0.00    +0.000 N 
ATOM     30  C   UNL     1      49.436   6.790  17.858  0.00  0.00    +0.000 A 
ATOM     31  O   UNL     1      49.877   7.811  17.335  0.00  0.00    +0.000 OA
ATOM     32  C   UNL     1      48.658   5.791  17.155  0.00  0.00    +0.000 A 
ATOM     33  H   UNL     1      50.206   7.194  19.694  0.00  0.00    +0.000 HD
ENDBRANCH  20  23
ENDBRANCH  18  19
ENDBRANCH   5  18
TORSDOF 6
ENDMDL
MODEL 5
REMARK VINA RESULT:    -7.772      4.629      5.520
REMARK INTER + INTRA:         -11.347
REMARK INTER:                 -10.303
REMARK INTRA:                  -1.044
REMARK UNBOUND:                -0.849
REMARK  Name = 
REMARK  6 active torsions:
REMARK  status: ('A' for Active; 'I' for Inactive)
REMARK    1  A    between atoms: C_2  and  C_25
REMARK    2  A    between atoms: N_3  and  C_4
REMARK    3  A    between atoms: C_4  and  C_5
REMARK    4  A    between atoms: C_9  and  C_10
REMARK    5  A    between atoms: C_10  and  N_11
REMARK    6  A    between atoms: C_12  and  C_14
REMARK                            x       y       z     vdW  Elec       q    Type
REMARK                         _______ _______ _______ _____ _____    ______ ____
ROOT
ATOM      1  C   UNL     1      44.507   4.845  11.183  0.00  0.00    +0.000 A 
ATOM      2  C   UNL     1      45.138   3.989  12.095  0.00  0.00    +0.000 A 
ATOM      3  C   UNL     1      45.760   4.504  13.233  0.00  0.00    +0.000 A 
ATOM      4  C   UNL     1      45.782   5.882  13.458  0.00  0.00    +0.000 A 
ATOM      5  C   UNL     1      45.198   6.764  12.540  0.00  0.00    +0.000 A 
ATOM      6  C   UNL     1      44.536   6.231  11.419  0.00  0.00    +0.000 A 
ENDROOT
BRANCH   1   7
ATOM      7  C   UNL     1      43.841   4.289   9.953  0.00  0.00    +0.000 C 
BRANCH   7  10
ATOM      8  O   UNL     1      44.773   1.733   9.283  0.00  0.00    +0.000 OA
ATOM      9  C   UNL     1      45.189   2.700   8.650  0.00  0.00    +0.000 C 
ATOM     10  N   UNL     1      44.787   3.997   8.903  0.00  0.00    +0.000 N 
ATOM     11  H   UNL     1      45.181   4.749   8.345  0.00  0.00    +0.000 HD
BRANCH   9  12
ATOM     12  C   UNL     1      46.179   2.519   7.550  0.00  0.00    +0.000 A 
ATOM     13  C   UNL     1      46.200   3.387   6.467  0.00  0.00    +0.000 A 
ATOM     14  C   UNL     1      47.131   3.159   5.461  0.00  0.00    +0.000 A 
ATOM     15  C   UNL     1      47.983   2.080   5.595  0.00  0.00    +0.000 A 
ATOM     16  N   UNL     1      47.948   1.253   6.663  0.00  0.00    +0.000 NA
ATOM     17  N   UNL     1      47.034   1.473   7.656  0.00  0.00    +0.000 NA
ENDBRANCH   9  12
ENDBRANCH   7  10
ENDBRANCH   1   7
BRANCH   5  18
ATOM     18  C   UNL     1      45.293   8.257  12.743  0.00  0.00    +0.000 C 
BRANCH  18  19
ATOM     19  N   UNL     1      46.467   8.822  12.132  0.00  0.00    +0.000 N 
ATOM     20  C   UNL     1      47.551   9.194  12.889  0.00  0.00    +0.000 C 
ATOM     21  O   UNL     1      47.584   9.032  14.107  0.00  0.00    +0.000 OA
ATOM     22  H   UNL     1      46.358   9.214  11.202  0.00  0.00    +0.000 HD
BRANCH  20  23
ATOM     23  C   UNL     1      48.704   9.738  12.158  0.00  0.00    +0.000 A 
ATOM     24  C   UNL     1      48.764  11.094  11.869  0.00  0.00    +0.000 A 
ATOM     25  S   UNL     1      50.197  11.560  11.067  0.00  0.00    +0.000 S 
ATOM     26  C   UNL     1      50.762   9.956  11.028  0.00  0.00    +0.000 A 
ATOM     27  N   UNL     1      51.946   9.643  10.439  0.00  0.00    +0.000 NA
ATOM     28  C   UNL     1      52.236   8.384  10.457  0.00  0.00    +0.000 A 
ATOM     29  N   UNL     1      51.450   7.410  11.018  0.00  0.00    +0.000 N 
ATOM     30  C   UNL     1      50.263   7.684  11.650  0.00  0.00    +0.000 A 
ATOM     31  O   UNL     1      49.606   6.794  12.184  0.00  0.00    +0.000 OA
ATOM     32  C   UNL     1      49.879   9.081  11.641  0.00  0.00    +0.000 A 
ATOM     33  H   UNL     1      51.738   6.444  11.008  0.00  0.00    +0.000 HD
ENDBRANCH  20  23
ENDBRANCH  18  19
ENDBRANCH   5  18
TORSDOF 6
ENDMDL
MODEL 6
REMARK VINA RESULT:    -7.675      2.821      3.457
REMARK INTER + INTRA:         -11.216
REMARK INTER:                 -10.312
REMARK INTRA:                  -0.904
REMARK UNBOUND:                -0.849
REMARK  Name = 
REMARK  6 active torsions:
REMARK  status: ('A' for Active; 'I' for Inactive)
REMARK    1  A    between atoms: C_2  and  C_25
REMARK    2  A    between atoms: N_3  and  C_4
REMARK    3  A    between atoms: C_4  and  C_5
REMARK    4  A    between atoms: C_9  and  C_10
REMARK    5  A    between atoms: C_10  and  N_11
REMARK    6  A    between atoms: C_12  and  C_14
REMARK                            x       y       z     vdW  Elec       q    Type
REMARK                         _______ _______ _______ _____ _____    ______ ____
ROOT
ATOM      1  C   UNL     1      45.377   6.689  11.977  0.00  0.00    +0.000 A 
ATOM      2  C   UNL     1      45.050   8.046  12.100  0.00  0.00    +0.000 A 
ATOM      3  C   UNL     1      45.867   8.905  12.835  0.00  0.00    +0.000 A 
ATOM      4  C   UNL     1      47.004   8.413  13.479  0.00  0.00    +0.000 A 
ATOM      5  C   UNL     1      47.330   7.051  13.410  0.00  0.00    +0.000 A 
ATOM      6  C   UNL     1      46.523   6.204  12.631  0.00  0.00    +0.000 A 
ENDROOT
BRANCH   1   7
ATOM      7  C   UNL     1      44.492   5.761  11.187  0.00  0.00    +0.000 C 
BRANCH   7  10
ATOM      8  O   UNL     1      43.734   3.349   9.980  0.00  0.00    +0.000 OA
ATOM      9  C   UNL     1      44.750   3.915   9.587  0.00  0.00    +0.000 C 
ATOM     10  N   UNL     1      45.203   5.107  10.116  0.00  0.00    +0.000 N 
ATOM     11  H   UNL     1      46.059   5.513   9.748  0.00  0.00    +0.000 HD
BRANCH   9  12
ATOM     12  C   UNL     1      45.573   3.325   8.491  0.00  0.00    +0.000 A 
ATOM     13  C   UNL     1      45.984   2.001   8.550  0.00  0.00    +0.000 A 
ATOM     14  C   UNL     1      46.766   1.510   7.512  0.00  0.00    +0.000 A 
ATOM     15  C   UNL     1      47.090   2.368   6.479  0.00  0.00    +0.000 A 
ATOM     16  N   UNL     1      46.671   3.652   6.441  0.00  0.00    +0.000 NA
ATOM     17  N   UNL     1      45.903   4.140   7.460  0.00  0.00    +0.000 NA
ENDBRANCH   9  12
ENDBRANCH   7  10
ENDBRANCH   1   7
BRANCH   5  18
ATOM     18  C   UNL     1      48.513   6.507  14.173  0.00  0.00    +0.000 C 
BRANCH  18  19
ATOM     19  N   UNL     1      48.479   6.861  15.568  0.00  0.00    +0.000 N 
ATOM     20  C   UNL     1      49.595   6.740  16.357  0.00  0.00    +0.000 C 
ATOM     21  O   UNL     1      50.675   6.360  15.909  0.00  0.00    +0.000 OA
ATOM     22  H   UNL     1      47.565   6.903  16.009  0.00  0.00    +0.000 HD
BRANCH  20  23
ATOM     23  C   UNL     1      49.453   7.151  17.761  0.00  0.00    +0.000 A 
ATOM     24  C   UNL     1      50.289   8.126  18.286  0.00  0.00    +0.000 A 
ATOM     25  S   UNL     1      49.947   8.519  19.912  0.00  0.00    +0.000 S 
ATOM     26  C   UNL     1      48.705   7.359  19.987  0.00  0.00    +0.000 A 
ATOM     27  N   UNL     1      48.005   7.153  21.135  0.00  0.00    +0.000 NA
ATOM     28  C   UNL     1      47.112   6.223  21.056  0.00  0.00    +0.000 A 
ATOM     29  N   UNL     1      46.851   5.483  19.931  0.00  0.00    +0.000 N 
ATOM     30  C   UNL     1      47.510   5.679  18.743  0.00  0.00    +0.000 A 
ATOM     31  O   UNL     1      47.219   5.032  17.740  0.00  0.00    +0.000 OA
ATOM     32  C   UNL     1      48.538   6.699  18.780  0.00  0.00    +0.000 A 
ATOM     33  H   UNL     1      46.132   4.776  19.932  0.00  0.00    +0.000 HD
ENDBRANCH  20  23
ENDBRANCH  18  19
ENDBRANCH   5  18
TORSDOF 6
ENDMDL
MODEL 7
REMARK VINA RESULT:    -7.604      3.961      8.544
REMARK INTER + INTRA:         -11.120
REMARK INTER:                  -9.905
REMARK INTRA:                  -1.215
REMARK UNBOUND:                -0.849
REMARK  Name = 
REMARK  6 active torsions:
REMARK  status: ('A' for Active; 'I' for Inactive)
REMARK    1  A    between atoms: C_2  and  C_25
REMARK    2  A    between atoms: N_3  and  C_4
REMARK    3  A    between atoms: C_4  and  C_5
REMARK    4  A    between atoms: C_9  and  C_10
REMARK    5  A    between atoms: C_10  and  N_11
REMARK    6  A    between atoms: C_12  and  C_14
REMARK                            x       y       z     vdW  Elec       q    Type
REMARK                         _______ _______ _______ _____ _____    ______ ____
ROOT
ATOM      1  C   UNL     1      47.657   7.983  19.260  0.00  0.00    +0.000 A 
ATOM      2  C   UNL     1      47.462   9.166  19.986  0.00  0.00    +0.000 A 
ATOM      3  C   UNL     1      47.521  10.405  19.347  0.00  0.00    +0.000 A 
ATOM      4  C   UNL     1      47.805  10.477  17.982  0.00  0.00    +0.000 A 
ATOM      5  C   UNL     1      48.049   9.313  17.241  0.00  0.00    +0.000 A 
ATOM      6  C   UNL     1      47.943   8.069  17.886  0.00  0.00    +0.000 A 
ENDROOT
BRANCH   1   7
ATOM      7  C   UNL     1      47.597   6.647  19.952  0.00  0.00    +0.000 C 
BRANCH   7  10
ATOM      8  O   UNL     1      46.691   4.704  18.147  0.00  0.00    +0.000 OA
ATOM      9  C   UNL     1      47.886   4.739  18.431  0.00  0.00    +0.000 C 
ATOM     10  N   UNL     1      48.428   5.659  19.305  0.00  0.00    +0.000 N 
ATOM     11  H   UNL     1      49.424   5.622  19.501  0.00  0.00    +0.000 HD
BRANCH   9  12
ATOM     12  C   UNL     1      48.837   3.758  17.832  0.00  0.00    +0.000 A 
ATOM     13  C   UNL     1      50.198   3.843  18.092  0.00  0.00    +0.000 A 
ATOM     14  C   UNL     1      51.040   2.916  17.491  0.00  0.00    +0.000 A 
ATOM     15  C   UNL     1      50.475   1.961  16.668  0.00  0.00    +0.000 A 
ATOM     16  N   UNL     1      49.146   1.895  16.436  0.00  0.00    +0.000 NA
ATOM     17  N   UNL     1      48.313   2.805  17.024  0.00  0.00    +0.000 NA
ENDBRANCH   9  12
ENDBRANCH   7  10
ENDBRANCH   1   7
BRANCH   5  18
ATOM     18  C   UNL     1      48.435   9.399  15.784  0.00  0.00    +0.000 C 
BRANCH  18  19
ATOM     19  N   UNL     1      47.471   8.766  14.923  0.00  0.00    +0.000 N 
ATOM     20  C   UNL     1      47.861   7.855  13.971  0.00  0.00    +0.000 C 
ATOM     21  O   UNL     1      49.034   7.515  13.834  0.00  0.00    +0.000 OA
ATOM     22  H   UNL     1      46.570   9.223  14.826  0.00  0.00    +0.000 HD
BRANCH  20  23
ATOM     23  C   UNL     1      46.791   7.254  13.162  0.00  0.00    +0.000 A 
ATOM     24  C   UNL     1      45.993   8.059  12.361  0.00  0.00    +0.000 A 
ATOM     25  S   UNL     1      44.842   7.188  11.449  0.00  0.00    +0.000 S 
ATOM     26  C   UNL     1      45.332   5.712  12.138  0.00  0.00    +0.000 A 
ATOM     27  N   UNL     1      44.718   4.545  11.807  0.00  0.00    +0.000 NA
ATOM     28  C   UNL     1      45.173   3.507  12.427  0.00  0.00    +0.000 A 
ATOM     29  N   UNL     1      46.193   3.530  13.344  0.00  0.00    +0.000 N 
ATOM     30  C   UNL     1      46.862   4.680  13.684  0.00  0.00    +0.000 A 
ATOM     31  O   UNL     1      47.802   4.658  14.474  0.00  0.00    +0.000 OA
ATOM     32  C   UNL     1      46.377   5.879  13.032  0.00  0.00    +0.000 A 
ATOM     33  H   UNL     1      46.509   2.682  13.787  0.00  0.00    +0.000 HD
ENDBRANCH  20  23
ENDBRANCH  18  19
ENDBRANCH   5  18
TORSDOF 6
ENDMDL
MODEL 8
REMARK VINA RESULT:    -7.593      4.701      7.086
REMARK INTER + INTRA:         -11.106
REMARK INTER:                  -9.937
REMARK INTRA:                  -1.168
REMARK UNBOUND:                -0.849
REMARK  Name = 
REMARK  6 active torsions:
REMARK  status: ('A' for Active; 'I' for Inactive)
REMARK    1  A    between atoms: C_2  and  C_25
REMARK    2  A    between atoms: N_3  and  C_4
REMARK    3  A    between atoms: C_4  and  C_5
REMARK    4  A    between atoms: C_9  and  C_10
REMARK    5  A    between atoms: C_10  and  N_11
REMARK    6  A    between atoms: C_12  and  C_14
REMARK                            x       y       z     vdW  Elec       q    Type
REMARK                         _______ _______ _______ _____ _____    ______ ____
ROOT
ATOM      1  C   UNL     1      44.713   4.784  11.237  0.00  0.00    +0.000 A 
ATOM      2  C   UNL     1      44.349   4.076  12.389  0.00  0.00    +0.000 A 
ATOM      3  C   UNL     1      45.045   4.263  13.584  0.00  0.00    +0.000 A 
ATOM      4  C   UNL     1      46.132   5.139  13.632  0.00  0.00    +0.000 A 
ATOM      5  C   UNL     1      46.546   5.826  12.484  0.00  0.00    +0.000 A 
ATOM      6  C   UNL     1      45.809   5.663  11.297  0.00  0.00    +0.000 A 
ENDROOT
BRANCH   1   7
ATOM      7  C   UNL     1      43.963   4.578   9.947  0.00  0.00    +0.000 C 
BRANCH   7  10
ATOM      8  O   UNL     1      45.000   2.012   9.514  0.00  0.00    +0.000 OA
ATOM      9  C   UNL     1      45.299   2.912   8.733  0.00  0.00    +0.000 C 
ATOM     10  N   UNL     1      44.837   4.206   8.860  0.00  0.00    +0.000 N 
ATOM     11  H   UNL     1      45.134   4.902   8.182  0.00  0.00    +0.000 HD
BRANCH   9  12
ATOM     12  C   UNL     1      46.205   2.646   7.578  0.00  0.00    +0.000 A 
ATOM     13  C   UNL     1      46.237   3.507   6.491  0.00  0.00    +0.000 A 
ATOM     14  C   UNL     1      47.085   3.199   5.434  0.00  0.00    +0.000 A 
ATOM     15  C   UNL     1      47.848   2.051   5.525  0.00  0.00    +0.000 A 
ATOM     16  N   UNL     1      47.804   1.231   6.598  0.00  0.00    +0.000 NA
ATOM     17  N   UNL     1      46.971   1.529   7.640  0.00  0.00    +0.000 NA
ENDBRANCH   9  12
ENDBRANCH   7  10
ENDBRANCH   1   7
BRANCH   5  18
ATOM     18  C   UNL     1      47.769   6.710  12.519  0.00  0.00    +0.000 C 
BRANCH  18  19
ATOM     19  N   UNL     1      47.506   8.033  12.014  0.00  0.00    +0.000 N 
ATOM     20  C   UNL     1      47.304   9.090  12.868  0.00  0.00    +0.000 C 
ATOM     21  O   UNL     1      47.371   8.966  14.089  0.00  0.00    +0.000 OA
ATOM     22  H   UNL     1      47.175   8.103  11.057  0.00  0.00    +0.000 HD
BRANCH  20  23
ATOM     23  C   UNL     1      47.066  10.399  12.244  0.00  0.00    +0.000 A 
ATOM     24  C   UNL     1      48.005  11.411  12.378  0.00  0.00    +0.000 A 
ATOM     25  S   UNL     1      47.592  12.842  11.544  0.00  0.00    +0.000 S 
ATOM     26  C   UNL     1      46.116  12.177  11.022  0.00  0.00    +0.000 A 
ATOM     27  N   UNL     1      45.244  12.904  10.274  0.00  0.00    +0.000 NA
ATOM     28  C   UNL     1      44.152  12.283   9.973  0.00  0.00    +0.000 A 
ATOM     29  N   UNL     1      43.855  10.998  10.348  0.00  0.00    +0.000 N 
ATOM     30  C   UNL     1      44.719  10.217  11.075  0.00  0.00    +0.000 A 
ATOM     31  O   UNL     1      44.442   9.053  11.355  0.00  0.00    +0.000 OA
ATOM     32  C   UNL     1      45.953  10.872  11.457  0.00  0.00    +0.000 A 
ATOM     33  H   UNL     1      42.987  10.566  10.072  0.00  0.00    +0.000 HD
ENDBRANCH  20  23
ENDBRANCH  18  19
ENDBRANCH   5  18
TORSDOF 6
ENDMDL
MODEL 9
REMARK VINA RESULT:    -7.352      4.180     10.043
REMARK INTER + INTRA:         -10.780
REMARK INTER:                  -9.736
REMARK INTRA:                  -1.044
REMARK UNBOUND:                -0.849
REMARK  Name = 
REMARK  6 active torsions:
REMARK  status: ('A' for Active; 'I' for Inactive)
REMARK    1  A    between atoms: C_2  and  C_25
REMARK    2  A    between atoms: N_3  and  C_4
REMARK    3  A    between atoms: C_4  and  C_5
REMARK    4  A    between atoms: C_9  and  C_10
REMARK    5  A    between atoms: C_10  and  N_11
REMARK    6  A    between atoms: C_12  and  C_14
REMARK                            x       y       z     vdW  Elec       q    Type
REMARK                         _______ _______ _______ _____ _____    ______ ____
ROOT
ATOM      1  C   UNL     1      50.701   4.767  17.811  0.00  0.00    +0.000 A 
ATOM      2  C   UNL     1      51.491   3.610  17.787  0.00  0.00    +0.000 A 
ATOM      3  C   UNL     1      50.945   2.391  17.382  0.00  0.00    +0.000 A 
ATOM      4  C   UNL     1      49.598   2.309  17.025  0.00  0.00    +0.000 A 
ATOM      5  C   UNL     1      48.774   3.442  17.083  0.00  0.00    +0.000 A 
ATOM      6  C   UNL     1      49.346   4.673  17.450  0.00  0.00    +0.000 A 
ENDROOT
BRANCH   1   7
ATOM      7  C   UNL     1      51.290   6.081  18.252  0.00  0.00    +0.000 C 
BRANCH   7  10
ATOM      8  O   UNL     1      50.259   6.997  20.691  0.00  0.00    +0.000 OA
ATOM      9  C   UNL     1      49.839   7.490  19.647  0.00  0.00    +0.000 C 
ATOM     10  N   UNL     1      50.287   7.108  18.399  0.00  0.00    +0.000 N 
ATOM     11  H   UNL     1      49.887   7.553  17.577  0.00  0.00    +0.000 HD
BRANCH   9  12
ATOM     12  C   UNL     1      48.792   8.552  19.676  0.00  0.00    +0.000 A 
ATOM     13  C   UNL     1      47.863   8.602  20.705  0.00  0.00    +0.000 A 
ATOM     14  C   UNL     1      46.898   9.600  20.671  0.00  0.00    +0.000 A 
ATOM     15  C   UNL     1      46.917  10.488  19.612  0.00  0.00    +0.000 A 
ATOM     16  N   UNL     1      47.837  10.423  18.625  0.00  0.00    +0.000 NA
ATOM     17  N   UNL     1      48.789   9.442  18.654  0.00  0.00    +0.000 NA
ENDBRANCH   9  12
ENDBRANCH   7  10
ENDBRANCH   1   7
BRANCH   5  18
ATOM     18  C   UNL     1      47.301   3.334  16.774  0.00  0.00    +0.000 C 
BRANCH  18  19
ATOM     19  N   UNL     1      46.856   4.352  15.858  0.00  0.00    +0.000 N 
ATOM     20  C   UNL     1      46.876   4.142  14.501  0.00  0.00    +0.000 C 
ATOM     21  O   UNL     1      47.238   3.074  14.010  0.00  0.00    +0.000 OA
ATOM     22  H   UNL     1      46.825   5.304  16.208  0.00  0.00    +0.000 HD
BRANCH  20  23
ATOM     23  C   UNL     1      46.378   5.240  13.660  0.00  0.00    +0.000 A 
ATOM     24  C   UNL     1      47.136   6.391  13.503  0.00  0.00    +0.000 A 
ATOM     25  S   UNL     1      46.433   7.536  12.451  0.00  0.00    +0.000 S 
ATOM     26  C   UNL     1      45.062   6.556  12.213  0.00  0.00    +0.000 A 
ATOM     27  N   UNL     1      44.033   6.967  11.426  0.00  0.00    +0.000 NA
ATOM     28  C   UNL     1      43.047   6.136  11.358  0.00  0.00    +0.000 A 
ATOM     29  N   UNL     1      42.999   4.926  12.003  0.00  0.00    +0.000 N 
ATOM     30  C   UNL     1      44.028   4.457  12.781  0.00  0.00    +0.000 A 
ATOM     31  O   UNL     1      43.973   3.348  13.307  0.00  0.00    +0.000 OA
ATOM     32  C   UNL     1      45.153   5.360  12.908  0.00  0.00    +0.000 A 
ATOM     33  H   UNL     1      42.202   4.317  11.902  0.00  0.00    +0.000 HD
ENDBRANCH  20  23
ENDBRANCH  18  19
ENDBRANCH   5  18
TORSDOF 6
ENDMDL
