MODEL 1
REMARK VINA RESULT:    -8.817      0.000      0.000
REMARK INTER + INTRA:         -11.888
REMARK INTER:                 -11.394
REMARK INTRA:                  -0.494
REMARK UNBOUND:                -0.494
REMARK  Name = 
REMARK  5 active torsions:
REMARK  status: ('A' for Active; 'I' for Inactive)
REMARK    1  A    between atoms: C_2  and  C_4
REMARK    2  A    between atoms: C_7  and  O_8
REMARK    3  A    between atoms: O_8  and  C_9
REMARK    4  A    between atoms: C_9  and  C_10
REMARK    5  A    between atoms: C_15  and  C_16
REMARK                            x       y       z     vdW  Elec       q    Type
REMARK                         _______ _______ _______ _____ _____    ______ ____
ROOT
ATOM      1  C   UNL     1      44.785   4.680  12.082  0.00  0.00    +0.000 A 
ATOM      2  C   UNL     1      45.472   3.766  12.881  0.00  0.00    +0.000 A 
ATOM      3  C   UNL     1      46.650   4.152  13.499  0.00  0.00    +0.000 A 
ATOM      4  F   UNL     1      47.298   3.282  14.284  0.00  0.00    +0.000 F 
ATOM      5  C   UNL     1      47.183   5.423  13.305  0.00  0.00    +0.000 A 
ATOM      6  C   UNL     1      46.559   6.340  12.449  0.00  0.00    +0.000 A 
ATOM      7  C   UNL     1      45.328   5.960  11.880  0.00  0.00    +0.000 A 
ENDROOT
BRANCH   6   8
ATOM      8  C   UNL     1      47.149   7.706  12.099  0.00  0.00    +0.000 C 
ATOM      9  C   UNL     1      48.658   7.622  11.786  0.00  0.00    +0.000 C 
ATOM     10  C   UNL     1      49.492   7.446  13.055  0.00  0.00    +0.000 C 
ATOM     11  N   UNL     1      49.274   8.541  14.002  0.00  0.00    +0.000 NA
ATOM     12  C   UNL     1      47.863   8.666  14.364  0.00  0.00    +0.000 C 
ATOM     13  C   UNL     1      46.951   8.824  13.143  0.00  0.00    +0.000 C 
ATOM     14  H   UNL     1      49.594   9.415  13.583  0.00  0.00    +0.000 HD
ENDBRANCH   6   8
BRANCH   1  15
ATOM     15  C   UNL     1      43.503   4.281  11.402  0.00  0.00    +0.000 C 
BRANCH  15  16
ATOM     16  O   UNL     1      43.619   4.577  10.011  0.00  0.00    +0.000 OA
BRANCH  16  20
ATOM     17  C   UNL     1      46.380   2.429   7.741  0.00  0.00    +0.000 A 
ATOM     18  C   UNL     1      45.547   1.730   8.620  0.00  0.00    +0.000 A 
ATOM     19  C   UNL     1      44.609   2.417   9.394  0.00  0.00    +0.000 A 
ATOM     20  C   UNL     1      44.498   3.804   9.303  0.00  0.00    +0.000 A 
ATOM     21  C   UNL     1      45.342   4.503   8.434  0.00  0.00    +0.000 A 
ATOM     22  C   UNL     1      46.285   3.822   7.659  0.00  0.00    +0.000 A 
BRANCH  17  24
ATOM     23  N   UNL     1      48.459   2.445   6.477  0.00  0.00    +0.000 N 
ATOM     24  C   UNL     1      47.385   1.720   6.910  0.00  0.00    +0.000 C 
ATOM     25  O   UNL     1      47.277   0.527   6.649  0.00  0.00    +0.000 OA
ATOM     26  H   UNL     1      49.184   1.929   5.995  0.00  0.00    +0.000 HD
ATOM     27  H   UNL     1      48.707   3.337   6.875  0.00  0.00    +0.000 HD
ENDBRANCH  17  24
ENDBRANCH  16  20
ENDBRANCH  15  16
ENDBRANCH   1  15
TORSDOF 5
ENDMDL
MODEL 2
REMARK VINA RESULT:    -8.415      1.915      2.497
REMARK INTER + INTRA:         -11.368
REMARK INTER:                 -10.620
REMARK INTRA:                  -0.748
REMARK UNBOUND:                -0.494
REMARK  Name = 
REMARK  5 active torsions:
REMARK  status: ('A' for Active; 'I' for Inactive)
REMARK    1  A    between atoms: C_2  and  C_4
REMARK    2  A    between atoms: C_7  and  O_8
REMARK    3  A    between atoms: O_8  and  C_9
REMARK    4  A    between atoms: C_9  and  C_10
REMARK    5  A    between atoms: C_15  and  C_16
REMARK                            x       y       z     vdW  Elec       q    Type
REMARK                         _______ _______ _______ _____ _____    ______ ____
ROOT
ATOM      1  C   UNL     1      44.519   4.901  11.481  0.00  0.00    +0.000 A 
ATOM      2  C   UNL     1      43.493   5.833  11.317  0.00  0.00    +0.000 A 
ATOM      3  C   UNL     1      43.800   7.181  11.257  0.00  0.00    +0.000 A 
ATOM      4  F   UNL     1      42.818   8.074  11.077  0.00  0.00    +0.000 F 
ATOM      5  C   UNL     1      45.111   7.630  11.396  0.00  0.00    +0.000 A 
ATOM      6  C   UNL     1      46.155   6.728  11.636  0.00  0.00    +0.000 A 
ATOM      7  C   UNL     1      45.841   5.355  11.629  0.00  0.00    +0.000 A 
ENDROOT
BRANCH   6   8
ATOM      8  C   UNL     1      47.596   7.158  11.914  0.00  0.00    +0.000 C 
ATOM      9  C   UNL     1      48.319   6.180  12.866  0.00  0.00    +0.000 C 
ATOM     10  C   UNL     1      47.855   6.349  14.313  0.00  0.00    +0.000 C 
ATOM     11  N   UNL     1      48.074   7.714  14.796  0.00  0.00    +0.000 NA
ATOM     12  C   UNL     1      47.395   8.697  13.953  0.00  0.00    +0.000 C 
ATOM     13  C   UNL     1      47.788   8.581  12.476  0.00  0.00    +0.000 C 
ATOM     14  H   UNL     1      49.075   7.910  14.804  0.00  0.00    +0.000 HD
ENDBRANCH   6   8
BRANCH   1  15
ATOM     15  C   UNL     1      44.207   3.431  11.549  0.00  0.00    +0.000 C 
BRANCH  15  16
ATOM     16  O   UNL     1      43.699   3.018  10.282  0.00  0.00    +0.000 OA
BRANCH  16  20
ATOM     17  C   UNL     1      46.525   2.516   7.256  0.00  0.00    +0.000 A 
ATOM     18  C   UNL     1      45.902   3.761   7.391  0.00  0.00    +0.000 A 
ATOM     19  C   UNL     1      44.953   3.966   8.395  0.00  0.00    +0.000 A 
ATOM     20  C   UNL     1      44.613   2.931   9.267  0.00  0.00    +0.000 A 
ATOM     21  C   UNL     1      45.226   1.683   9.122  0.00  0.00    +0.000 A 
ATOM     22  C   UNL     1      46.175   1.472   8.117  0.00  0.00    +0.000 A 
BRANCH  17  24
ATOM     23  N   UNL     1      47.461   3.057   5.077  0.00  0.00    +0.000 N 
ATOM     24  C   UNL     1      47.535   2.277   6.196  0.00  0.00    +0.000 C 
ATOM     25  O   UNL     1      48.421   1.439   6.328  0.00  0.00    +0.000 OA
ATOM     26  H   UNL     1      48.211   2.951   4.405  0.00  0.00    +0.000 HD
ATOM     27  H   UNL     1      46.921   3.907   5.043  0.00  0.00    +0.000 HD
ENDBRANCH  17  24
ENDBRANCH  16  20
ENDBRANCH  15  16
ENDBRANCH   1  15
TORSDOF 5
ENDMDL
MODEL 3
REMARK VINA RESULT:    -7.933      2.643      3.350
REMARK INTER + INTRA:         -10.746
REMARK INTER:                  -9.917
REMARK INTRA:                  -0.829
REMARK UNBOUND:                -0.494
REMARK  Name = 
REMARK  5 active torsions:
REMARK  status: ('A' for Active; 'I' for Inactive)
REMARK    1  A    between atoms: C_2  and  C_4
REMARK    2  A    between atoms: C_7  and  O_8
REMARK    3  A    between atoms: O_8  and  C_9
REMARK    4  A    between atoms: C_9  and  C_10
REMARK    5  A    between atoms: C_15  and  C_16
REMARK                            x       y       z     vdW  Elec       q    Type
REMARK                         _______ _______ _______ _____ _____    ______ ____
ROOT
ATOM      1  C   UNL     1      45.202   6.379  11.639  0.00  0.00    +0.000 A 
ATOM      2  C   UNL     1      46.595   6.302  11.625  0.00  0.00    +0.000 A 
ATOM      3  C   UNL     1      47.344   7.449  11.831  0.00  0.00    +0.000 A 
ATOM      4  F   UNL     1      48.681   7.372  11.840  0.00  0.00    +0.000 F 
ATOM      5  C   UNL     1      46.732   8.686  12.012  0.00  0.00    +0.000 A 
ATOM      6  C   UNL     1      45.337   8.812  11.956  0.00  0.00    +0.000 A 
ATOM      7  C   UNL     1      44.585   7.630  11.813  0.00  0.00    +0.000 A 
ENDROOT
BRANCH   6   8
ATOM      8  C   UNL     1      44.606  10.153  12.029  0.00  0.00    +0.000 C 
ATOM      9  C   UNL     1      43.403  10.209  11.062  0.00  0.00    +0.000 C 
ATOM     10  C   UNL     1      43.850  10.388   9.611  0.00  0.00    +0.000 C 
ATOM     11  N   UNL     1      44.645  11.605   9.435  0.00  0.00    +0.000 NA
ATOM     12  C   UNL     1      45.820  11.609  10.305  0.00  0.00    +0.000 C 
ATOM     13  C   UNL     1      45.462  11.412  11.782  0.00  0.00    +0.000 C 
ATOM     14  H   UNL     1      44.065  12.417   9.645  0.00  0.00    +0.000 HD
ENDBRANCH   6   8
BRANCH   1  15
ATOM     15  C   UNL     1      44.371   5.145  11.417  0.00  0.00    +0.000 C 
BRANCH  15  16
ATOM     16  O   UNL     1      44.091   5.035  10.022  0.00  0.00    +0.000 OA
BRANCH  16  20
ATOM     17  C   UNL     1      46.420   2.383   7.801  0.00  0.00    +0.000 A 
ATOM     18  C   UNL     1      45.520   1.863   8.736  0.00  0.00    +0.000 A 
ATOM     19  C   UNL     1      44.722   2.721   9.496  0.00  0.00    +0.000 A 
ATOM     20  C   UNL     1      44.819   4.103   9.334  0.00  0.00    +0.000 A 
ATOM     21  C   UNL     1      45.730   4.623   8.409  0.00  0.00    +0.000 A 
ATOM     22  C   UNL     1      46.533   3.768   7.648  0.00  0.00    +0.000 A 
BRANCH  17  24
ATOM     23  N   UNL     1      48.370   2.051   6.384  0.00  0.00    +0.000 N 
ATOM     24  C   UNL     1      47.278   1.489   6.984  0.00  0.00    +0.000 C 
ATOM     25  O   UNL     1      47.041   0.292   6.876  0.00  0.00    +0.000 OA
ATOM     26  H   UNL     1      49.000   1.415   5.912  0.00  0.00    +0.000 HD
ATOM     27  H   UNL     1      48.732   2.952   6.653  0.00  0.00    +0.000 HD
ENDBRANCH  17  24
ENDBRANCH  16  20
ENDBRANCH  15  16
ENDBRANCH   1  15
TORSDOF 5
ENDMDL
MODEL 4
REMARK VINA RESULT:    -7.177      4.912      7.786
REMARK INTER + INTRA:          -9.770
REMARK INTER:                  -9.428
REMARK INTRA:                  -0.341
REMARK UNBOUND:                -0.494
REMARK  Name = 
REMARK  5 active torsions:
REMARK  status: ('A' for Active; 'I' for Inactive)
REMARK    1  A    between atoms: C_2  and  C_4
REMARK    2  A    between atoms: C_7  and  O_8
REMARK    3  A    between atoms: O_8  and  C_9
REMARK    4  A    between atoms: C_9  and  C_10
REMARK    5  A    between atoms: C_15  and  C_16
REMARK                            x       y       z     vdW  Elec       q    Type
REMARK                         _______ _______ _______ _____ _____    ______ ____
ROOT
ATOM      1  C   UNL     1      46.622   4.977  14.053  0.00  0.00    +0.000 A 
ATOM      2  C   UNL     1      47.660   5.810  13.636  0.00  0.00    +0.000 A 
ATOM      3  C   UNL     1      47.543   6.500  12.441  0.00  0.00    +0.000 A 
ATOM      4  F   UNL     1      48.530   7.317  12.051  0.00  0.00    +0.000 F 
ATOM      5  C   UNL     1      46.423   6.348  11.628  0.00  0.00    +0.000 A 
ATOM      6  C   UNL     1      45.396   5.462  11.980  0.00  0.00    +0.000 A 
ATOM      7  C   UNL     1      45.496   4.817  13.228  0.00  0.00    +0.000 A 
ENDROOT
BRANCH   6   8
ATOM      8  C   UNL     1      44.198   5.158  11.081  0.00  0.00    +0.000 C 
ATOM      9  C   UNL     1      43.112   4.344  11.818  0.00  0.00    +0.000 C 
ATOM     10  C   UNL     1      43.518   2.880  11.987  0.00  0.00    +0.000 C 
ATOM     11  N   UNL     1      43.783   2.239  10.698  0.00  0.00    +0.000 NA
ATOM     12  C   UNL     1      44.823   2.945   9.950  0.00  0.00    +0.000 C 
ATOM     13  C   UNL     1      44.504   4.432   9.755  0.00  0.00    +0.000 C 
ATOM     14  H   UNL     1      42.923   2.224  10.148  0.00  0.00    +0.000 HD
ENDBRANCH   6   8
BRANCH   1  15
ATOM     15  C   UNL     1      46.730   4.218  15.348  0.00  0.00    +0.000 C 
BRANCH  15  16
ATOM     16  O   UNL     1      47.640   4.910  16.201  0.00  0.00    +0.000 OA
BRANCH  16  20
ATOM     17  C   UNL     1      50.833   2.524  17.427  0.00  0.00    +0.000 A 
ATOM     18  C   UNL     1      50.882   3.896  17.691  0.00  0.00    +0.000 A 
ATOM     19  C   UNL     1      49.830   4.725  17.297  0.00  0.00    +0.000 A 
ATOM     20  C   UNL     1      48.724   4.195  16.633  0.00  0.00    +0.000 A 
ATOM     21  C   UNL     1      48.682   2.825  16.357  0.00  0.00    +0.000 A 
ATOM     22  C   UNL     1      49.734   1.991  16.746  0.00  0.00    +0.000 A 
BRANCH  17  24
ATOM     23  N   UNL     1      51.615   0.333  18.138  0.00  0.00    +0.000 N 
ATOM     24  C   UNL     1      51.941   1.625  17.836  0.00  0.00    +0.000 C 
ATOM     25  O   UNL     1      53.103   2.011  17.871  0.00  0.00    +0.000 OA
ATOM     26  H   UNL     1      52.389  -0.294  18.320  0.00  0.00    +0.000 HD
ATOM     27  H   UNL     1      50.733  -0.079  17.879  0.00  0.00    +0.000 HD
ENDBRANCH  17  24
ENDBRANCH  16  20
ENDBRANCH  15  16
ENDBRANCH   1  15
TORSDOF 5
ENDMDL
MODEL 5
REMARK VINA RESULT:    -7.168      4.887      8.629
REMARK INTER + INTRA:          -9.758
REMARK INTER:                  -9.588
REMARK INTRA:                  -0.169
REMARK UNBOUND:                -0.494
REMARK  Name = 
REMARK  5 active torsions:
REMARK  status: ('A' for Active; 'I' for Inactive)
REMARK    1  A    between atoms: C_2  and  C_4
REMARK    2  A    between atoms: C_7  and  O_8
REMARK    3  A    between atoms: O_8  and  C_9
REMARK    4  A    between atoms: C_9  and  C_10
REMARK    5  A    between atoms: C_15  and  C_16
REMARK                            x       y       z     vdW  Elec       q    Type
REMARK                         _______ _______ _______ _____ _____    ______ ____
ROOT
ATOM      1  C   UNL     1      46.666   5.226  13.587  0.00  0.00    +0.000 A 
ATOM      2  C   UNL     1      47.565   6.158  13.068  0.00  0.00    +0.000 A 
ATOM      3  C   UNL     1      47.274   6.795  11.874  0.00  0.00    +0.000 A 
ATOM      4  F   UNL     1      48.127   7.706  11.387  0.00  0.00    +0.000 F 
ATOM      5  C   UNL     1      46.117   6.495  11.160  0.00  0.00    +0.000 A 
ATOM      6  C   UNL     1      45.229   5.511  11.614  0.00  0.00    +0.000 A 
ATOM      7  C   UNL     1      45.502   4.918  12.862  0.00  0.00    +0.000 A 
ENDROOT
BRANCH   6   8
ATOM      8  C   UNL     1      44.005   5.049  10.824  0.00  0.00    +0.000 C 
ATOM      9  C   UNL     1      43.038   4.214  11.692  0.00  0.00    +0.000 C 
ATOM     10  C   UNL     1      43.570   2.802  11.936  0.00  0.00    +0.000 C 
ATOM     11  N   UNL     1      43.803   2.086  10.680  0.00  0.00    +0.000 NA
ATOM     12  C   UNL     1      44.733   2.810   9.814  0.00  0.00    +0.000 C 
ATOM     13  C   UNL     1      44.284   4.249   9.536  0.00  0.00    +0.000 C 
ATOM     14  H   UNL     1      42.914   1.964  10.194  0.00  0.00    +0.000 HD
ENDBRANCH   6   8
BRANCH   1  15
ATOM     15  C   UNL     1      46.964   4.522  14.883  0.00  0.00    +0.000 C 
BRANCH  15  16
ATOM     16  O   UNL     1      48.167   5.064  15.424  0.00  0.00    +0.000 OA
BRANCH  16  20
ATOM     17  C   UNL     1      48.807   4.707  19.529  0.00  0.00    +0.000 A 
ATOM     18  C   UNL     1      48.590   3.546  18.782  0.00  0.00    +0.000 A 
ATOM     19  C   UNL     1      48.375   3.627  17.404  0.00  0.00    +0.000 A 
ATOM     20  C   UNL     1      48.368   4.866  16.762  0.00  0.00    +0.000 A 
ATOM     21  C   UNL     1      48.571   6.027  17.513  0.00  0.00    +0.000 A 
ATOM     22  C   UNL     1      48.784   5.952  18.893  0.00  0.00    +0.000 A 
BRANCH  17  24
ATOM     23  N   UNL     1      50.334   4.655  21.422  0.00  0.00    +0.000 N 
ATOM     24  C   UNL     1      49.036   4.644  20.994  0.00  0.00    +0.000 C 
ATOM     25  O   UNL     1      48.105   4.616  21.790  0.00  0.00    +0.000 OA
ATOM     26  H   UNL     1      50.475   4.710  22.423  0.00  0.00    +0.000 HD
ATOM     27  H   UNL     1      51.099   4.930  20.827  0.00  0.00    +0.000 HD
ENDBRANCH  17  24
ENDBRANCH  16  20
ENDBRANCH  15  16
ENDBRANCH   1  15
TORSDOF 5
ENDMDL
MODEL 6
REMARK VINA RESULT:    -6.864      4.471      6.416
REMARK INTER + INTRA:          -9.365
REMARK INTER:                  -8.295
REMARK INTRA:                  -1.070
REMARK UNBOUND:                -0.494
REMARK  Name = 
REMARK  5 active torsions:
REMARK  status: ('A' for Active; 'I' for Inactive)
REMARK    1  A    between atoms: C_2  and  C_4
REMARK    2  A    between atoms: C_7  and  O_8
REMARK    3  A    between atoms: O_8  and  C_9
REMARK    4  A    between atoms: C_9  and  C_10
REMARK    5  A    between atoms: C_15  and  C_16
REMARK                            x       y       z     vdW  Elec       q    Type
REMARK                         _______ _______ _______ _____ _____    ______ ____
ROOT
ATOM      1  C   UNL     1      49.111   7.802  14.592  0.00  0.00    +0.000 A 
ATOM      2  C   UNL     1      48.664   9.060  14.997  0.00  0.00    +0.000 A 
ATOM      3  C   UNL     1      48.510   9.328  16.346  0.00  0.00    +0.000 A 
ATOM      4  F   UNL     1      48.103  10.543  16.736  0.00  0.00    +0.000 F 
ATOM      5  C   UNL     1      48.756   8.352  17.307  0.00  0.00    +0.000 A 
ATOM      6  C   UNL     1      49.133   7.055  16.933  0.00  0.00    +0.000 A 
ATOM      7  C   UNL     1      49.350   6.814  15.562  0.00  0.00    +0.000 A 
ENDROOT
BRANCH   6   8
ATOM      8  C   UNL     1      49.305   5.905  17.925  0.00  0.00    +0.000 C 
ATOM      9  C   UNL     1      49.079   4.529  17.262  0.00  0.00    +0.000 C 
ATOM     10  C   UNL     1      47.595   4.258  17.010  0.00  0.00    +0.000 C 
ATOM     11  N   UNL     1      46.817   4.309  18.249  0.00  0.00    +0.000 NA
ATOM     12  C   UNL     1      46.965   5.599  18.923  0.00  0.00    +0.000 C 
ATOM     13  C   UNL     1      48.429   5.960  19.194  0.00  0.00    +0.000 C 
ATOM     14  H   UNL     1      47.130   3.565  18.872  0.00  0.00    +0.000 HD
ENDBRANCH   6   8
BRANCH   1  15
ATOM     15  C   UNL     1      49.283   7.491  13.130  0.00  0.00    +0.000 C 
BRANCH  15  16
ATOM     16  O   UNL     1      48.757   6.189  12.881  0.00  0.00    +0.000 OA
BRANCH  16  20
ATOM     17  C   UNL     1      44.624   5.756  12.535  0.00  0.00    +0.000 A 
ATOM     18  C   UNL     1      45.259   6.747  11.781  0.00  0.00    +0.000 A 
ATOM     19  C   UNL     1      46.642   6.919  11.870  0.00  0.00    +0.000 A 
ATOM     20  C   UNL     1      47.402   6.109  12.715  0.00  0.00    +0.000 A 
ATOM     21  C   UNL     1      46.763   5.127  13.479  0.00  0.00    +0.000 A 
ATOM     22  C   UNL     1      45.378   4.953  13.396  0.00  0.00    +0.000 A 
BRANCH  17  24
ATOM     23  N   UNL     1      42.464   6.353  11.587  0.00  0.00    +0.000 N 
ATOM     24  C   UNL     1      43.156   5.557  12.457  0.00  0.00    +0.000 C 
ATOM     25  O   UNL     1      42.586   4.695  13.116  0.00  0.00    +0.000 OA
ATOM     26  H   UNL     1      41.481   6.143  11.471  0.00  0.00    +0.000 HD
ATOM     27  H   UNL     1      42.918   6.882  10.859  0.00  0.00    +0.000 HD
ENDBRANCH  17  24
ENDBRANCH  16  20
ENDBRANCH  15  16
ENDBRANCH   1  15
TORSDOF 5
ENDMDL
MODEL 7
REMARK VINA RESULT:    -6.596      4.403      6.575
REMARK INTER + INTRA:          -9.018
REMARK INTER:                  -8.194
REMARK INTRA:                  -0.824
REMARK UNBOUND:                -0.494
REMARK  Name = 
REMARK  5 active torsions:
REMARK  status: ('A' for Active; 'I' for Inactive)
REMARK    1  A    between atoms: C_2  and  C_4
REMARK    2  A    between atoms: C_7  and  O_8
REMARK    3  A    between atoms: O_8  and  C_9
REMARK    4  A    between atoms: C_9  and  C_10
REMARK    5  A    between atoms: C_15  and  C_16
REMARK                            x       y       z     vdW  Elec       q    Type
REMARK                         _______ _______ _______ _____ _____    ______ ____
ROOT
ATOM      1  C   UNL     1      49.066   7.399  15.477  0.00  0.00    +0.000 A 
ATOM      2  C   UNL     1      48.457   8.408  16.223  0.00  0.00    +0.000 A 
ATOM      3  C   UNL     1      48.542   8.380  17.605  0.00  0.00    +0.000 A 
ATOM      4  F   UNL     1      47.977   9.361  18.321  0.00  0.00    +0.000 F 
ATOM      5  C   UNL     1      49.190   7.341  18.266  0.00  0.00    +0.000 A 
ATOM      6  C   UNL     1      49.747   6.272  17.551  0.00  0.00    +0.000 A 
ATOM      7  C   UNL     1      49.712   6.345  16.145  0.00  0.00    +0.000 A 
ENDROOT
BRANCH   6   8
ATOM      8  C   UNL     1      50.368   5.043  18.216  0.00  0.00    +0.000 C 
ATOM      9  C   UNL     1      49.854   3.727  17.593  0.00  0.00    +0.000 C 
ATOM     10  C   UNL     1      48.429   3.405  18.042  0.00  0.00    +0.000 C 
ATOM     11  N   UNL     1      48.330   3.299  19.499  0.00  0.00    +0.000 NA
ATOM     12  C   UNL     1      48.779   4.525  20.158  0.00  0.00    +0.000 C 
ATOM     13  C   UNL     1      50.197   4.933  19.745  0.00  0.00    +0.000 C 
ATOM     14  H   UNL     1      48.901   2.516  19.817  0.00  0.00    +0.000 HD
ENDBRANCH   6   8
BRANCH   1  15
ATOM     15  C   UNL     1      48.985   7.410  13.974  0.00  0.00    +0.000 C 
BRANCH  15  16
ATOM     16  O   UNL     1      48.631   6.102  13.532  0.00  0.00    +0.000 OA
BRANCH  16  20
ATOM     17  C   UNL     1      44.744   5.777  12.055  0.00  0.00    +0.000 A 
ATOM     18  C   UNL     1      45.111   4.993  13.153  0.00  0.00    +0.000 A 
ATOM     19  C   UNL     1      46.403   5.078  13.676  0.00  0.00    +0.000 A 
ATOM     20  C   UNL     1      47.341   5.939  13.105  0.00  0.00    +0.000 A 
ATOM     21  C   UNL     1      46.977   6.711  11.997  0.00  0.00    +0.000 A 
ATOM     22  C   UNL     1      45.686   6.627  11.468  0.00  0.00    +0.000 A 
BRANCH  17  24
ATOM     23  N   UNL     1      42.792   6.878  11.110  0.00  0.00    +0.000 N 
ATOM     24  C   UNL     1      43.377   5.701  11.483  0.00  0.00    +0.000 C 
ATOM     25  O   UNL     1      42.806   4.629  11.319  0.00  0.00    +0.000 OA
ATOM     26  H   UNL     1      41.902   6.806  10.633  0.00  0.00    +0.000 HD
ATOM     27  H   UNL     1      43.315   7.731  10.993  0.00  0.00    +0.000 HD
ENDBRANCH  17  24
ENDBRANCH  16  20
ENDBRANCH  15  16
ENDBRANCH   1  15
TORSDOF 5
ENDMDL
MODEL 8
REMARK VINA RESULT:    -6.580      4.681      8.180
REMARK INTER + INTRA:          -8.998
REMARK INTER:                  -8.492
REMARK INTRA:                  -0.505
REMARK UNBOUND:                -0.494
REMARK  Name = 
REMARK  5 active torsions:
REMARK  status: ('A' for Active; 'I' for Inactive)
REMARK    1  A    between atoms: C_2  and  C_4
REMARK    2  A    between atoms: C_7  and  O_8
REMARK    3  A    between atoms: O_8  and  C_9
REMARK    4  A    between atoms: C_9  and  C_10
REMARK    5  A    between atoms: C_15  and  C_16
REMARK                            x       y       z     vdW  Elec       q    Type
REMARK                         _______ _______ _______ _____ _____    ______ ____
ROOT
ATOM      1  C   UNL     1      46.962   7.379  13.070  0.00  0.00    +0.000 A 
ATOM      2  C   UNL     1      46.596   8.714  12.899  0.00  0.00    +0.000 A 
ATOM      3  C   UNL     1      45.436   9.021  12.208  0.00  0.00    +0.000 A 
ATOM      4  F   UNL     1      45.073  10.302  12.064  0.00  0.00    +0.000 F 
ATOM      5  C   UNL     1      44.647   8.021  11.646  0.00  0.00    +0.000 A 
ATOM      6  C   UNL     1      45.024   6.675  11.733  0.00  0.00    +0.000 A 
ATOM      7  C   UNL     1      46.169   6.371  12.494  0.00  0.00    +0.000 A 
ENDROOT
BRANCH   6   8
ATOM      8  C   UNL     1      44.270   5.540  11.041  0.00  0.00    +0.000 C 
ATOM      9  C   UNL     1      42.895   5.275  11.694  0.00  0.00    +0.000 C 
ATOM     10  C   UNL     1      43.033   4.540  13.028  0.00  0.00    +0.000 C 
ATOM     11  N   UNL     1      43.727   3.260  12.871  0.00  0.00    +0.000 NA
ATOM     12  C   UNL     1      45.052   3.437  12.278  0.00  0.00    +0.000 C 
ATOM     13  C   UNL     1      45.007   4.188  10.943  0.00  0.00    +0.000 C 
ATOM     14  H   UNL     1      43.170   2.647  12.276  0.00  0.00    +0.000 HD
ENDBRANCH   6   8
BRANCH   1  15
ATOM     15  C   UNL     1      48.219   7.024  13.817  0.00  0.00    +0.000 C 
BRANCH  15  16
ATOM     16  O   UNL     1      48.078   5.703  14.335  0.00  0.00    +0.000 OA
BRANCH  16  20
ATOM     17  C   UNL     1      48.472   5.067  18.438  0.00  0.00    +0.000 A 
ATOM     18  C   UNL     1      49.011   6.234  17.886  0.00  0.00    +0.000 A 
ATOM     19  C   UNL     1      48.895   6.481  16.516  0.00  0.00    +0.000 A 
ATOM     20  C   UNL     1      48.248   5.565  15.686  0.00  0.00    +0.000 A 
ATOM     21  C   UNL     1      47.723   4.393  16.237  0.00  0.00    +0.000 A 
ATOM     22  C   UNL     1      47.838   4.139  17.607  0.00  0.00    +0.000 A 
BRANCH  17  24
ATOM     23  N   UNL     1      48.368   3.497  20.293  0.00  0.00    +0.000 N 
ATOM     24  C   UNL     1      48.585   4.785  19.890  0.00  0.00    +0.000 C 
ATOM     25  O   UNL     1      48.891   5.657  20.694  0.00  0.00    +0.000 OA
ATOM     26  H   UNL     1      48.543   3.296  21.269  0.00  0.00    +0.000 HD
ATOM     27  H   UNL     1      48.368   2.720  19.650  0.00  0.00    +0.000 HD
ENDBRANCH  17  24
ENDBRANCH  16  20
ENDBRANCH  15  16
ENDBRANCH   1  15
TORSDOF 5
ENDMDL
MODEL 9
REMARK VINA RESULT:    -6.544      3.549      7.424
REMARK INTER + INTRA:          -8.950
REMARK INTER:                  -8.672
REMARK INTRA:                  -0.279
REMARK UNBOUND:                -0.494
REMARK  Name = 
REMARK  5 active torsions:
REMARK  status: ('A' for Active; 'I' for Inactive)
REMARK    1  A    between atoms: C_2  and  C_4
REMARK    2  A    between atoms: C_7  and  O_8
REMARK    3  A    between atoms: O_8  and  C_9
REMARK    4  A    between atoms: C_9  and  C_10
REMARK    5  A    between atoms: C_15  and  C_16
REMARK                            x       y       z     vdW  Elec       q    Type
REMARK                         _______ _______ _______ _____ _____    ______ ____
ROOT
ATOM      1  C   UNL     1      47.369   6.594  12.170  0.00  0.00    +0.000 A 
ATOM      2  C   UNL     1      47.432   6.031  13.445  0.00  0.00    +0.000 A 
ATOM      3  C   UNL     1      46.518   5.056  13.806  0.00  0.00    +0.000 A 
ATOM      4  F   UNL     1      46.592   4.500  15.023  0.00  0.00    +0.000 F 
ATOM      5  C   UNL     1      45.511   4.654  12.934  0.00  0.00    +0.000 A 
ATOM      6  C   UNL     1      45.373   5.251  11.674  0.00  0.00    +0.000 A 
ATOM      7  C   UNL     1      46.347   6.193  11.293  0.00  0.00    +0.000 A 
ENDROOT
BRANCH   6   8
ATOM      8  C   UNL     1      44.223   4.942  10.714  0.00  0.00    +0.000 C 
ATOM      9  C   UNL     1      43.083   4.164  11.407  0.00  0.00    +0.000 C 
ATOM     10  C   UNL     1      43.454   2.699  11.636  0.00  0.00    +0.000 C 
ATOM     11  N   UNL     1      43.782   2.021  10.380  0.00  0.00    +0.000 NA
ATOM     12  C   UNL     1      44.875   2.692   9.677  0.00  0.00    +0.000 C 
ATOM     13  C   UNL     1      44.594   4.177   9.427  0.00  0.00    +0.000 C 
ATOM     14  H   UNL     1      42.956   2.005   9.782  0.00  0.00    +0.000 HD
ENDBRANCH   6   8
BRANCH   1  15
ATOM     15  C   UNL     1      48.353   7.655  11.758  0.00  0.00    +0.000 C 
BRANCH  15  16
ATOM     16  O   UNL     1      48.145   8.805  12.576  0.00  0.00    +0.000 OA
BRANCH  16  20
ATOM     17  C   UNL     1      45.057  11.336  11.373  0.00  0.00    +0.000 A 
ATOM     18  C   UNL     1      46.370  11.669  11.027  0.00  0.00    +0.000 A 
ATOM     19  C   UNL     1      47.429  10.844  11.411  0.00  0.00    +0.000 A 
ATOM     20  C   UNL     1      47.188   9.683  12.147  0.00  0.00    +0.000 A 
ATOM     21  C   UNL     1      45.876   9.359  12.505  0.00  0.00    +0.000 A 
ATOM     22  C   UNL     1      44.813  10.184  12.126  0.00  0.00    +0.000 A 
BRANCH  17  24
ATOM     23  N   UNL     1      43.914  12.679   9.697  0.00  0.00    +0.000 N 
ATOM     24  C   UNL     1      43.917  12.200  10.977  0.00  0.00    +0.000 C 
ATOM     25  O   UNL     1      43.000  12.450  11.750  0.00  0.00    +0.000 OA
ATOM     26  H   UNL     1      43.086  13.184   9.409  0.00  0.00    +0.000 HD
ATOM     27  H   UNL     1      44.502  12.296   8.973  0.00  0.00    +0.000 HD
ENDBRANCH  17  24
ENDBRANCH  16  20
ENDBRANCH  15  16
ENDBRANCH   1  15
TORSDOF 5
ENDMDL
