MODEL 1
REMARK VINA RESULT:    -7.161      0.000      0.000
REMARK INTER + INTRA:         -10.179
REMARK INTER:                  -9.463
REMARK INTRA:                  -0.716
REMARK UNBOUND:                -0.716
REMARK  Name = 
REMARK  6 active torsions:
REMARK  status: ('A' for Active; 'I' for Inactive)
REMARK    1  A    between atoms: N_1  and  C_2
REMARK    2  A    between atoms: C_2  and  C_3
REMARK    3  A    between atoms: C_7  and  O_8
REMARK    4  A    between atoms: O_8  and  C_9
REMARK    5  A    between atoms: C_9  and  C_10
REMARK    6  A    between atoms: C_10  and  C_11
REMARK                            x       y       z     vdW  Elec       q    Type
REMARK                         _______ _______ _______ _____ _____    ______ ____
ROOT
ATOM      1  C   UNL     1      46.558   5.380  13.650  0.00  0.00    +0.000 A 
ATOM      2  C   UNL     1      47.307   6.338  12.972  0.00  0.00    +0.000 A 
ATOM      3  C   UNL     1      46.727   6.999  11.891  0.00  0.00    +0.000 A 
ATOM      4  C   UNL     1      45.422   6.684  11.514  0.00  0.00    +0.000 A 
ATOM      5  C   UNL     1      44.746   5.721  12.247  0.00  0.00    +0.000 A 
ATOM      6  N   UNL     1      45.289   5.075  13.298  0.00  0.00    +0.000 NA
ENDROOT
BRANCH   1   7
ATOM      7  C   UNL     1      47.131   4.616  14.821  0.00  0.00    +0.000 C 
BRANCH   7   8
ATOM      8  N   UNL     1      47.368   3.201  14.525  0.00  0.00    +0.000 NA
ATOM      9  H   UNL     1      48.366   3.020  14.614  0.00  0.00    +0.000 HD
ATOM     10  H   UNL     1      47.147   3.048  13.540  0.00  0.00    +0.000 HD
ENDBRANCH   7   8
ENDBRANCH   1   7
BRANCH   5  11
ATOM     11  O   UNL     1      43.454   5.411  11.863  0.00  0.00    +0.000 OA
BRANCH  11  12
ATOM     12  C   UNL     1      43.415   4.894  10.523  0.00  0.00    +0.000 C 
BRANCH  12  13
ATOM     13  C   UNL     1      43.918   3.451  10.505  0.00  0.00    +0.000 C 
BRANCH  13  14
ATOM     14  C   UNL     1      44.907   3.221   9.385  0.00  0.00    +0.000 A 
ATOM     15  C   UNL     1      45.389   4.301   8.632  0.00  0.00    +0.000 A 
ATOM     16  C   UNL     1      46.283   4.092   7.578  0.00  0.00    +0.000 A 
ATOM     17  C   UNL     1      46.701   2.800   7.262  0.00  0.00    +0.000 A 
ATOM     18  C   UNL     1      46.219   1.721   7.999  0.00  0.00    +0.000 A 
ATOM     19 CL   UNL     1      46.730   0.125   7.605  0.00  0.00    +0.000 Cl
ATOM     20  C   UNL     1      45.325   1.923   9.053  0.00  0.00    +0.000 A 
ENDBRANCH  13  14
ENDBRANCH  12  13
ENDBRANCH  11  12
ENDBRANCH   5  11
TORSDOF 6
ENDMDL
MODEL 2
REMARK VINA RESULT:    -6.959      3.488      5.840
REMARK INTER + INTRA:          -9.912
REMARK INTER:                  -9.242
REMARK INTRA:                  -0.671
REMARK UNBOUND:                -0.716
REMARK  Name = 
REMARK  6 active torsions:
REMARK  status: ('A' for Active; 'I' for Inactive)
REMARK    1  A    between atoms: N_1  and  C_2
REMARK    2  A    between atoms: C_2  and  C_3
REMARK    3  A    between atoms: C_7  and  O_8
REMARK    4  A    between atoms: O_8  and  C_9
REMARK    5  A    between atoms: C_9  and  C_10
REMARK    6  A    between atoms: C_10  and  C_11
REMARK                            x       y       z     vdW  Elec       q    Type
REMARK                         _______ _______ _______ _____ _____    ______ ____
ROOT
ATOM      1  C   UNL     1      46.113   2.134   8.100  0.00  0.00    +0.000 A 
ATOM      2  C   UNL     1      46.290   3.433   7.632  0.00  0.00    +0.000 A 
ATOM      3  C   UNL     1      45.542   4.459   8.204  0.00  0.00    +0.000 A 
ATOM      4  C   UNL     1      44.637   4.162   9.223  0.00  0.00    +0.000 A 
ATOM      5  C   UNL     1      44.526   2.844   9.633  0.00  0.00    +0.000 A 
ATOM      6  N   UNL     1      45.244   1.838   9.094  0.00  0.00    +0.000 NA
ENDROOT
BRANCH   1   7
ATOM      7  C   UNL     1      46.881   0.973   7.514  0.00  0.00    +0.000 C 
BRANCH   7   8
ATOM      8  N   UNL     1      48.002   1.392   6.668  0.00  0.00    +0.000 NA
ATOM      9  H   UNL     1      47.731   1.264   5.695  0.00  0.00    +0.000 HD
ATOM     10  H   UNL     1      48.772   0.742   6.828  0.00  0.00    +0.000 HD
ENDBRANCH   7   8
ENDBRANCH   1   7
BRANCH   5  11
ATOM     11  O   UNL     1      43.622   2.557  10.640  0.00  0.00    +0.000 OA
BRANCH  11  12
ATOM     12  C   UNL     1      43.221   3.746  11.338  0.00  0.00    +0.000 C 
BRANCH  12  13
ATOM     13  C   UNL     1      43.786   3.735  12.757  0.00  0.00    +0.000 C 
BRANCH  13  14
ATOM     14  C   UNL     1      44.915   4.728  12.914  0.00  0.00    +0.000 A 
ATOM     15  C   UNL     1      46.194   4.293  13.293  0.00  0.00    +0.000 A 
ATOM     16  C   UNL     1      47.236   5.210  13.466  0.00  0.00    +0.000 A 
ATOM     17  C   UNL     1      47.010   6.570  13.266  0.00  0.00    +0.000 A 
ATOM     18  C   UNL     1      45.740   7.010  12.899  0.00  0.00    +0.000 A 
ATOM     19 CL   UNL     1      45.459   8.692  12.659  0.00  0.00    +0.000 Cl
ATOM     20  C   UNL     1      44.695   6.100  12.725  0.00  0.00    +0.000 A 
ENDBRANCH  13  14
ENDBRANCH  12  13
ENDBRANCH  11  12
ENDBRANCH   5  11
TORSDOF 6
ENDMDL
MODEL 3
REMARK VINA RESULT:    -6.609      3.443      6.084
REMARK INTER + INTRA:          -9.450
REMARK INTER:                  -8.919
REMARK INTRA:                  -0.531
REMARK UNBOUND:                -0.716
REMARK  Name = 
REMARK  6 active torsions:
REMARK  status: ('A' for Active; 'I' for Inactive)
REMARK    1  A    between atoms: N_1  and  C_2
REMARK    2  A    between atoms: C_2  and  C_3
REMARK    3  A    between atoms: C_7  and  O_8
REMARK    4  A    between atoms: O_8  and  C_9
REMARK    5  A    between atoms: C_9  and  C_10
REMARK    6  A    between atoms: C_10  and  C_11
REMARK                            x       y       z     vdW  Elec       q    Type
REMARK                         _______ _______ _______ _____ _____    ______ ____
ROOT
ATOM      1  C   UNL     1      46.540   2.696   6.836  0.00  0.00    +0.000 A 
ATOM      2  C   UNL     1      46.542   1.453   7.463  0.00  0.00    +0.000 A 
ATOM      3  C   UNL     1      45.799   1.291   8.629  0.00  0.00    +0.000 A 
ATOM      4  C   UNL     1      45.079   2.370   9.140  0.00  0.00    +0.000 A 
ATOM      5  C   UNL     1      45.128   3.571   8.451  0.00  0.00    +0.000 A 
ATOM      6  N   UNL     1      45.838   3.746   7.318  0.00  0.00    +0.000 NA
ENDROOT
BRANCH   1   7
ATOM      7  C   UNL     1      47.336   2.944   5.576  0.00  0.00    +0.000 C 
BRANCH   7   8
ATOM      8  N   UNL     1      48.444   2.002   5.400  0.00  0.00    +0.000 NA
ATOM      9  H   UNL     1      48.790   1.742   6.322  0.00  0.00    +0.000 HD
ATOM     10  H   UNL     1      49.211   2.503   4.949  0.00  0.00    +0.000 HD
ENDBRANCH   7   8
ENDBRANCH   1   7
BRANCH   5  11
ATOM     11  O   UNL     1      44.416   4.639   8.968  0.00  0.00    +0.000 OA
BRANCH  11  12
ATOM     12  C   UNL     1      43.824   4.310  10.234  0.00  0.00    +0.000 C 
BRANCH  12  13
ATOM     13  C   UNL     1      43.795   5.544  11.134  0.00  0.00    +0.000 C 
BRANCH  13  14
ATOM     14  C   UNL     1      45.111   5.740  11.852  0.00  0.00    +0.000 A 
ATOM     15  C   UNL     1      46.079   6.611  11.331  0.00  0.00    +0.000 A 
ATOM     16  C   UNL     1      47.308   6.776  11.977  0.00  0.00    +0.000 A 
ATOM     17  C   UNL     1      47.585   6.070  13.145  0.00  0.00    +0.000 A 
ATOM     18  C   UNL     1      46.632   5.196  13.663  0.00  0.00    +0.000 A 
ATOM     19 CL   UNL     1      46.975   4.317  15.103  0.00  0.00    +0.000 Cl
ATOM     20  C   UNL     1      45.402   5.025  13.023  0.00  0.00    +0.000 A 
ENDBRANCH  13  14
ENDBRANCH  12  13
ENDBRANCH  11  12
ENDBRANCH   5  11
TORSDOF 6
ENDMDL
MODEL 4
REMARK VINA RESULT:    -6.576      1.395      2.338
REMARK INTER + INTRA:          -9.407
REMARK INTER:                  -8.703
REMARK INTRA:                  -0.703
REMARK UNBOUND:                -0.716
REMARK  Name = 
REMARK  6 active torsions:
REMARK  status: ('A' for Active; 'I' for Inactive)
REMARK    1  A    between atoms: N_1  and  C_2
REMARK    2  A    between atoms: C_2  and  C_3
REMARK    3  A    between atoms: C_7  and  O_8
REMARK    4  A    between atoms: O_8  and  C_9
REMARK    5  A    between atoms: C_9  and  C_10
REMARK    6  A    between atoms: C_10  and  C_11
REMARK                            x       y       z     vdW  Elec       q    Type
REMARK                         _______ _______ _______ _____ _____    ______ ____
ROOT
ATOM      1  C   UNL     1      45.946   6.920  12.612  0.00  0.00    +0.000 A 
ATOM      2  C   UNL     1      47.090   6.374  13.188  0.00  0.00    +0.000 A 
ATOM      3  C   UNL     1      47.047   5.058  13.642  0.00  0.00    +0.000 A 
ATOM      4  C   UNL     1      45.867   4.326  13.514  0.00  0.00    +0.000 A 
ATOM      5  C   UNL     1      44.776   4.945  12.925  0.00  0.00    +0.000 A 
ATOM      6  N   UNL     1      44.800   6.215  12.476  0.00  0.00    +0.000 NA
ENDROOT
BRANCH   1   7
ATOM      7  C   UNL     1      45.919   8.346  12.113  0.00  0.00    +0.000 C 
BRANCH   7   8
ATOM      8  N   UNL     1      45.090   9.229  12.937  0.00  0.00    +0.000 NA
ATOM      9  H   UNL     1      45.539   9.330  13.845  0.00  0.00    +0.000 HD
ATOM     10  H   UNL     1      44.208   8.749  13.118  0.00  0.00    +0.000 HD
ENDBRANCH   7   8
ENDBRANCH   1   7
BRANCH   5  11
ATOM     11  O   UNL     1      43.608   4.213  12.808  0.00  0.00    +0.000 OA
BRANCH  11  12
ATOM     12  C   UNL     1      43.207   4.083  11.435  0.00  0.00    +0.000 C 
BRANCH  12  13
ATOM     13  C   UNL     1      43.743   2.776  10.855  0.00  0.00    +0.000 C 
BRANCH  13  14
ATOM     14  C   UNL     1      44.702   3.025   9.714  0.00  0.00    +0.000 A 
ATOM     15  C   UNL     1      44.938   4.331   9.259  0.00  0.00    +0.000 A 
ATOM     16  C   UNL     1      45.803   4.566   8.186  0.00  0.00    +0.000 A 
ATOM     17  C   UNL     1      46.437   3.498   7.553  0.00  0.00    +0.000 A 
ATOM     18  C   UNL     1      46.199   2.198   7.992  0.00  0.00    +0.000 A 
ATOM     19 CL   UNL     1      46.977   0.879   7.205  0.00  0.00    +0.000 Cl
ATOM     20  C   UNL     1      45.335   1.956   9.063  0.00  0.00    +0.000 A 
ENDBRANCH  13  14
ENDBRANCH  12  13
ENDBRANCH  11  12
ENDBRANCH   5  11
TORSDOF 6
ENDMDL
MODEL 5
REMARK VINA RESULT:    -6.201      1.689      2.280
REMARK INTER + INTRA:          -8.911
REMARK INTER:                  -8.536
REMARK INTRA:                  -0.374
REMARK UNBOUND:                -0.716
REMARK  Name = 
REMARK  6 active torsions:
REMARK  status: ('A' for Active; 'I' for Inactive)
REMARK    1  A    between atoms: N_1  and  C_2
REMARK    2  A    between atoms: C_2  and  C_3
REMARK    3  A    between atoms: C_7  and  O_8
REMARK    4  A    between atoms: O_8  and  C_9
REMARK    5  A    between atoms: C_9  and  C_10
REMARK    6  A    between atoms: C_10  and  C_11
REMARK                            x       y       z     vdW  Elec       q    Type
REMARK                         _______ _______ _______ _____ _____    ______ ____
ROOT
ATOM      1  C   UNL     1      47.567   6.582  12.959  0.00  0.00    +0.000 A 
ATOM      2  C   UNL     1      47.485   5.749  14.072  0.00  0.00    +0.000 A 
ATOM      3  C   UNL     1      46.476   4.790  14.118  0.00  0.00    +0.000 A 
ATOM      4  C   UNL     1      45.576   4.690  13.058  0.00  0.00    +0.000 A 
ATOM      5  C   UNL     1      45.732   5.555  11.986  0.00  0.00    +0.000 A 
ATOM      6  N   UNL     1      46.704   6.486  11.922  0.00  0.00    +0.000 NA
ENDROOT
BRANCH   1   7
ATOM      7  C   UNL     1      48.628   7.653  12.852  0.00  0.00    +0.000 C 
BRANCH   7   8
ATOM      8  N   UNL     1      49.988   7.133  13.011  0.00  0.00    +0.000 NA
ATOM      9  H   UNL     1      50.642   7.879  12.779  0.00  0.00    +0.000 HD
ATOM     10  H   UNL     1      50.131   6.411  12.304  0.00  0.00    +0.000 HD
ENDBRANCH   7   8
ENDBRANCH   1   7
BRANCH   5  11
ATOM     11  O   UNL     1      44.831   5.452  10.942  0.00  0.00    +0.000 OA
BRANCH  11  12
ATOM     12  C   UNL     1      45.497   5.171   9.701  0.00  0.00    +0.000 C 
BRANCH  12  13
ATOM     13  C   UNL     1      44.809   4.005   8.992  0.00  0.00    +0.000 C 
BRANCH  13  14
ATOM     14  C   UNL     1      45.794   3.181   8.193  0.00  0.00    +0.000 A 
ATOM     15  C   UNL     1      46.637   3.797   7.256  0.00  0.00    +0.000 A 
ATOM     16  C   UNL     1      47.531   3.037   6.496  0.00  0.00    +0.000 A 
ATOM     17  C   UNL     1      47.587   1.654   6.659  0.00  0.00    +0.000 A 
ATOM     18  C   UNL     1      46.746   1.035   7.579  0.00  0.00    +0.000 A 
ATOM     19 CL   UNL     1      46.810  -0.675   7.776  0.00  0.00    +0.000 Cl
ATOM     20  C   UNL     1      45.850   1.788   8.342  0.00  0.00    +0.000 A 
ENDBRANCH  13  14
ENDBRANCH  12  13
ENDBRANCH  11  12
ENDBRANCH   5  11
TORSDOF 6
ENDMDL
MODEL 6
REMARK VINA RESULT:    -6.191      1.598      1.831
REMARK INTER + INTRA:          -8.898
REMARK INTER:                  -8.413
REMARK INTRA:                  -0.485
REMARK UNBOUND:                -0.716
REMARK  Name = 
REMARK  6 active torsions:
REMARK  status: ('A' for Active; 'I' for Inactive)
REMARK    1  A    between atoms: N_1  and  C_2
REMARK    2  A    between atoms: C_2  and  C_3
REMARK    3  A    between atoms: C_7  and  O_8
REMARK    4  A    between atoms: O_8  and  C_9
REMARK    5  A    between atoms: C_9  and  C_10
REMARK    6  A    between atoms: C_10  and  C_11
REMARK                            x       y       z     vdW  Elec       q    Type
REMARK                         _______ _______ _______ _____ _____    ______ ____
ROOT
ATOM      1  C   UNL     1      47.159   7.747  13.011  0.00  0.00    +0.000 A 
ATOM      2  C   UNL     1      46.423   8.858  12.610  0.00  0.00    +0.000 A 
ATOM      3  C   UNL     1      45.240   8.658  11.902  0.00  0.00    +0.000 A 
ATOM      4  C   UNL     1      44.827   7.358  11.611  0.00  0.00    +0.000 A 
ATOM      5  C   UNL     1      45.616   6.309  12.052  0.00  0.00    +0.000 A 
ATOM      6  N   UNL     1      46.761   6.483  12.741  0.00  0.00    +0.000 NA
ENDROOT
BRANCH   1   7
ATOM      7  C   UNL     1      48.459   7.894  13.768  0.00  0.00    +0.000 C 
BRANCH   7   8
ATOM      8  N   UNL     1      49.329   6.721  13.649  0.00  0.00    +0.000 NA
ATOM      9  H   UNL     1      50.205   6.926  14.126  0.00  0.00    +0.000 HD
ATOM     10  H   UNL     1      49.571   6.612  12.664  0.00  0.00    +0.000 HD
ENDBRANCH   7   8
ENDBRANCH   1   7
BRANCH   5  11
ATOM     11  O   UNL     1      45.202   5.023  11.754  0.00  0.00    +0.000 OA
BRANCH  11  12
ATOM     12  C   UNL     1      44.230   5.017  10.696  0.00  0.00    +0.000 C 
BRANCH  12  13
ATOM     13  C   UNL     1      44.028   3.594  10.180  0.00  0.00    +0.000 C 
BRANCH  13  14
ATOM     14  C   UNL     1      45.051   3.234   9.127  0.00  0.00    +0.000 A 
ATOM     15  C   UNL     1      45.619   4.231   8.320  0.00  0.00    +0.000 A 
ATOM     16  C   UNL     1      46.546   3.901   7.327  0.00  0.00    +0.000 A 
ATOM     17  C   UNL     1      46.911   2.571   7.126  0.00  0.00    +0.000 A 
ATOM     18  C   UNL     1      46.343   1.574   7.916  0.00  0.00    +0.000 A 
ATOM     19 CL   UNL     1      46.789  -0.069   7.663  0.00  0.00    +0.000 Cl
ATOM     20  C   UNL     1      45.416   1.897   8.910  0.00  0.00    +0.000 A 
ENDBRANCH  13  14
ENDBRANCH  12  13
ENDBRANCH  11  12
ENDBRANCH   5  11
TORSDOF 6
ENDMDL
MODEL 7
REMARK VINA RESULT:    -5.798      4.264      7.416
REMARK INTER + INTRA:          -8.379
REMARK INTER:                  -8.041
REMARK INTRA:                  -0.337
REMARK UNBOUND:                -0.716
REMARK  Name = 
REMARK  6 active torsions:
REMARK  status: ('A' for Active; 'I' for Inactive)
REMARK    1  A    between atoms: N_1  and  C_2
REMARK    2  A    between atoms: C_2  and  C_3
REMARK    3  A    between atoms: C_7  and  O_8
REMARK    4  A    between atoms: O_8  and  C_9
REMARK    5  A    between atoms: C_9  and  C_10
REMARK    6  A    between atoms: C_10  and  C_11
REMARK                            x       y       z     vdW  Elec       q    Type
REMARK                         _______ _______ _______ _____ _____    ______ ____
ROOT
ATOM      1  C   UNL     1      44.633   4.417  12.272  0.00  0.00    +0.000 A 
ATOM      2  C   UNL     1      45.076   5.663  11.838  0.00  0.00    +0.000 A 
ATOM      3  C   UNL     1      46.297   6.141  12.307  0.00  0.00    +0.000 A 
ATOM      4  C   UNL     1      47.041   5.366  13.196  0.00  0.00    +0.000 A 
ATOM      5  C   UNL     1      46.530   4.135  13.574  0.00  0.00    +0.000 A 
ATOM      6  N   UNL     1      45.352   3.654  13.127  0.00  0.00    +0.000 NA
ENDROOT
BRANCH   1   7
ATOM      7  C   UNL     1      43.311   3.846  11.815  0.00  0.00    +0.000 C 
BRANCH   7   8
ATOM      8  N   UNL     1      43.287   2.381  11.811  0.00  0.00    +0.000 NA
ATOM      9  H   UNL     1      43.614   2.055  12.719  0.00  0.00    +0.000 HD
ATOM     10  H   UNL     1      43.983   2.061  11.137  0.00  0.00    +0.000 HD
ENDBRANCH   7   8
ENDBRANCH   1   7
BRANCH   5  11
ATOM     11  O   UNL     1      47.271   3.375  14.461  0.00  0.00    +0.000 OA
BRANCH  11  12
ATOM     12  C   UNL     1      47.390   4.026  15.736  0.00  0.00    +0.000 C 
BRANCH  12  13
ATOM     13  C   UNL     1      47.802   3.013  16.803  0.00  0.00    +0.000 C 
BRANCH  13  14
ATOM     14  C   UNL     1      49.258   3.164  17.181  0.00  0.00    +0.000 A 
ATOM     15  C   UNL     1      49.785   4.429  17.480  0.00  0.00    +0.000 A 
ATOM     16  C   UNL     1      51.136   4.579  17.805  0.00  0.00    +0.000 A 
ATOM     17  C   UNL     1      51.977   3.468  17.828  0.00  0.00    +0.000 A 
ATOM     18  C   UNL     1      51.463   2.210  17.521  0.00  0.00    +0.000 A 
ATOM     19 CL   UNL     1      52.503   0.838  17.543  0.00  0.00    +0.000 Cl
ATOM     20  C   UNL     1      50.114   2.053  17.196  0.00  0.00    +0.000 A 
ENDBRANCH  13  14
ENDBRANCH  12  13
ENDBRANCH  11  12
ENDBRANCH   5  11
TORSDOF 6
ENDMDL
MODEL 8
REMARK VINA RESULT:    -5.388      4.694      8.278
REMARK INTER + INTRA:          -7.837
REMARK INTER:                  -7.481
REMARK INTRA:                  -0.356
REMARK UNBOUND:                -0.716
REMARK  Name = 
REMARK  6 active torsions:
REMARK  status: ('A' for Active; 'I' for Inactive)
REMARK    1  A    between atoms: N_1  and  C_2
REMARK    2  A    between atoms: C_2  and  C_3
REMARK    3  A    between atoms: C_7  and  O_8
REMARK    4  A    between atoms: O_8  and  C_9
REMARK    5  A    between atoms: C_9  and  C_10
REMARK    6  A    between atoms: C_10  and  C_11
REMARK                            x       y       z     vdW  Elec       q    Type
REMARK                         _______ _______ _______ _____ _____    ______ ____
ROOT
ATOM      1  C   UNL     1      45.032   3.954  11.808  0.00  0.00    +0.000 A 
ATOM      2  C   UNL     1      45.350   5.260  11.446  0.00  0.00    +0.000 A 
ATOM      3  C   UNL     1      46.327   5.937  12.172  0.00  0.00    +0.000 A 
ATOM      4  C   UNL     1      46.957   5.296  13.238  0.00  0.00    +0.000 A 
ATOM      5  C   UNL     1      46.584   3.993  13.528  0.00  0.00    +0.000 A 
ATOM      6  N   UNL     1      45.644   3.321  12.834  0.00  0.00    +0.000 NA
ENDROOT
BRANCH   1   7
ATOM      7  C   UNL     1      43.972   3.168  11.072  0.00  0.00    +0.000 C 
BRANCH   7   8
ATOM      8  N   UNL     1      43.319   2.159  11.911  0.00  0.00    +0.000 NA
ATOM      9  H   UNL     1      43.597   1.238  11.575  0.00  0.00    +0.000 HD
ATOM     10  H   UNL     1      42.313   2.221  11.745  0.00  0.00    +0.000 HD
ENDBRANCH   7   8
ENDBRANCH   1   7
BRANCH   5  11
ATOM     11  O   UNL     1      47.210   3.367  14.591  0.00  0.00    +0.000 OA
BRANCH  11  12
ATOM     12  C   UNL     1      47.349   4.253  15.713  0.00  0.00    +0.000 C 
BRANCH  12  13
ATOM     13  C   UNL     1      48.221   3.604  16.786  0.00  0.00    +0.000 C 
BRANCH  13  14
ATOM     14  C   UNL     1      48.262   4.436  18.048  0.00  0.00    +0.000 A 
ATOM     15  C   UNL     1      48.709   3.874  19.253  0.00  0.00    +0.000 A 
ATOM     16  C   UNL     1      48.725   4.630  20.428  0.00  0.00    +0.000 A 
ATOM     17  C   UNL     1      48.288   5.954  20.414  0.00  0.00    +0.000 A 
ATOM     18  C   UNL     1      47.833   6.515  19.223  0.00  0.00    +0.000 A 
ATOM     19 CL   UNL     1      47.287   8.148  19.207  0.00  0.00    +0.000 Cl
ATOM     20  C   UNL     1      47.814   5.765  18.045  0.00  0.00    +0.000 A 
ENDBRANCH  13  14
ENDBRANCH  12  13
ENDBRANCH  11  12
ENDBRANCH   5  11
TORSDOF 6
ENDMDL
MODEL 9
REMARK VINA RESULT:    -5.338      2.536      4.267
REMARK INTER + INTRA:          -7.771
REMARK INTER:                  -7.354
REMARK INTRA:                  -0.416
REMARK UNBOUND:                -0.716
REMARK  Name = 
REMARK  6 active torsions:
REMARK  status: ('A' for Active; 'I' for Inactive)
REMARK    1  A    between atoms: N_1  and  C_2
REMARK    2  A    between atoms: C_2  and  C_3
REMARK    3  A    between atoms: C_7  and  O_8
REMARK    4  A    between atoms: O_8  and  C_9
REMARK    5  A    between atoms: C_9  and  C_10
REMARK    6  A    between atoms: C_10  and  C_11
REMARK                            x       y       z     vdW  Elec       q    Type
REMARK                         _______ _______ _______ _____ _____    ______ ____
ROOT
ATOM      1  C   UNL     1      48.157   4.867  16.845  0.00  0.00    +0.000 A 
ATOM      2  C   UNL     1      48.850   5.985  17.300  0.00  0.00    +0.000 A 
ATOM      3  C   UNL     1      49.087   7.033  16.413  0.00  0.00    +0.000 A 
ATOM      4  C   UNL     1      48.629   6.936  15.099  0.00  0.00    +0.000 A 
ATOM      5  C   UNL     1      47.943   5.790  14.731  0.00  0.00    +0.000 A 
ATOM      6  N   UNL     1      47.701   4.768  15.576  0.00  0.00    +0.000 NA
ENDROOT
BRANCH   1   7
ATOM      7  C   UNL     1      47.880   3.689  17.750  0.00  0.00    +0.000 C 
BRANCH   7   8
ATOM      8  N   UNL     1      46.566   3.082  17.518  0.00  0.00    +0.000 NA
ATOM      9  H   UNL     1      46.227   2.712  18.404  0.00  0.00    +0.000 HD
ATOM     10  H   UNL     1      46.701   2.271  16.914  0.00  0.00    +0.000 HD
ENDBRANCH   7   8
ENDBRANCH   1   7
BRANCH   5  11
ATOM     11  O   UNL     1      47.498   5.700  13.424  0.00  0.00    +0.000 OA
BRANCH  11  12
ATOM     12  C   UNL     1      46.839   6.907  13.010  0.00  0.00    +0.000 C 
BRANCH  12  13
ATOM     13  C   UNL     1      46.134   6.685  11.673  0.00  0.00    +0.000 C 
BRANCH  13  14
ATOM     14  C   UNL     1      45.165   5.526  11.740  0.00  0.00    +0.000 A 
ATOM     15  C   UNL     1      44.287   5.399  12.826  0.00  0.00    +0.000 A 
ATOM     16  C   UNL     1      43.407   4.315  12.908  0.00  0.00    +0.000 A 
ATOM     17  C   UNL     1      43.400   3.344  11.908  0.00  0.00    +0.000 A 
ATOM     18  C   UNL     1      44.277   3.458  10.832  0.00  0.00    +0.000 A 
ATOM     19 CL   UNL     1      44.273   2.255   9.600  0.00  0.00    +0.000 Cl
ATOM     20  C   UNL     1      45.159   4.538  10.744  0.00  0.00    +0.000 A 
ENDBRANCH  13  14
ENDBRANCH  12  13
ENDBRANCH  11  12
ENDBRANCH   5  11
TORSDOF 6
ENDMDL
