MODEL 1
REMARK VINA RESULT:    -8.567      0.000      0.000
REMARK INTER + INTRA:         -11.942
REMARK INTER:                 -11.071
REMARK INTRA:                  -0.871
REMARK UNBOUND:                -0.871
REMARK  Name = 
REMARK  6 active torsions:
REMARK  status: ('A' for Active; 'I' for Inactive)
REMARK    1  A    between atoms: C_1  and  C_2
REMARK    2  A    between atoms: C_2  and  N_3
REMARK    3  A    between atoms: C_2  and  C_16
REMARK    4  A    between atoms: C_4  and  C_6
REMARK    5  A    between atoms: C_19  and  O_20
REMARK    6  A    between atoms: O_20  and  C_21
REMARK                            x       y       z     vdW  Elec       q    Type
REMARK                         _______ _______ _______ _____ _____    ______ ____
ROOT
ATOM      1  C   UNL     1      45.428   8.897  12.893  0.00  0.00    +0.000 C 
ATOM      2  C   UNL     1      46.480   7.801  12.684  0.00  0.00    +0.000 C 
ENDROOT
BRANCH   2   3
ATOM      3  C   UNL     1      45.925   6.676  11.821  0.00  0.00    +0.000 A 
ATOM      4  C   UNL     1      44.913   5.845  12.323  0.00  0.00    +0.000 A 
ATOM      5  C   UNL     1      44.403   4.793  11.554  0.00  0.00    +0.000 A 
ATOM      6  C   UNL     1      44.847   4.594  10.246  0.00  0.00    +0.000 A 
ATOM      7  C   UNL     1      45.867   5.402   9.743  0.00  0.00    +0.000 A 
ATOM      8  C   UNL     1      46.403   6.435  10.522  0.00  0.00    +0.000 A 
BRANCH   6   9
ATOM      9  O   UNL     1      44.401   3.595   9.409  0.00  0.00    +0.000 OA
BRANCH   9  10
ATOM     10  C   UNL     1      45.246   3.016   8.490  0.00  0.00    +0.000 A 
ATOM     11  C   UNL     1      45.747   3.655   7.354  0.00  0.00    +0.000 A 
ATOM     12  C   UNL     1      46.576   2.965   6.466  0.00  0.00    +0.000 A 
ATOM     13  C   UNL     1      46.962   1.656   6.745  0.00  0.00    +0.000 A 
ATOM     14  C   UNL     1      46.522   1.036   7.914  0.00  0.00    +0.000 A 
ATOM     15  C   UNL     1      45.665   1.715   8.783  0.00  0.00    +0.000 A 
ENDBRANCH   9  10
ENDBRANCH   6   9
ENDBRANCH   2   3
BRANCH   2  16
ATOM     16  N   UNL     1      46.979   7.266  13.942  0.00  0.00    +0.000 N 
ATOM     17  C   UNL     1      48.284   6.864  14.094  0.00  0.00    +0.000 C 
ATOM     18  O   UNL     1      49.122   6.982  13.206  0.00  0.00    +0.000 OA
ATOM     19  H   UNL     1      46.284   6.871  14.570  0.00  0.00    +0.000 HD
BRANCH  17  20
ATOM     20  C   UNL     1      48.658   6.333  15.406  0.00  0.00    +0.000 A 
ATOM     21  C   UNL     1      49.654   6.960  16.142  0.00  0.00    +0.000 A 
ATOM     22  S   UNL     1      49.990   6.196  17.628  0.00  0.00    +0.000 S 
ATOM     23  C   UNL     1      48.840   4.978  17.320  0.00  0.00    +0.000 A 
ATOM     24  N   UNL     1      48.656   3.948  18.190  0.00  0.00    +0.000 NA
ATOM     25  C   UNL     1      47.785   3.079  17.812  0.00  0.00    +0.000 A 
ATOM     26  N   UNL     1      47.056   3.156  16.651  0.00  0.00    +0.000 N 
ATOM     27  C   UNL     1      47.171   4.200  15.765  0.00  0.00    +0.000 A 
ATOM     28  O   UNL     1      46.452   4.286  14.774  0.00  0.00    +0.000 OA
ATOM     29  C   UNL     1      48.178   5.180  16.122  0.00  0.00    +0.000 A 
ATOM     30  H   UNL     1      46.364   2.457  16.430  0.00  0.00    +0.000 HD
ENDBRANCH  17  20
ENDBRANCH   2  16
TORSDOF 5
ENDMDL
MODEL 2
REMARK VINA RESULT:    -8.186      1.564      2.138
REMARK INTER + INTRA:         -11.449
REMARK INTER:                 -10.538
REMARK INTRA:                  -0.911
REMARK UNBOUND:                -0.871
REMARK  Name = 
REMARK  6 active torsions:
REMARK  status: ('A' for Active; 'I' for Inactive)
REMARK    1  A    between atoms: C_1  and  C_2
REMARK    2  A    between atoms: C_2  and  N_3
REMARK    3  A    between atoms: C_2  and  C_16
REMARK    4  A    between atoms: C_4  and  C_6
REMARK    5  A    between atoms: C_19  and  O_20
REMARK    6  A    between atoms: O_20  and  C_21
REMARK                            x       y       z     vdW  Elec       q    Type
REMARK                         _______ _______ _______ _____ _____    ______ ____
ROOT
ATOM      1  C   UNL     1      45.872   8.241  13.084  0.00  0.00    +0.000 C 
ATOM      2  C   UNL     1      46.722   6.970  12.962  0.00  0.00    +0.000 C 
ENDROOT
BRANCH   2   3
ATOM      3  C   UNL     1      46.166   6.048  11.886  0.00  0.00    +0.000 A 
ATOM      4  C   UNL     1      45.522   4.857  12.250  0.00  0.00    +0.000 A 
ATOM      5  C   UNL     1      45.021   3.986  11.277  0.00  0.00    +0.000 A 
ATOM      6  C   UNL     1      45.095   4.321   9.924  0.00  0.00    +0.000 A 
ATOM      7  C   UNL     1      45.751   5.494   9.548  0.00  0.00    +0.000 A 
ATOM      8  C   UNL     1      46.282   6.351  10.519  0.00  0.00    +0.000 A 
BRANCH   6   9
ATOM      9  O   UNL     1      44.625   3.536   8.894  0.00  0.00    +0.000 OA
BRANCH   9  10
ATOM     10  C   UNL     1      45.495   2.875   8.058  0.00  0.00    +0.000 A 
ATOM     11  C   UNL     1      46.053   3.416   6.897  0.00  0.00    +0.000 A 
ATOM     12  C   UNL     1      46.903   2.646   6.100  0.00  0.00    +0.000 A 
ATOM     13  C   UNL     1      47.255   1.358   6.494  0.00  0.00    +0.000 A 
ATOM     14  C   UNL     1      46.758   0.837   7.689  0.00  0.00    +0.000 A 
ATOM     15  C   UNL     1      45.879   1.594   8.467  0.00  0.00    +0.000 A 
ENDBRANCH   9  10
ENDBRANCH   6   9
ENDBRANCH   2   3
BRANCH   2  16
ATOM     16  N   UNL     1      46.832   6.255  14.224  0.00  0.00    +0.000 N 
ATOM     17  C   UNL     1      48.049   5.963  14.791  0.00  0.00    +0.000 C 
ATOM     18  O   UNL     1      49.113   6.333  14.304  0.00  0.00    +0.000 OA
ATOM     19  H   UNL     1      46.036   5.679  14.486  0.00  0.00    +0.000 HD
BRANCH  17  20
ATOM     20  C   UNL     1      48.024   5.229  16.057  0.00  0.00    +0.000 A 
ATOM     21  C   UNL     1      47.517   3.938  16.094  0.00  0.00    +0.000 A 
ATOM     22  S   UNL     1      47.530   3.241  17.649  0.00  0.00    +0.000 S 
ATOM     23  C   UNL     1      48.179   4.659  18.334  0.00  0.00    +0.000 A 
ATOM     24  N   UNL     1      48.393   4.759  19.674  0.00  0.00    +0.000 NA
ATOM     25  C   UNL     1      48.849   5.899  20.059  0.00  0.00    +0.000 A 
ATOM     26  N   UNL     1      49.139   6.949  19.222  0.00  0.00    +0.000 N 
ATOM     27  C   UNL     1      48.986   6.880  17.858  0.00  0.00    +0.000 A 
ATOM     28  O   UNL     1      49.327   7.803  17.124  0.00  0.00    +0.000 OA
ATOM     29  C   UNL     1      48.426   5.631  17.380  0.00  0.00    +0.000 A 
ATOM     30  H   UNL     1      49.526   7.805  19.585  0.00  0.00    +0.000 HD
ENDBRANCH  17  20
ENDBRANCH   2  16
TORSDOF 5
ENDMDL
MODEL 3
REMARK VINA RESULT:    -7.793      2.697      4.054
REMARK INTER + INTRA:         -10.942
REMARK INTER:                  -9.889
REMARK INTRA:                  -1.053
REMARK UNBOUND:                -0.871
REMARK  Name = 
REMARK  6 active torsions:
REMARK  status: ('A' for Active; 'I' for Inactive)
REMARK    1  A    between atoms: C_1  and  C_2
REMARK    2  A    between atoms: C_2  and  N_3
REMARK    3  A    between atoms: C_2  and  C_16
REMARK    4  A    between atoms: C_4  and  C_6
REMARK    5  A    between atoms: C_19  and  O_20
REMARK    6  A    between atoms: O_20  and  C_21
REMARK                            x       y       z     vdW  Elec       q    Type
REMARK                         _______ _______ _______ _____ _____    ______ ____
ROOT
ATOM      1  C   UNL     1      46.492   4.773  14.501  0.00  0.00    +0.000 C 
ATOM      2  C   UNL     1      46.150   5.803  13.416  0.00  0.00    +0.000 C 
ENDROOT
BRANCH   2   3
ATOM      3  C   UNL     1      45.752   5.111  12.120  0.00  0.00    +0.000 A 
ATOM      4  C   UNL     1      45.236   3.808  12.154  0.00  0.00    +0.000 A 
ATOM      5  C   UNL     1      44.882   3.146  10.973  0.00  0.00    +0.000 A 
ATOM      6  C   UNL     1      44.973   3.800   9.743  0.00  0.00    +0.000 A 
ATOM      7  C   UNL     1      45.503   5.090   9.695  0.00  0.00    +0.000 A 
ATOM      8  C   UNL     1      45.890   5.742  10.872  0.00  0.00    +0.000 A 
BRANCH   6   9
ATOM      9  O   UNL     1      44.641   3.239   8.529  0.00  0.00    +0.000 OA
BRANCH   9  10
ATOM     10  C   UNL     1      45.616   2.757   7.685  0.00  0.00    +0.000 A 
ATOM     11  C   UNL     1      46.074   3.411   6.540  0.00  0.00    +0.000 A 
ATOM     12  C   UNL     1      47.049   2.819   5.733  0.00  0.00    +0.000 A 
ATOM     13  C   UNL     1      47.617   1.603   6.103  0.00  0.00    +0.000 A 
ATOM     14  C   UNL     1      47.215   0.978   7.283  0.00  0.00    +0.000 A 
ATOM     15  C   UNL     1      46.215   1.554   8.071  0.00  0.00    +0.000 A 
ENDBRANCH   9  10
ENDBRANCH   6   9
ENDBRANCH   2   3
BRANCH   2  16
ATOM     16  N   UNL     1      47.243   6.732  13.171  0.00  0.00    +0.000 N 
ATOM     17  C   UNL     1      47.049   8.091  13.138  0.00  0.00    +0.000 C 
ATOM     18  O   UNL     1      45.962   8.611  13.369  0.00  0.00    +0.000 OA
ATOM     19  H   UNL     1      48.052   6.356  12.683  0.00  0.00    +0.000 HD
BRANCH  17  20
ATOM     20  C   UNL     1      48.228   8.916  12.871  0.00  0.00    +0.000 A 
ATOM     21  C   UNL     1      48.109  10.047  12.076  0.00  0.00    +0.000 A 
ATOM     22  S   UNL     1      49.581  10.874  11.837  0.00  0.00    +0.000 S 
ATOM     23  C   UNL     1      50.434   9.724  12.759  0.00  0.00    +0.000 A 
ATOM     24  N   UNL     1      51.783   9.807  12.913  0.00  0.00    +0.000 NA
ATOM     25  C   UNL     1      52.303   8.850  13.599  0.00  0.00    +0.000 A 
ATOM     26  N   UNL     1      51.593   7.824  14.173  0.00  0.00    +0.000 N 
ATOM     27  C   UNL     1      50.225   7.722  14.086  0.00  0.00    +0.000 A 
ATOM     28  O   UNL     1      49.606   6.840  14.673  0.00  0.00    +0.000 OA
ATOM     29  C   UNL     1      49.599   8.751  13.279  0.00  0.00    +0.000 A 
ATOM     30  H   UNL     1      52.058   7.123  14.726  0.00  0.00    +0.000 HD
ENDBRANCH  17  20
ENDBRANCH   2  16
TORSDOF 5
ENDMDL
MODEL 4
REMARK VINA RESULT:    -7.602      2.527      4.533
REMARK INTER + INTRA:         -10.696
REMARK INTER:                 -10.587
REMARK INTRA:                  -0.109
REMARK UNBOUND:                -0.871
REMARK  Name = 
REMARK  6 active torsions:
REMARK  status: ('A' for Active; 'I' for Inactive)
REMARK    1  A    between atoms: C_1  and  C_2
REMARK    2  A    between atoms: C_2  and  N_3
REMARK    3  A    between atoms: C_2  and  C_16
REMARK    4  A    between atoms: C_4  and  C_6
REMARK    5  A    between atoms: C_19  and  O_20
REMARK    6  A    between atoms: O_20  and  C_21
REMARK                            x       y       z     vdW  Elec       q    Type
REMARK                         _______ _______ _______ _____ _____    ______ ____
ROOT
ATOM      1  C   UNL     1      46.822   4.554  14.411  0.00  0.00    +0.000 C 
ATOM      2  C   UNL     1      45.899   5.490  13.622  0.00  0.00    +0.000 C 
ENDROOT
BRANCH   2   3
ATOM      3  C   UNL     1      45.573   4.903  12.256  0.00  0.00    +0.000 A 
ATOM      4  C   UNL     1      45.059   3.602  12.158  0.00  0.00    +0.000 A 
ATOM      5  C   UNL     1      44.772   3.036  10.911  0.00  0.00    +0.000 A 
ATOM      6  C   UNL     1      44.929   3.784   9.743  0.00  0.00    +0.000 A 
ATOM      7  C   UNL     1      45.457   5.073   9.826  0.00  0.00    +0.000 A 
ATOM      8  C   UNL     1      45.777   5.630  11.070  0.00  0.00    +0.000 A 
BRANCH   6   9
ATOM      9  O   UNL     1      44.664   3.321   8.473  0.00  0.00    +0.000 OA
BRANCH   9  10
ATOM     10  C   UNL     1      45.676   2.833   7.677  0.00  0.00    +0.000 A 
ATOM     11  C   UNL     1      46.207   3.495   6.567  0.00  0.00    +0.000 A 
ATOM     12  C   UNL     1      47.213   2.896   5.806  0.00  0.00    +0.000 A 
ATOM     13  C   UNL     1      47.740   1.665   6.189  0.00  0.00    +0.000 A 
ATOM     14  C   UNL     1      47.264   1.032   7.337  0.00  0.00    +0.000 A 
ATOM     15  C   UNL     1      46.233   1.615   8.077  0.00  0.00    +0.000 A 
ENDBRANCH   9  10
ENDBRANCH   6   9
ENDBRANCH   2   3
BRANCH   2  16
ATOM     16  N   UNL     1      46.460   6.824  13.472  0.00  0.00    +0.000 N 
ATOM     17  C   UNL     1      47.780   7.025  13.151  0.00  0.00    +0.000 C 
ATOM     18  O   UNL     1      48.553   6.103  12.913  0.00  0.00    +0.000 OA
ATOM     19  H   UNL     1      45.967   7.575  13.947  0.00  0.00    +0.000 HD
BRANCH  17  20
ATOM     20  C   UNL     1      48.224   8.416  13.040  0.00  0.00    +0.000 A 
ATOM     21  C   UNL     1      49.509   8.761  13.436  0.00  0.00    +0.000 A 
ATOM     22  S   UNL     1      49.851  10.423  13.274  0.00  0.00    +0.000 S 
ATOM     23  C   UNL     1      48.279  10.744  12.705  0.00  0.00    +0.000 A 
ATOM     24  N   UNL     1      47.878  12.013  12.423  0.00  0.00    +0.000 NA
ATOM     25  C   UNL     1      46.653  12.114  12.042  0.00  0.00    +0.000 A 
ATOM     26  N   UNL     1      45.791  11.056  11.889  0.00  0.00    +0.000 N 
ATOM     27  C   UNL     1      46.162   9.752  12.116  0.00  0.00    +0.000 A 
ATOM     28  O   UNL     1      45.398   8.817  11.896  0.00  0.00    +0.000 OA
ATOM     29  C   UNL     1      47.520   9.592  12.597  0.00  0.00    +0.000 A 
ATOM     30  H   UNL     1      44.852  11.201  11.554  0.00  0.00    +0.000 HD
ENDBRANCH  17  20
ENDBRANCH   2  16
TORSDOF 5
ENDMDL
MODEL 5
REMARK VINA RESULT:    -7.536      2.363      3.173
REMARK INTER + INTRA:         -10.610
REMARK INTER:                  -9.308
REMARK INTRA:                  -1.302
REMARK UNBOUND:                -0.871
REMARK  Name = 
REMARK  6 active torsions:
REMARK  status: ('A' for Active; 'I' for Inactive)
REMARK    1  A    between atoms: C_1  and  C_2
REMARK    2  A    between atoms: C_2  and  N_3
REMARK    3  A    between atoms: C_2  and  C_16
REMARK    4  A    between atoms: C_4  and  C_6
REMARK    5  A    between atoms: C_19  and  O_20
REMARK    6  A    between atoms: O_20  and  C_21
REMARK                            x       y       z     vdW  Elec       q    Type
REMARK                         _______ _______ _______ _____ _____    ______ ____
ROOT
ATOM      1  C   UNL     1      47.957   9.132  14.120  0.00  0.00    +0.000 C 
ATOM      2  C   UNL     1      48.168   7.613  14.143  0.00  0.00    +0.000 C 
ENDROOT
BRANCH   2   3
ATOM      3  C   UNL     1      47.185   6.916  13.212  0.00  0.00    +0.000 A 
ATOM      4  C   UNL     1      46.520   7.652  12.220  0.00  0.00    +0.000 A 
ATOM      5  C   UNL     1      45.599   7.036  11.367  0.00  0.00    +0.000 A 
ATOM      6  C   UNL     1      45.375   5.660  11.445  0.00  0.00    +0.000 A 
ATOM      7  C   UNL     1      46.017   4.921  12.440  0.00  0.00    +0.000 A 
ATOM      8  C   UNL     1      46.914   5.542  13.317  0.00  0.00    +0.000 A 
BRANCH   6   9
ATOM      9  O   UNL     1      44.498   4.961  10.645  0.00  0.00    +0.000 OA
BRANCH   9  10
ATOM     10  C   UNL     1      44.957   4.033   9.739  0.00  0.00    +0.000 A 
ATOM     11  C   UNL     1      44.735   2.657   9.825  0.00  0.00    +0.000 A 
ATOM     12  C   UNL     1      45.274   1.796   8.866  0.00  0.00    +0.000 A 
ATOM     13  C   UNL     1      45.978   2.311   7.781  0.00  0.00    +0.000 A 
ATOM     14  C   UNL     1      46.142   3.690   7.651  0.00  0.00    +0.000 A 
ATOM     15  C   UNL     1      45.634   4.548   8.630  0.00  0.00    +0.000 A 
ENDBRANCH   9  10
ENDBRANCH   6   9
ENDBRANCH   2   3
BRANCH   2  16
ATOM     16  N   UNL     1      48.062   7.060  15.485  0.00  0.00    +0.000 N 
ATOM     17  C   UNL     1      49.142   6.512  16.133  0.00  0.00    +0.000 C 
ATOM     18  O   UNL     1      50.270   6.505  15.652  0.00  0.00    +0.000 OA
ATOM     19  H   UNL     1      47.133   6.769  15.779  0.00  0.00    +0.000 HD
BRANCH  17  20
ATOM     20  C   UNL     1      48.901   5.980  17.475  0.00  0.00    +0.000 A 
ATOM     21  C   UNL     1      49.112   4.632  17.728  0.00  0.00    +0.000 A 
ATOM     22  S   UNL     1      48.752   4.171  19.330  0.00  0.00    +0.000 S 
ATOM     23  C   UNL     1      48.264   5.753  19.728  0.00  0.00    +0.000 A 
ATOM     24  N   UNL     1      47.775   6.049  20.963  0.00  0.00    +0.000 NA
ATOM     25  C   UNL     1      47.407   7.272  21.114  0.00  0.00    +0.000 A 
ATOM     26  N   UNL     1      47.506   8.244  20.148  0.00  0.00    +0.000 N 
ATOM     27  C   UNL     1      48.036   8.006  18.902  0.00  0.00    +0.000 A 
ATOM     28  O   UNL     1      48.187   8.908  18.084  0.00  0.00    +0.000 OA
ATOM     29  C   UNL     1      48.419   6.628  18.668  0.00  0.00    +0.000 A 
ATOM     30  H   UNL     1      47.229   9.193  20.342  0.00  0.00    +0.000 HD
ENDBRANCH  17  20
ENDBRANCH   2  16
TORSDOF 5
ENDMDL
MODEL 6
REMARK VINA RESULT:    -7.429      3.476      7.853
REMARK INTER + INTRA:         -10.471
REMARK INTER:                  -9.267
REMARK INTRA:                  -1.205
REMARK UNBOUND:                -0.871
REMARK  Name = 
REMARK  6 active torsions:
REMARK  status: ('A' for Active; 'I' for Inactive)
REMARK    1  A    between atoms: C_1  and  C_2
REMARK    2  A    between atoms: C_2  and  N_3
REMARK    3  A    between atoms: C_2  and  C_16
REMARK    4  A    between atoms: C_4  and  C_6
REMARK    5  A    between atoms: C_19  and  O_20
REMARK    6  A    between atoms: O_20  and  C_21
REMARK                            x       y       z     vdW  Elec       q    Type
REMARK                         _______ _______ _______ _____ _____    ______ ____
ROOT
ATOM      1  C   UNL     1      49.141   8.097  12.682  0.00  0.00    +0.000 C 
ATOM      2  C   UNL     1      48.018   7.344  13.404  0.00  0.00    +0.000 C 
ENDROOT
BRANCH   2   3
ATOM      3  C   UNL     1      48.540   6.675  14.668  0.00  0.00    +0.000 A 
ATOM      4  C   UNL     1      47.793   5.660  15.282  0.00  0.00    +0.000 A 
ATOM      5  C   UNL     1      48.245   5.046  16.455  0.00  0.00    +0.000 A 
ATOM      6  C   UNL     1      49.484   5.389  16.999  0.00  0.00    +0.000 A 
ATOM      7  C   UNL     1      50.228   6.412  16.408  0.00  0.00    +0.000 A 
ATOM      8  C   UNL     1      49.762   7.051  15.253  0.00  0.00    +0.000 A 
BRANCH   6   9
ATOM      9  O   UNL     1      50.019   4.837  18.142  0.00  0.00    +0.000 OA
BRANCH   9  10
ATOM     10  C   UNL     1      50.944   3.821  18.067  0.00  0.00    +0.000 A 
ATOM     11  C   UNL     1      52.232   3.872  18.606  0.00  0.00    +0.000 A 
ATOM     12  C   UNL     1      53.105   2.794  18.446  0.00  0.00    +0.000 A 
ATOM     13  C   UNL     1      52.674   1.634  17.807  0.00  0.00    +0.000 A 
ATOM     14  C   UNL     1      51.367   1.549  17.329  0.00  0.00    +0.000 A 
ATOM     15  C   UNL     1      50.505   2.641  17.458  0.00  0.00    +0.000 A 
ENDBRANCH   9  10
ENDBRANCH   6   9
ENDBRANCH   2   3
BRANCH   2  16
ATOM     16  N   UNL     1      47.373   6.360  12.549  0.00  0.00    +0.000 N 
ATOM     17  C   UNL     1      46.264   6.664  11.797  0.00  0.00    +0.000 C 
ATOM     18  O   UNL     1      45.783   7.792  11.752  0.00  0.00    +0.000 OA
ATOM     19  H   UNL     1      47.531   5.384  12.787  0.00  0.00    +0.000 HD
BRANCH  17  20
ATOM     20  C   UNL     1      45.702   5.582  10.987  0.00  0.00    +0.000 A 
ATOM     21  C   UNL     1      45.817   5.628   9.605  0.00  0.00    +0.000 A 
ATOM     22  S   UNL     1      45.081   4.310   8.813  0.00  0.00    +0.000 S 
ATOM     23  C   UNL     1      44.551   3.653  10.291  0.00  0.00    +0.000 A 
ATOM     24  N   UNL     1      43.793   2.523  10.327  0.00  0.00    +0.000 NA
ATOM     25  C   UNL     1      43.428   2.161  11.507  0.00  0.00    +0.000 A 
ATOM     26  N   UNL     1      43.774   2.812  12.667  0.00  0.00    +0.000 N 
ATOM     27  C   UNL     1      44.575   3.928  12.686  0.00  0.00    +0.000 A 
ATOM     28  O   UNL     1      44.934   4.445  13.739  0.00  0.00    +0.000 OA
ATOM     29  C   UNL     1      44.970   4.404  11.374  0.00  0.00    +0.000 A 
ATOM     30  H   UNL     1      43.482   2.457  13.563  0.00  0.00    +0.000 HD
ENDBRANCH  17  20
ENDBRANCH   2  16
TORSDOF 5
ENDMDL
MODEL 7
REMARK VINA RESULT:    -7.327      2.351      3.255
REMARK INTER + INTRA:         -10.339
REMARK INTER:                  -9.565
REMARK INTRA:                  -0.774
REMARK UNBOUND:                -0.871
REMARK  Name = 
REMARK  6 active torsions:
REMARK  status: ('A' for Active; 'I' for Inactive)
REMARK    1  A    between atoms: C_1  and  C_2
REMARK    2  A    between atoms: C_2  and  N_3
REMARK    3  A    between atoms: C_2  and  C_16
REMARK    4  A    between atoms: C_4  and  C_6
REMARK    5  A    between atoms: C_19  and  O_20
REMARK    6  A    between atoms: O_20  and  C_21
REMARK                            x       y       z     vdW  Elec       q    Type
REMARK                         _______ _______ _______ _____ _____    ______ ____
ROOT
ATOM      1  C   UNL     1      49.555   8.331  13.691  0.00  0.00    +0.000 C 
ATOM      2  C   UNL     1      48.973   7.041  14.282  0.00  0.00    +0.000 C 
ENDROOT
BRANCH   2   3
ATOM      3  C   UNL     1      47.818   6.528  13.433  0.00  0.00    +0.000 A 
ATOM      4  C   UNL     1      47.351   7.293  12.354  0.00  0.00    +0.000 A 
ATOM      5  C   UNL     1      46.278   6.850  11.573  0.00  0.00    +0.000 A 
ATOM      6  C   UNL     1      45.696   5.605  11.814  0.00  0.00    +0.000 A 
ATOM      7  C   UNL     1      46.140   4.843  12.896  0.00  0.00    +0.000 A 
ATOM      8  C   UNL     1      47.191   5.299  13.700  0.00  0.00    +0.000 A 
BRANCH   6   9
ATOM      9  O   UNL     1      44.645   5.078  11.097  0.00  0.00    +0.000 OA
BRANCH   9  10
ATOM     10  C   UNL     1      44.865   4.158  10.096  0.00  0.00    +0.000 A 
ATOM     11  C   UNL     1      44.445   2.826  10.130  0.00  0.00    +0.000 A 
ATOM     12  C   UNL     1      44.748   1.966   9.073  0.00  0.00    +0.000 A 
ATOM     13  C   UNL     1      45.413   2.448   7.948  0.00  0.00    +0.000 A 
ATOM     14  C   UNL     1      45.772   3.794   7.877  0.00  0.00    +0.000 A 
ATOM     15  C   UNL     1      45.500   4.645   8.950  0.00  0.00    +0.000 A 
ENDBRANCH   9  10
ENDBRANCH   6   9
ENDBRANCH   2   3
BRANCH   2  16
ATOM     16  N   UNL     1      48.542   7.210  15.662  0.00  0.00    +0.000 N 
ATOM     17  C   UNL     1      49.190   6.596  16.706  0.00  0.00    +0.000 C 
ATOM     18  O   UNL     1      50.201   5.918  16.553  0.00  0.00    +0.000 OA
ATOM     19  H   UNL     1      47.573   7.485  15.800  0.00  0.00    +0.000 HD
BRANCH  17  20
ATOM     20  C   UNL     1      48.651   6.838  18.046  0.00  0.00    +0.000 A 
ATOM     21  C   UNL     1      48.207   8.107  18.388  0.00  0.00    +0.000 A 
ATOM     22  S   UNL     1      47.642   8.224  19.993  0.00  0.00    +0.000 S 
ATOM     23  C   UNL     1      48.009   6.589  20.295  0.00  0.00    +0.000 A 
ATOM     24  N   UNL     1      47.818   6.040  21.525  0.00  0.00    +0.000 NA
ATOM     25  C   UNL     1      48.175   4.808  21.623  0.00  0.00    +0.000 A 
ATOM     26  N   UNL     1      48.686   4.057  20.592  0.00  0.00    +0.000 N 
ATOM     27  C   UNL     1      48.852   4.552  19.320  0.00  0.00    +0.000 A 
ATOM     28  O   UNL     1      49.236   3.839  18.397  0.00  0.00    +0.000 OA
ATOM     29  C   UNL     1      48.511   5.953  19.173  0.00  0.00    +0.000 A 
ATOM     30  H   UNL     1      48.915   3.086  20.727  0.00  0.00    +0.000 HD
ENDBRANCH  17  20
ENDBRANCH   2  16
TORSDOF 5
ENDMDL
MODEL 8
REMARK VINA RESULT:    -7.148      3.422      8.577
REMARK INTER + INTRA:         -10.108
REMARK INTER:                  -8.933
REMARK INTRA:                  -1.175
REMARK UNBOUND:                -0.871
REMARK  Name = 
REMARK  6 active torsions:
REMARK  status: ('A' for Active; 'I' for Inactive)
REMARK    1  A    between atoms: C_1  and  C_2
REMARK    2  A    between atoms: C_2  and  N_3
REMARK    3  A    between atoms: C_2  and  C_16
REMARK    4  A    between atoms: C_4  and  C_6
REMARK    5  A    between atoms: C_19  and  O_20
REMARK    6  A    between atoms: O_20  and  C_21
REMARK                            x       y       z     vdW  Elec       q    Type
REMARK                         _______ _______ _______ _____ _____    ______ ____
ROOT
ATOM      1  C   UNL     1      49.579   7.654  12.646  0.00  0.00    +0.000 C 
ATOM      2  C   UNL     1      48.293   7.199  13.346  0.00  0.00    +0.000 C 
ENDROOT
BRANCH   2   3
ATOM      3  C   UNL     1      48.601   6.610  14.716  0.00  0.00    +0.000 A 
ATOM      4  C   UNL     1      49.681   7.104  15.462  0.00  0.00    +0.000 A 
ATOM      5  C   UNL     1      49.994   6.564  16.713  0.00  0.00    +0.000 A 
ATOM      6  C   UNL     1      49.194   5.566  17.272  0.00  0.00    +0.000 A 
ATOM      7  C   UNL     1      48.128   5.053  16.532  0.00  0.00    +0.000 A 
ATOM      8  C   UNL     1      47.833   5.569  15.264  0.00  0.00    +0.000 A 
BRANCH   6   9
ATOM      9  O   UNL     1      49.414   4.979  18.499  0.00  0.00    +0.000 OA
BRANCH   9  10
ATOM     10  C   UNL     1      48.795   5.459  19.631  0.00  0.00    +0.000 A 
ATOM     11  C   UNL     1      48.096   6.666  19.707  0.00  0.00    +0.000 A 
ATOM     12  C   UNL     1      47.531   7.077  20.917  0.00  0.00    +0.000 A 
ATOM     13  C   UNL     1      47.602   6.253  22.037  0.00  0.00    +0.000 A 
ATOM     14  C   UNL     1      48.237   5.014  21.949  0.00  0.00    +0.000 A 
ATOM     15  C   UNL     1      48.834   4.620  20.748  0.00  0.00    +0.000 A 
ENDBRANCH   9  10
ENDBRANCH   6   9
ENDBRANCH   2   3
BRANCH   2  16
ATOM     16  N   UNL     1      47.537   6.244  12.550  0.00  0.00    +0.000 N 
ATOM     17  C   UNL     1      46.489   6.630  11.751  0.00  0.00    +0.000 C 
ATOM     18  O   UNL     1      46.160   7.804  11.611  0.00  0.00    +0.000 OA
ATOM     19  H   UNL     1      47.564   5.276  12.863  0.00  0.00    +0.000 HD
BRANCH  17  20
ATOM     20  C   UNL     1      45.804   5.570  11.009  0.00  0.00    +0.000 A 
ATOM     21  C   UNL     1      45.849   5.563   9.623  0.00  0.00    +0.000 A 
ATOM     22  S   UNL     1      44.973   4.283   8.916  0.00  0.00    +0.000 S 
ATOM     23  C   UNL     1      44.470   3.718  10.442  0.00  0.00    +0.000 A 
ATOM     24  N   UNL     1      43.630   2.654  10.556  0.00  0.00    +0.000 NA
ATOM     25  C   UNL     1      43.300   2.361  11.765  0.00  0.00    +0.000 A 
ATOM     26  N   UNL     1      43.755   3.019  12.882  0.00  0.00    +0.000 N 
ATOM     27  C   UNL     1      44.641   4.068  12.821  0.00  0.00    +0.000 A 
ATOM     28  O   UNL     1      45.094   4.588  13.836  0.00  0.00    +0.000 OA
ATOM     29  C   UNL     1      45.003   4.468  11.475  0.00  0.00    +0.000 A 
ATOM     30  H   UNL     1      43.483   2.717  13.804  0.00  0.00    +0.000 HD
ENDBRANCH  17  20
ENDBRANCH   2  16
TORSDOF 5
ENDMDL
