MODEL 1
REMARK VINA RESULT:    -8.597      0.000      0.000
REMARK INTER + INTRA:         -11.994
REMARK INTER:                 -11.110
REMARK INTRA:                  -0.883
REMARK UNBOUND:                -0.883
REMARK  Name = 
REMARK  5 active torsions:
REMARK  status: ('A' for Active; 'I' for Inactive)
REMARK    1  A    between atoms: C_2  and  C_4
REMARK    2  A    between atoms: C_7  and  O_8
REMARK    3  A    between atoms: O_8  and  C_9
REMARK    4  A    between atoms: C_9  and  C_10
REMARK    5  A    between atoms: C_15  and  N_16
REMARK                            x       y       z     vdW  Elec       q    Type
REMARK                         _______ _______ _______ _____ _____    ______ ____
ROOT
ATOM      1  C   UNL     1      44.673   4.985  12.019  0.00  0.00    +0.000 A 
ATOM      2  C   UNL     1      45.590   4.205  12.714  0.00  0.00    +0.000 A 
ATOM      3  F   UNL     1      45.398   2.883  12.831  0.00  0.00    +0.000 F 
ATOM      4  C   UNL     1      46.714   4.770  13.304  0.00  0.00    +0.000 A 
ATOM      5  C   UNL     1      46.940   6.141  13.182  0.00  0.00    +0.000 A 
ATOM      6  C   UNL     1      46.063   6.968  12.460  0.00  0.00    +0.000 A 
ATOM      7  C   UNL     1      44.924   6.357  11.896  0.00  0.00    +0.000 A 
ATOM      8  F   UNL     1      44.025   7.105  11.232  0.00  0.00    +0.000 F 
ENDROOT
BRANCH   6   9
ATOM      9  N   UNL     1      46.418   8.301  12.274  0.00  0.00    +0.000 N 
ATOM     10  C   UNL     1      45.445   9.365  12.583  0.00  0.00    +0.000 C 
ATOM     11  C   UNL     1      45.853  10.624  11.798  0.00  0.00    +0.000 C 
ATOM     12  O   UNL     1      47.190  11.042  12.134  0.00  0.00    +0.000 OA
ATOM     13  C   UNL     1      48.134   9.992  11.847  0.00  0.00    +0.000 C 
ATOM     14  C   UNL     1      47.798   8.700  12.610  0.00  0.00    +0.000 C 
ENDBRANCH   6   9
BRANCH   1  15
ATOM     15  C   UNL     1      43.471   4.362  11.375  0.00  0.00    +0.000 C 
BRANCH  15  16
ATOM     16  O   UNL     1      43.554   4.564   9.965  0.00  0.00    +0.000 OA
BRANCH  16  20
ATOM     17  C   UNL     1      46.380   2.432   7.757  0.00  0.00    +0.000 A 
ATOM     18  C   UNL     1      45.556   1.728   8.640  0.00  0.00    +0.000 A 
ATOM     19  C   UNL     1      44.594   2.406   9.398  0.00  0.00    +0.000 A 
ATOM     20  C   UNL     1      44.452   3.791   9.282  0.00  0.00    +0.000 A 
ATOM     21  C   UNL     1      45.288   4.492   8.409  0.00  0.00    +0.000 A 
ATOM     22  C   UNL     1      46.254   3.821   7.652  0.00  0.00    +0.000 A 
BRANCH  17  24
ATOM     23  N   UNL     1      48.469   2.502   6.505  0.00  0.00    +0.000 N 
ATOM     24  C   UNL     1      47.413   1.747   6.936  0.00  0.00    +0.000 C 
ATOM     25  O   UNL     1      47.350   0.551   6.685  0.00  0.00    +0.000 OA
ATOM     26  H   UNL     1      49.217   1.999   6.045  0.00  0.00    +0.000 HD
ATOM     27  H   UNL     1      48.687   3.403   6.905  0.00  0.00    +0.000 HD
ENDBRANCH  17  24
ENDBRANCH  16  20
ENDBRANCH  15  16
ENDBRANCH   1  15
TORSDOF 5
ENDMDL
MODEL 2
REMARK VINA RESULT:    -8.458      1.971      2.998
REMARK INTER + INTRA:         -11.814
REMARK INTER:                 -11.348
REMARK INTRA:                  -0.466
REMARK UNBOUND:                -0.883
REMARK  Name = 
REMARK  5 active torsions:
REMARK  status: ('A' for Active; 'I' for Inactive)
REMARK    1  A    between atoms: C_2  and  C_4
REMARK    2  A    between atoms: C_7  and  O_8
REMARK    3  A    between atoms: O_8  and  C_9
REMARK    4  A    between atoms: C_9  and  C_10
REMARK    5  A    between atoms: C_15  and  N_16
REMARK                            x       y       z     vdW  Elec       q    Type
REMARK                         _______ _______ _______ _____ _____    ______ ____
ROOT
ATOM      1  C   UNL     1      44.540   4.606  11.962  0.00  0.00    +0.000 A 
ATOM      2  C   UNL     1      43.786   5.721  11.611  0.00  0.00    +0.000 A 
ATOM      3  F   UNL     1      42.591   5.567  11.023  0.00  0.00    +0.000 F 
ATOM      4  C   UNL     1      44.249   7.008  11.854  0.00  0.00    +0.000 A 
ATOM      5  C   UNL     1      45.482   7.190  12.479  0.00  0.00    +0.000 A 
ATOM      6  C   UNL     1      46.268   6.098  12.885  0.00  0.00    +0.000 A 
ATOM      7  C   UNL     1      45.770   4.809  12.599  0.00  0.00    +0.000 A 
ATOM      8  F   UNL     1      46.498   3.726  12.923  0.00  0.00    +0.000 F 
ENDROOT
BRANCH   6   9
ATOM      9  N   UNL     1      47.426   6.354  13.612  0.00  0.00    +0.000 N 
ATOM     10  C   UNL     1      47.698   5.591  14.844  0.00  0.00    +0.000 C 
ATOM     11  C   UNL     1      48.675   6.409  15.705  0.00  0.00    +0.000 C 
ATOM     12  O   UNL     1      49.898   6.683  14.994  0.00  0.00    +0.000 OA
ATOM     13  C   UNL     1      49.625   7.414  13.782  0.00  0.00    +0.000 C 
ATOM     14  C   UNL     1      48.661   6.648  12.861  0.00  0.00    +0.000 C 
ENDBRANCH   6   9
BRANCH   1  15
ATOM     15  C   UNL     1      44.025   3.222  11.707  0.00  0.00    +0.000 C 
BRANCH  15  16
ATOM     16  O   UNL     1      43.564   3.149  10.359  0.00  0.00    +0.000 OA
BRANCH  16  20
ATOM     17  C   UNL     1      46.499   2.591   7.446  0.00  0.00    +0.000 A 
ATOM     18  C   UNL     1      45.969   3.873   7.620  0.00  0.00    +0.000 A 
ATOM     19  C   UNL     1      44.984   4.102   8.588  0.00  0.00    +0.000 A 
ATOM     20  C   UNL     1      44.519   3.052   9.384  0.00  0.00    +0.000 A 
ATOM     21  C   UNL     1      45.042   1.770   9.196  0.00  0.00    +0.000 A 
ATOM     22  C   UNL     1      46.023   1.535   8.228  0.00  0.00    +0.000 A 
BRANCH  17  24
ATOM     23  N   UNL     1      47.476   3.004   5.253  0.00  0.00    +0.000 N 
ATOM     24  C   UNL     1      47.546   2.309   6.429  0.00  0.00    +0.000 C 
ATOM     25  O   UNL     1      48.458   1.522   6.641  0.00  0.00    +0.000 OA
ATOM     26  H   UNL     1      48.256   2.884   4.618  0.00  0.00    +0.000 HD
ATOM     27  H   UNL     1      46.911   3.833   5.148  0.00  0.00    +0.000 HD
ENDBRANCH  17  24
ENDBRANCH  16  20
ENDBRANCH  15  16
ENDBRANCH   1  15
TORSDOF 5
ENDMDL
MODEL 3
REMARK VINA RESULT:    -7.547      2.504      3.850
REMARK INTER + INTRA:         -10.637
REMARK INTER:                 -10.227
REMARK INTRA:                  -0.410
REMARK UNBOUND:                -0.883
REMARK  Name = 
REMARK  5 active torsions:
REMARK  status: ('A' for Active; 'I' for Inactive)
REMARK    1  A    between atoms: C_2  and  C_4
REMARK    2  A    between atoms: C_7  and  O_8
REMARK    3  A    between atoms: O_8  and  C_9
REMARK    4  A    between atoms: C_9  and  C_10
REMARK    5  A    between atoms: C_15  and  N_16
REMARK                            x       y       z     vdW  Elec       q    Type
REMARK                         _______ _______ _______ _____ _____    ______ ____
ROOT
ATOM      1  C   UNL     1      45.103   5.404  12.121  0.00  0.00    +0.000 A 
ATOM      2  C   UNL     1      45.576   6.637  11.686  0.00  0.00    +0.000 A 
ATOM      3  F   UNL     1      44.991   7.253  10.648  0.00  0.00    +0.000 F 
ATOM      4  C   UNL     1      46.657   7.252  12.303  0.00  0.00    +0.000 A 
ATOM      5  C   UNL     1      47.270   6.635  13.394  0.00  0.00    +0.000 A 
ATOM      6  C   UNL     1      46.810   5.406  13.896  0.00  0.00    +0.000 A 
ATOM      7  C   UNL     1      45.723   4.806  13.225  0.00  0.00    +0.000 A 
ATOM      8  F   UNL     1      45.267   3.609  13.631  0.00  0.00    +0.000 F 
ENDROOT
BRANCH   6   9
ATOM      9  N   UNL     1      47.389   4.911  15.060  0.00  0.00    +0.000 N 
ATOM     10  C   UNL     1      47.715   3.478  15.162  0.00  0.00    +0.000 C 
ATOM     11  C   UNL     1      47.801   3.114  16.654  0.00  0.00    +0.000 C 
ATOM     12  O   UNL     1      48.791   3.911  17.333  0.00  0.00    +0.000 OA
ATOM     13  C   UNL     1      48.477   5.312  17.215  0.00  0.00    +0.000 C 
ATOM     14  C   UNL     1      48.387   5.755  15.745  0.00  0.00    +0.000 C 
ENDBRANCH   6   9
BRANCH   1  15
ATOM     15  C   UNL     1      43.927   4.756  11.455  0.00  0.00    +0.000 C 
BRANCH  15  16
ATOM     16  O   UNL     1      44.030   4.964  10.048  0.00  0.00    +0.000 OA
BRANCH  16  20
ATOM     17  C   UNL     1      46.516   2.488   7.790  0.00  0.00    +0.000 A 
ATOM     18  C   UNL     1      45.606   1.894   8.669  0.00  0.00    +0.000 A 
ATOM     19  C   UNL     1      44.753   2.690   9.443  0.00  0.00    +0.000 A 
ATOM     20  C   UNL     1      44.807   4.083   9.348  0.00  0.00    +0.000 A 
ATOM     21  C   UNL     1      45.729   4.672   8.478  0.00  0.00    +0.000 A 
ATOM     22  C   UNL     1      46.587   3.882   7.705  0.00  0.00    +0.000 A 
BRANCH  17  24
ATOM     23  N   UNL     1      48.373   2.354   6.219  0.00  0.00    +0.000 N 
ATOM     24  C   UNL     1      47.438   1.677   6.952  0.00  0.00    +0.000 C 
ATOM     25  O   UNL     1      47.396   0.454   6.944  0.00  0.00    +0.000 OA
ATOM     26  H   UNL     1      49.063   1.785   5.744  0.00  0.00    +0.000 HD
ATOM     27  H   UNL     1      48.607   3.319   6.400  0.00  0.00    +0.000 HD
ENDBRANCH  17  24
ENDBRANCH  16  20
ENDBRANCH  15  16
ENDBRANCH   1  15
TORSDOF 5
ENDMDL
MODEL 4
REMARK VINA RESULT:    -7.494      2.218      6.721
REMARK INTER + INTRA:         -10.568
REMARK INTER:                  -9.619
REMARK INTRA:                  -0.949
REMARK UNBOUND:                -0.883
REMARK  Name = 
REMARK  5 active torsions:
REMARK  status: ('A' for Active; 'I' for Inactive)
REMARK    1  A    between atoms: C_2  and  C_4
REMARK    2  A    between atoms: C_7  and  O_8
REMARK    3  A    between atoms: O_8  and  C_9
REMARK    4  A    between atoms: C_9  and  C_10
REMARK    5  A    between atoms: C_15  and  N_16
REMARK                            x       y       z     vdW  Elec       q    Type
REMARK                         _______ _______ _______ _____ _____    ______ ____
ROOT
ATOM      1  C   UNL     1      44.295   5.304  11.179  0.00  0.00    +0.000 A 
ATOM      2  C   UNL     1      43.395   4.451  11.809  0.00  0.00    +0.000 A 
ATOM      3  F   UNL     1      42.602   4.912  12.788  0.00  0.00    +0.000 F 
ATOM      4  C   UNL     1      43.298   3.113  11.448  0.00  0.00    +0.000 A 
ATOM      5  C   UNL     1      44.103   2.617  10.422  0.00  0.00    +0.000 A 
ATOM      6  C   UNL     1      45.003   3.445   9.730  0.00  0.00    +0.000 A 
ATOM      7  C   UNL     1      45.084   4.791  10.144  0.00  0.00    +0.000 A 
ATOM      8  F   UNL     1      45.960   5.620   9.549  0.00  0.00    +0.000 F 
ENDROOT
BRANCH   6   9
ATOM      9  N   UNL     1      45.681   2.912   8.638  0.00  0.00    +0.000 N 
ATOM     10  C   UNL     1      45.782   1.450   8.484  0.00  0.00    +0.000 C 
ATOM     11  C   UNL     1      46.988   1.149   7.577  0.00  0.00    +0.000 C 
ATOM     12  O   UNL     1      46.852   1.789   6.293  0.00  0.00    +0.000 OA
ATOM     13  C   UNL     1      46.735   3.216   6.450  0.00  0.00    +0.000 C 
ATOM     14  C   UNL     1      45.538   3.596   7.338  0.00  0.00    +0.000 C 
ENDBRANCH   6   9
BRANCH   1  15
ATOM     15  C   UNL     1      44.380   6.749  11.569  0.00  0.00    +0.000 C 
BRANCH  15  16
ATOM     16  O   UNL     1      45.148   6.853  12.766  0.00  0.00    +0.000 OA
BRANCH  16  20
ATOM     17  C   UNL     1      49.132   7.982  12.251  0.00  0.00    +0.000 A 
ATOM     18  C   UNL     1      48.859   6.682  12.687  0.00  0.00    +0.000 A 
ATOM     19  C   UNL     1      47.536   6.264  12.871  0.00  0.00    +0.000 A 
ATOM     20  C   UNL     1      46.477   7.142  12.624  0.00  0.00    +0.000 A 
ATOM     21  C   UNL     1      46.756   8.445  12.202  0.00  0.00    +0.000 A 
ATOM     22  C   UNL     1      48.076   8.869  12.022  0.00  0.00    +0.000 A 
BRANCH  17  24
ATOM     23  N   UNL     1      51.474   8.012  12.919  0.00  0.00    +0.000 N 
ATOM     24  C   UNL     1      50.524   8.462  12.045  0.00  0.00    +0.000 C 
ATOM     25  O   UNL     1      50.822   9.196  11.113  0.00  0.00    +0.000 OA
ATOM     26  H   UNL     1      52.432   8.256  12.699  0.00  0.00    +0.000 HD
ATOM     27  H   UNL     1      51.321   7.217  13.521  0.00  0.00    +0.000 HD
ENDBRANCH  17  24
ENDBRANCH  16  20
ENDBRANCH  15  16
ENDBRANCH   1  15
TORSDOF 5
ENDMDL
MODEL 5
REMARK VINA RESULT:    -6.711      2.088      7.515
REMARK INTER + INTRA:          -9.556
REMARK INTER:                  -8.969
REMARK INTRA:                  -0.587
REMARK UNBOUND:                -0.883
REMARK  Name = 
REMARK  5 active torsions:
REMARK  status: ('A' for Active; 'I' for Inactive)
REMARK    1  A    between atoms: C_2  and  C_4
REMARK    2  A    between atoms: C_7  and  O_8
REMARK    3  A    between atoms: O_8  and  C_9
REMARK    4  A    between atoms: C_9  and  C_10
REMARK    5  A    between atoms: C_15  and  N_16
REMARK                            x       y       z     vdW  Elec       q    Type
REMARK                         _______ _______ _______ _____ _____    ______ ____
ROOT
ATOM      1  C   UNL     1      44.191   5.141  11.208  0.00  0.00    +0.000 A 
ATOM      2  C   UNL     1      43.368   4.221  11.847  0.00  0.00    +0.000 A 
ATOM      3  F   UNL     1      42.572   4.614  12.852  0.00  0.00    +0.000 F 
ATOM      4  C   UNL     1      43.353   2.884  11.469  0.00  0.00    +0.000 A 
ATOM      5  C   UNL     1      44.163   2.458  10.416  0.00  0.00    +0.000 A 
ATOM      6  C   UNL     1      44.987   3.354   9.714  0.00  0.00    +0.000 A 
ATOM      7  C   UNL     1      44.987   4.697  10.145  0.00  0.00    +0.000 A 
ATOM      8  F   UNL     1      45.789   5.591   9.542  0.00  0.00    +0.000 F 
ENDROOT
BRANCH   6   9
ATOM      9  N   UNL     1      45.671   2.883   8.597  0.00  0.00    +0.000 N 
ATOM     10  C   UNL     1      45.893   1.435   8.433  0.00  0.00    +0.000 C 
ATOM     11  C   UNL     1      47.089   1.241   7.485  0.00  0.00    +0.000 C 
ATOM     12  O   UNL     1      46.855   1.868   6.210  0.00  0.00    +0.000 OA
ATOM     13  C   UNL     1      46.620   3.280   6.377  0.00  0.00    +0.000 C 
ATOM     14  C   UNL     1      45.425   3.554   7.306  0.00  0.00    +0.000 C 
ENDBRANCH   6   9
BRANCH   1  15
ATOM     15  C   UNL     1      44.189   6.584  11.617  0.00  0.00    +0.000 C 
BRANCH  15  16
ATOM     16  O   UNL     1      45.433   6.880  12.248  0.00  0.00    +0.000 OA
BRANCH  16  20
ATOM     17  C   UNL     1      46.997  10.746  12.115  0.00  0.00    +0.000 A 
ATOM     18  C   UNL     1      45.625  10.576  11.911  0.00  0.00    +0.000 A 
ATOM     19  C   UNL     1      45.061   9.295  11.949  0.00  0.00    +0.000 A 
ATOM     20  C   UNL     1      45.864   8.176  12.186  0.00  0.00    +0.000 A 
ATOM     21  C   UNL     1      47.237   8.351  12.375  0.00  0.00    +0.000 A 
ATOM     22  C   UNL     1      47.807   9.627  12.334  0.00  0.00    +0.000 A 
BRANCH  17  24
ATOM     23  N   UNL     1      47.543  12.850  13.214  0.00  0.00    +0.000 N 
ATOM     24  C   UNL     1      47.633  12.090  12.081  0.00  0.00    +0.000 C 
ATOM     25  O   UNL     1      48.246  12.490  11.101  0.00  0.00    +0.000 OA
ATOM     26  H   UNL     1      48.075  13.711  13.215  0.00  0.00    +0.000 HD
ATOM     27  H   UNL     1      47.285  12.459  14.108  0.00  0.00    +0.000 HD
ENDBRANCH  17  24
ENDBRANCH  16  20
ENDBRANCH  15  16
ENDBRANCH   1  15
TORSDOF 5
ENDMDL
MODEL 6
REMARK VINA RESULT:    -6.499      3.819      5.938
REMARK INTER + INTRA:          -9.282
REMARK INTER:                  -8.245
REMARK INTRA:                  -1.037
REMARK UNBOUND:                -0.883
REMARK  Name = 
REMARK  5 active torsions:
REMARK  status: ('A' for Active; 'I' for Inactive)
REMARK    1  A    between atoms: C_2  and  C_4
REMARK    2  A    between atoms: C_7  and  O_8
REMARK    3  A    between atoms: O_8  and  C_9
REMARK    4  A    between atoms: C_9  and  C_10
REMARK    5  A    between atoms: C_15  and  N_16
REMARK                            x       y       z     vdW  Elec       q    Type
REMARK                         _______ _______ _______ _____ _____    ______ ____
ROOT
ATOM      1  C   UNL     1      48.036   7.778  13.698  0.00  0.00    +0.000 A 
ATOM      2  C   UNL     1      48.291   8.944  14.411  0.00  0.00    +0.000 A 
ATOM      3  F   UNL     1      48.128  10.140  13.827  0.00  0.00    +0.000 F 
ATOM      4  C   UNL     1      48.720   8.901  15.731  0.00  0.00    +0.000 A 
ATOM      5  C   UNL     1      48.881   7.667  16.363  0.00  0.00    +0.000 A 
ATOM      6  C   UNL     1      48.604   6.460  15.698  0.00  0.00    +0.000 A 
ATOM      7  C   UNL     1      48.191   6.551  14.352  0.00  0.00    +0.000 A 
ATOM      8  F   UNL     1      47.955   5.429  13.651  0.00  0.00    +0.000 F 
ENDROOT
BRANCH   6   9
ATOM      9  N   UNL     1      48.666   5.277  16.428  0.00  0.00    +0.000 N 
ATOM     10  C   UNL     1      49.704   5.110  17.460  0.00  0.00    +0.000 C 
ATOM     11  C   UNL     1      49.903   3.603  17.696  0.00  0.00    +0.000 C 
ATOM     12  O   UNL     1      48.674   2.968  18.101  0.00  0.00    +0.000 OA
ATOM     13  C   UNL     1      47.657   3.150  17.096  0.00  0.00    +0.000 C 
ATOM     14  C   UNL     1      47.394   4.639  16.816  0.00  0.00    +0.000 C 
ENDBRANCH   6   9
BRANCH   1  15
ATOM     15  C   UNL     1      47.561   7.838  12.277  0.00  0.00    +0.000 C 
BRANCH  15  16
ATOM     16  O   UNL     1      46.134   7.809  12.274  0.00  0.00    +0.000 OA
BRANCH  16  20
ATOM     17  C   UNL     1      44.424   4.122  11.333  0.00  0.00    +0.000 A 
ATOM     18  C   UNL     1      44.208   4.649  12.609  0.00  0.00    +0.000 A 
ATOM     19  C   UNL     1      44.763   5.885  12.964  0.00  0.00    +0.000 A 
ATOM     20  C   UNL     1      45.541   6.598  12.047  0.00  0.00    +0.000 A 
ATOM     21  C   UNL     1      45.766   6.059  10.778  0.00  0.00    +0.000 A 
ATOM     22  C   UNL     1      45.218   4.823  10.420  0.00  0.00    +0.000 A 
BRANCH  17  24
ATOM     23  N   UNL     1      44.471   2.159   9.892  0.00  0.00    +0.000 N 
ATOM     24  C   UNL     1      43.852   2.813  10.920  0.00  0.00    +0.000 C 
ATOM     25  O   UNL     1      42.894   2.316  11.497  0.00  0.00    +0.000 OA
ATOM     26  H   UNL     1      44.140   1.221   9.697  0.00  0.00    +0.000 HD
ATOM     27  H   UNL     1      45.398   2.402   9.576  0.00  0.00    +0.000 HD
ENDBRANCH  17  24
ENDBRANCH  16  20
ENDBRANCH  15  16
ENDBRANCH   1  15
TORSDOF 5
ENDMDL
MODEL 7
REMARK VINA RESULT:    -6.259      2.073      3.239
REMARK INTER + INTRA:          -8.971
REMARK INTER:                  -8.326
REMARK INTRA:                  -0.646
REMARK UNBOUND:                -0.883
REMARK  Name = 
REMARK  5 active torsions:
REMARK  status: ('A' for Active; 'I' for Inactive)
REMARK    1  A    between atoms: C_2  and  C_4
REMARK    2  A    between atoms: C_7  and  O_8
REMARK    3  A    between atoms: O_8  and  C_9
REMARK    4  A    between atoms: C_9  and  C_10
REMARK    5  A    between atoms: C_15  and  N_16
REMARK                            x       y       z     vdW  Elec       q    Type
REMARK                         _______ _______ _______ _____ _____    ______ ____
ROOT
ATOM      1  C   UNL     1      45.755   6.566  12.156  0.00  0.00    +0.000 A 
ATOM      2  C   UNL     1      45.022   7.714  11.876  0.00  0.00    +0.000 A 
ATOM      3  F   UNL     1      43.711   7.627  11.608  0.00  0.00    +0.000 F 
ATOM      4  C   UNL     1      45.623   8.966  11.863  0.00  0.00    +0.000 A 
ATOM      5  C   UNL     1      46.982   9.080  12.155  0.00  0.00    +0.000 A 
ATOM      6  C   UNL     1      47.761   7.956  12.479  0.00  0.00    +0.000 A 
ATOM      7  C   UNL     1      47.114   6.702  12.459  0.00  0.00    +0.000 A 
ATOM      8  F   UNL     1      47.817   5.586  12.716  0.00  0.00    +0.000 F 
ENDROOT
BRANCH   6   9
ATOM      9  N   UNL     1      49.077   8.160  12.880  0.00  0.00    +0.000 N 
ATOM     10  C   UNL     1      50.015   8.856  11.981  0.00  0.00    +0.000 C 
ATOM     11  C   UNL     1      51.446   8.465  12.390  0.00  0.00    +0.000 C 
ATOM     12  O   UNL     1      51.710   8.805  13.765  0.00  0.00    +0.000 OA
ATOM     13  C   UNL     1      50.779   8.136  14.638  0.00  0.00    +0.000 C 
ATOM     14  C   UNL     1      49.322   8.491  14.297  0.00  0.00    +0.000 C 
ENDBRANCH   6   9
BRANCH   1  15
ATOM     15  C   UNL     1      45.092   5.222  12.181  0.00  0.00    +0.000 C 
BRANCH  15  16
ATOM     16  O   UNL     1      44.347   5.060  10.975  0.00  0.00    +0.000 OA
BRANCH  16  20
ATOM     17  C   UNL     1      46.124   2.757   7.984  0.00  0.00    +0.000 A 
ATOM     18  C   UNL     1      46.267   4.146   7.928  0.00  0.00    +0.000 A 
ATOM     19  C   UNL     1      45.688   4.954   8.914  0.00  0.00    +0.000 A 
ATOM     20  C   UNL     1      44.957   4.380   9.958  0.00  0.00    +0.000 A 
ATOM     21  C   UNL     1      44.805   2.992  10.000  0.00  0.00    +0.000 A 
ATOM     22  C   UNL     1      45.378   2.180   9.016  0.00  0.00    +0.000 A 
BRANCH  17  24
ATOM     23  N   UNL     1      47.042   0.594   7.343  0.00  0.00    +0.000 N 
ATOM     24  C   UNL     1      46.724   1.866   6.956  0.00  0.00    +0.000 C 
ATOM     25  O   UNL     1      46.892   2.234   5.801  0.00  0.00    +0.000 OA
ATOM     26  H   UNL     1      47.344  -0.032   6.607  0.00  0.00    +0.000 HD
ATOM     27  H   UNL     1      46.682   0.181   8.190  0.00  0.00    +0.000 HD
ENDBRANCH  17  24
ENDBRANCH  16  20
ENDBRANCH  15  16
ENDBRANCH   1  15
TORSDOF 5
ENDMDL
MODEL 8
REMARK VINA RESULT:    -6.210      4.477      7.962
REMARK INTER + INTRA:          -8.909
REMARK INTER:                  -8.040
REMARK INTRA:                  -0.870
REMARK UNBOUND:                -0.883
REMARK  Name = 
REMARK  5 active torsions:
REMARK  status: ('A' for Active; 'I' for Inactive)
REMARK    1  A    between atoms: C_2  and  C_4
REMARK    2  A    between atoms: C_7  and  O_8
REMARK    3  A    between atoms: O_8  and  C_9
REMARK    4  A    between atoms: C_9  and  C_10
REMARK    5  A    between atoms: C_15  and  N_16
REMARK                            x       y       z     vdW  Elec       q    Type
REMARK                         _______ _______ _______ _____ _____    ______ ____
ROOT
ATOM      1  C   UNL     1      47.383   7.383  13.246  0.00  0.00    +0.000 A 
ATOM      2  C   UNL     1      46.809   8.580  12.830  0.00  0.00    +0.000 A 
ATOM      3  F   UNL     1      47.441   9.742  13.051  0.00  0.00    +0.000 F 
ATOM      4  C   UNL     1      45.579   8.602  12.187  0.00  0.00    +0.000 A 
ATOM      5  C   UNL     1      44.912   7.403  11.933  0.00  0.00    +0.000 A 
ATOM      6  C   UNL     1      45.464   6.164  12.301  0.00  0.00    +0.000 A 
ATOM      7  C   UNL     1      46.705   6.190  12.971  0.00  0.00    +0.000 A 
ATOM      8  F   UNL     1      47.262   5.039  13.387  0.00  0.00    +0.000 F 
ENDROOT
BRANCH   6   9
ATOM      9  N   UNL     1      44.804   5.006  11.905  0.00  0.00    +0.000 N 
ATOM     10  C   UNL     1      43.735   4.448  12.754  0.00  0.00    +0.000 C 
ATOM     11  C   UNL     1      43.580   2.958  12.406  0.00  0.00    +0.000 C 
ATOM     12  O   UNL     1      43.271   2.773  11.011  0.00  0.00    +0.000 OA
ATOM     13  C   UNL     1      44.310   3.336  10.186  0.00  0.00    +0.000 C 
ATOM     14  C   UNL     1      44.514   4.834  10.469  0.00  0.00    +0.000 C 
ENDBRANCH   6   9
BRANCH   1  15
ATOM     15  C   UNL     1      48.718   7.371  13.927  0.00  0.00    +0.000 C 
BRANCH  15  16
ATOM     16  O   UNL     1      48.509   7.395  15.338  0.00  0.00    +0.000 OA
BRANCH  16  20
ATOM     17  C   UNL     1      50.699   4.609  17.540  0.00  0.00    +0.000 A 
ATOM     18  C   UNL     1      49.322   4.410  17.397  0.00  0.00    +0.000 A 
ATOM     19  C   UNL     1      48.552   5.321  16.664  0.00  0.00    +0.000 A 
ATOM     20  C   UNL     1      49.151   6.438  16.075  0.00  0.00    +0.000 A 
ATOM     21  C   UNL     1      50.524   6.639  16.234  0.00  0.00    +0.000 A 
ATOM     22  C   UNL     1      51.298   5.735  16.968  0.00  0.00    +0.000 A 
BRANCH  17  24
ATOM     23  N   UNL     1      51.462   2.339  17.985  0.00  0.00    +0.000 N 
ATOM     24  C   UNL     1      51.549   3.663  18.311  0.00  0.00    +0.000 C 
ATOM     25  O   UNL     1      52.326   4.050  19.174  0.00  0.00    +0.000 OA
ATOM     26  H   UNL     1      52.127   1.724  18.438  0.00  0.00    +0.000 HD
ATOM     27  H   UNL     1      51.044   2.020  17.122  0.00  0.00    +0.000 HD
ENDBRANCH  17  24
ENDBRANCH  16  20
ENDBRANCH  15  16
ENDBRANCH   1  15
TORSDOF 5
ENDMDL
MODEL 9
REMARK VINA RESULT:    -6.132      4.499      8.445
REMARK INTER + INTRA:          -8.808
REMARK INTER:                  -8.105
REMARK INTRA:                  -0.703
REMARK UNBOUND:                -0.883
REMARK  Name = 
REMARK  5 active torsions:
REMARK  status: ('A' for Active; 'I' for Inactive)
REMARK    1  A    between atoms: C_2  and  C_4
REMARK    2  A    between atoms: C_7  and  O_8
REMARK    3  A    between atoms: O_8  and  C_9
REMARK    4  A    between atoms: C_9  and  C_10
REMARK    5  A    between atoms: C_15  and  N_16
REMARK                            x       y       z     vdW  Elec       q    Type
REMARK                         _______ _______ _______ _____ _____    ______ ____
ROOT
ATOM      1  C   UNL     1      47.562   7.182  13.621  0.00  0.00    +0.000 A 
ATOM      2  C   UNL     1      47.029   8.436  13.339  0.00  0.00    +0.000 A 
ATOM      3  F   UNL     1      47.709   9.545  13.664  0.00  0.00    +0.000 F 
ATOM      4  C   UNL     1      45.791   8.569  12.725  0.00  0.00    +0.000 A 
ATOM      5  C   UNL     1      45.074   7.428  12.365  0.00  0.00    +0.000 A 
ATOM      6  C   UNL     1      45.583   6.138  12.595  0.00  0.00    +0.000 A 
ATOM      7  C   UNL     1      46.834   6.049  13.240  0.00  0.00    +0.000 A 
ATOM      8  F   UNL     1      47.351   4.842  13.528  0.00  0.00    +0.000 F 
ENDROOT
BRANCH   6   9
ATOM      9  N   UNL     1      44.872   5.051  12.097  0.00  0.00    +0.000 N 
ATOM     10  C   UNL     1      43.824   4.424  12.923  0.00  0.00    +0.000 C 
ATOM     11  C   UNL     1      43.610   2.989  12.411  0.00  0.00    +0.000 C 
ATOM     12  O   UNL     1      43.236   2.979  11.019  0.00  0.00    +0.000 OA
ATOM     13  C   UNL     1      44.254   3.610  10.219  0.00  0.00    +0.000 C 
ATOM     14  C   UNL     1      44.515   5.058  10.666  0.00  0.00    +0.000 C 
ENDBRANCH   6   9
BRANCH   1  15
ATOM     15  C   UNL     1      48.906   7.051  14.272  0.00  0.00    +0.000 C 
BRANCH  15  16
ATOM     16  O   UNL     1      48.903   7.810  15.479  0.00  0.00    +0.000 OA
BRANCH  16  20
ATOM     17  C   UNL     1      48.576   5.449  18.904  0.00  0.00    +0.000 A 
ATOM     18  C   UNL     1      48.504   6.838  19.044  0.00  0.00    +0.000 A 
ATOM     19  C   UNL     1      48.607   7.666  17.919  0.00  0.00    +0.000 A 
ATOM     20  C   UNL     1      48.789   7.111  16.649  0.00  0.00    +0.000 A 
ATOM     21  C   UNL     1      48.875   5.723  16.517  0.00  0.00    +0.000 A 
ATOM     22  C   UNL     1      48.777   4.892  17.637  0.00  0.00    +0.000 A 
BRANCH  17  24
ATOM     23  N   UNL     1      48.484   3.195  19.822  0.00  0.00    +0.000 N 
ATOM     24  C   UNL     1      48.471   4.538  20.074  0.00  0.00    +0.000 C 
ATOM     25  O   UNL     1      48.416   4.963  21.220  0.00  0.00    +0.000 OA
ATOM     26  H   UNL     1      48.526   2.590  20.633  0.00  0.00    +0.000 HD
ATOM     27  H   UNL     1      48.790   2.814  18.939  0.00  0.00    +0.000 HD
ENDBRANCH  17  24
ENDBRANCH  16  20
ENDBRANCH  15  16
ENDBRANCH   1  15
TORSDOF 5
ENDMDL
