MODEL 1
REMARK VINA RESULT:    -6.817      0.000      0.000
REMARK INTER + INTRA:          -8.907
REMARK INTER:                  -8.610
REMARK INTRA:                  -0.297
REMARK UNBOUND:                -0.297
REMARK  Name = 
REMARK  5 active torsions:
REMARK  status: ('A' for Active; 'I' for Inactive)
REMARK    1  A    between atoms: N_1  and  C_2
REMARK    2  A    between atoms: C_2  and  C_3
REMARK    3  A    between atoms: C_7  and  C_8
REMARK    4  A    between atoms: C_9  and  N_10
REMARK    5  A    between atoms: C_14  and  C_15
REMARK                            x       y       z     vdW  Elec       q    Type
REMARK                         _______ _______ _______ _____ _____    ______ ____
ROOT
ATOM      1  N   UNL     1      45.242   6.533  10.642  0.00  0.00    +0.000 N 
ATOM      2  C   UNL     1      46.004   7.211  11.596  0.00  0.00    +0.000 A 
ATOM      3  C   UNL     1      47.398   7.165  11.597  0.00  0.00    +0.000 A 
ATOM      4  C   UNL     1      48.114   7.809  12.608  0.00  0.00    +0.000 A 
ATOM      5  C   UNL     1      47.430   8.498  13.604  0.00  0.00    +0.000 A 
ATOM      6  C   UNL     1      46.046   8.527  13.509  0.00  0.00    +0.000 A 
ATOM      7  N   UNL     1      45.328   7.912  12.529  0.00  0.00    +0.000 NA
ATOM      8  H   UNL     1      44.250   6.725  10.734  0.00  0.00    +0.000 HD
ENDROOT
BRANCH   5   9
ATOM      9  C   UNL     1      48.208   9.147  14.683  0.00  0.00    +0.000 C 
ATOM     10  N   UNL     1      47.669   9.245  15.931  0.00  0.00    +0.000 N 
ATOM     11  O   UNL     1      49.335   9.585  14.473  0.00  0.00    +0.000 OA
ATOM     12  H   UNL     1      46.770   8.894  16.219  0.00  0.00    +0.000 HD
ATOM     13  H   UNL     1      48.249   9.679  16.638  0.00  0.00    +0.000 HD
ENDBRANCH   5   9
BRANCH   1  15
ATOM     14  C   UNL     1      44.829   4.496   9.364  0.00  0.00    +0.000 C 
ATOM     15  C   UNL     1      45.611   5.427   9.927  0.00  0.00    +0.000 C 
BRANCH  14  20
ATOM     16  C   UNL     1      46.684   2.615   6.664  0.00  0.00    +0.000 A 
ATOM     17  C   UNL     1      46.615   1.302   7.152  0.00  0.00    +0.000 A 
ATOM     18  C   UNL     1      45.922   1.018   8.326  0.00  0.00    +0.000 A 
ATOM     19  C   UNL     1      45.309   2.049   9.038  0.00  0.00    +0.000 A 
ATOM     20  C   UNL     1      45.395   3.376   8.594  0.00  0.00    +0.000 A 
ATOM     21  C   UNL     1      46.059   3.644   7.390  0.00  0.00    +0.000 A 
BRANCH  16  22
ATOM     22  C   UNL     1      47.473   2.929   5.418  0.00  0.00    +0.000 C 
BRANCH  22  23
ATOM     23  N   UNL     1      48.453   1.893   5.115  0.00  0.00    +0.000 NA
ATOM     24  H   UNL     1      48.601   1.864   4.109  0.00  0.00    +0.000 HD
ATOM     25  H   UNL     1      48.063   0.988   5.377  0.00  0.00    +0.000 HD
ENDBRANCH  22  23
ENDBRANCH  16  22
ENDBRANCH  14  20
ENDBRANCH   1  15
TORSDOF 5
ENDMDL
MODEL 2
REMARK VINA RESULT:    -6.221      5.380      9.698
REMARK INTER + INTRA:          -8.155
REMARK INTER:                  -7.860
REMARK INTRA:                  -0.295
REMARK UNBOUND:                -0.297
REMARK  Name = 
REMARK  5 active torsions:
REMARK  status: ('A' for Active; 'I' for Inactive)
REMARK    1  A    between atoms: N_1  and  C_2
REMARK    2  A    between atoms: C_2  and  C_3
REMARK    3  A    between atoms: C_7  and  C_8
REMARK    4  A    between atoms: C_9  and  N_10
REMARK    5  A    between atoms: C_14  and  C_15
REMARK                            x       y       z     vdW  Elec       q    Type
REMARK                         _______ _______ _______ _____ _____    ______ ____
ROOT
ATOM      1  N   UNL     1      47.199   3.542  14.786  0.00  0.00    +0.000 N 
ATOM      2  C   UNL     1      46.361   3.947  13.744  0.00  0.00    +0.000 A 
ATOM      3  C   UNL     1      46.040   5.288  13.532  0.00  0.00    +0.000 A 
ATOM      4  C   UNL     1      45.149   5.637  12.516  0.00  0.00    +0.000 A 
ATOM      5  C   UNL     1      44.592   4.644  11.718  0.00  0.00    +0.000 A 
ATOM      6  C   UNL     1      44.992   3.339  11.969  0.00  0.00    +0.000 A 
ATOM      7  N   UNL     1      45.864   2.976  12.950  0.00  0.00    +0.000 NA
ATOM      8  H   UNL     1      47.391   2.547  14.761  0.00  0.00    +0.000 HD
ENDROOT
BRANCH   5   9
ATOM      9  C   UNL     1      43.626   5.035  10.667  0.00  0.00    +0.000 C 
ATOM     10  N   UNL     1      43.822   4.609   9.386  0.00  0.00    +0.000 N 
ATOM     11  O   UNL     1      42.645   5.723  10.934  0.00  0.00    +0.000 OA
ATOM     12  H   UNL     1      44.572   4.020   9.064  0.00  0.00    +0.000 HD
ATOM     13  H   UNL     1      43.122   4.886   8.709  0.00  0.00    +0.000 HD
ENDBRANCH   5   9
BRANCH   1  15
ATOM     14  C   UNL     1      47.609   3.696  17.186  0.00  0.00    +0.000 C 
ATOM     15  C   UNL     1      47.435   4.205  15.958  0.00  0.00    +0.000 C 
BRANCH  14  20
ATOM     16  C   UNL     1      49.418   5.220  20.131  0.00  0.00    +0.000 A 
ATOM     17  C   UNL     1      48.543   6.259  20.479  0.00  0.00    +0.000 A 
ATOM     18  C   UNL     1      47.342   6.432  19.796  0.00  0.00    +0.000 A 
ATOM     19  C   UNL     1      47.014   5.582  18.740  0.00  0.00    +0.000 A 
ATOM     20  C   UNL     1      47.888   4.559  18.345  0.00  0.00    +0.000 A 
ATOM     21  C   UNL     1      49.073   4.368  19.068  0.00  0.00    +0.000 A 
BRANCH  16  22
ATOM     22  C   UNL     1      50.738   5.060  20.840  0.00  0.00    +0.000 C 
BRANCH  22  23
ATOM     23  N   UNL     1      51.675   4.243  20.077  0.00  0.00    +0.000 NA
ATOM     24  H   UNL     1      51.192   3.857  19.268  0.00  0.00    +0.000 HD
ATOM     25  H   UNL     1      51.959   3.450  20.650  0.00  0.00    +0.000 HD
ENDBRANCH  22  23
ENDBRANCH  16  22
ENDBRANCH  14  20
ENDBRANCH   1  15
TORSDOF 5
ENDMDL
MODEL 3
REMARK VINA RESULT:    -6.197      5.536      8.256
REMARK INTER + INTRA:          -8.125
REMARK INTER:                  -7.807
REMARK INTRA:                  -0.318
REMARK UNBOUND:                -0.297
REMARK  Name = 
REMARK  5 active torsions:
REMARK  status: ('A' for Active; 'I' for Inactive)
REMARK    1  A    between atoms: N_1  and  C_2
REMARK    2  A    between atoms: C_2  and  C_3
REMARK    3  A    between atoms: C_7  and  C_8
REMARK    4  A    between atoms: C_9  and  N_10
REMARK    5  A    between atoms: C_14  and  C_15
REMARK                            x       y       z     vdW  Elec       q    Type
REMARK                         _______ _______ _______ _____ _____    ______ ____
ROOT
ATOM      1  N   UNL     1      46.550   3.721  14.363  0.00  0.00    +0.000 N 
ATOM      2  C   UNL     1      46.047   4.776  13.597  0.00  0.00    +0.000 A 
ATOM      3  C   UNL     1      46.863   5.810  13.138  0.00  0.00    +0.000 A 
ATOM      4  C   UNL     1      46.303   6.874  12.429  0.00  0.00    +0.000 A 
ATOM      5  C   UNL     1      44.935   6.892  12.181  0.00  0.00    +0.000 A 
ATOM      6  C   UNL     1      44.201   5.808  12.640  0.00  0.00    +0.000 A 
ATOM      7  N   UNL     1      44.726   4.756  13.327  0.00  0.00    +0.000 NA
ATOM      8  H   UNL     1      45.847   3.017  14.556  0.00  0.00    +0.000 HD
ENDROOT
BRANCH   5   9
ATOM      9  C   UNL     1      44.358   8.046  11.455  0.00  0.00    +0.000 C 
ATOM     10  N   UNL     1      43.111   7.941  10.915  0.00  0.00    +0.000 N 
ATOM     11  O   UNL     1      44.981   9.098  11.344  0.00  0.00    +0.000 OA
ATOM     12  H   UNL     1      42.503   7.139  10.972  0.00  0.00    +0.000 HD
ATOM     13  H   UNL     1      42.754   8.764  10.446  0.00  0.00    +0.000 HD
ENDBRANCH   5   9
BRANCH   1  15
ATOM     14  C   UNL     1      47.755   3.646  16.483  0.00  0.00    +0.000 C 
ATOM     15  C   UNL     1      47.670   3.734  15.148  0.00  0.00    +0.000 C 
BRANCH  14  20
ATOM     16  C   UNL     1      51.158   2.496  17.651  0.00  0.00    +0.000 A 
ATOM     17  C   UNL     1      51.602   3.629  18.349  0.00  0.00    +0.000 A 
ATOM     18  C   UNL     1      50.779   4.743  18.489  0.00  0.00    +0.000 A 
ATOM     19  C   UNL     1      49.510   4.746  17.909  0.00  0.00    +0.000 A 
ATOM     20  C   UNL     1      49.056   3.643  17.172  0.00  0.00    +0.000 A 
ATOM     21  C   UNL     1      49.876   2.512  17.076  0.00  0.00    +0.000 A 
BRANCH  16  22
ATOM     22  C   UNL     1      52.066   1.308  17.462  0.00  0.00    +0.000 C 
BRANCH  22  23
ATOM     23  N   UNL     1      51.596   0.138  18.195  0.00  0.00    +0.000 NA
ATOM     24  H   UNL     1      52.372  -0.511  18.314  0.00  0.00    +0.000 HD
ATOM     25  H   UNL     1      50.900  -0.345  17.628  0.00  0.00    +0.000 HD
ENDBRANCH  22  23
ENDBRANCH  16  22
ENDBRANCH  14  20
ENDBRANCH   1  15
TORSDOF 5
ENDMDL
MODEL 4
REMARK VINA RESULT:    -6.141      4.988      9.456
REMARK INTER + INTRA:          -8.054
REMARK INTER:                  -7.705
REMARK INTRA:                  -0.348
REMARK UNBOUND:                -0.297
REMARK  Name = 
REMARK  5 active torsions:
REMARK  status: ('A' for Active; 'I' for Inactive)
REMARK    1  A    between atoms: N_1  and  C_2
REMARK    2  A    between atoms: C_2  and  C_3
REMARK    3  A    between atoms: C_7  and  C_8
REMARK    4  A    between atoms: C_9  and  N_10
REMARK    5  A    between atoms: C_14  and  C_15
REMARK                            x       y       z     vdW  Elec       q    Type
REMARK                         _______ _______ _______ _____ _____    ______ ____
ROOT
ATOM      1  N   UNL     1      47.273   3.320  14.680  0.00  0.00    +0.000 N 
ATOM      2  C   UNL     1      46.435   3.775  13.659  0.00  0.00    +0.000 A 
ATOM      3  C   UNL     1      46.202   5.134  13.444  0.00  0.00    +0.000 A 
ATOM      4  C   UNL     1      45.308   5.538  12.451  0.00  0.00    +0.000 A 
ATOM      5  C   UNL     1      44.659   4.581  11.679  0.00  0.00    +0.000 A 
ATOM      6  C   UNL     1      44.975   3.253  11.931  0.00  0.00    +0.000 A 
ATOM      7  N   UNL     1      45.847   2.837  12.890  0.00  0.00    +0.000 NA
ATOM      8  H   UNL     1      47.394   2.314  14.658  0.00  0.00    +0.000 HD
ENDROOT
BRANCH   5   9
ATOM      9  C   UNL     1      43.692   5.031  10.653  0.00  0.00    +0.000 C 
ATOM     10  N   UNL     1      43.870   4.654   9.355  0.00  0.00    +0.000 N 
ATOM     11  O   UNL     1      42.727   5.725  10.957  0.00  0.00    +0.000 OA
ATOM     12  H   UNL     1      44.606   4.064   9.002  0.00  0.00    +0.000 HD
ATOM     13  H   UNL     1      43.170   4.971   8.696  0.00  0.00    +0.000 HD
ENDBRANCH   5   9
BRANCH   1  15
ATOM     14  C   UNL     1      47.513   3.525  17.099  0.00  0.00    +0.000 C 
ATOM     15  C   UNL     1      47.590   3.974  15.839  0.00  0.00    +0.000 C 
BRANCH  14  20
ATOM     16  C   UNL     1      47.963   6.548  19.317  0.00  0.00    +0.000 A 
ATOM     17  C   UNL     1      48.571   5.972  20.442  0.00  0.00    +0.000 A 
ATOM     18  C   UNL     1      48.885   4.615  20.459  0.00  0.00    +0.000 A 
ATOM     19  C   UNL     1      48.572   3.815  19.361  0.00  0.00    +0.000 A 
ATOM     20  C   UNL     1      47.928   4.357  18.240  0.00  0.00    +0.000 A 
ATOM     21  C   UNL     1      47.656   5.731  18.216  0.00  0.00    +0.000 A 
BRANCH  16  22
ATOM     22  C   UNL     1      47.581   8.007  19.316  0.00  0.00    +0.000 C 
BRANCH  22  23
ATOM     23  N   UNL     1      47.525   8.556  17.966  0.00  0.00    +0.000 NA
ATOM     24  H   UNL     1      47.231   9.529  18.018  0.00  0.00    +0.000 HD
ATOM     25  H   UNL     1      46.802   8.064  17.443  0.00  0.00    +0.000 HD
ENDBRANCH  22  23
ENDBRANCH  16  22
ENDBRANCH  14  20
ENDBRANCH   1  15
TORSDOF 5
ENDMDL
MODEL 5
REMARK VINA RESULT:    -6.062      4.933      8.599
REMARK INTER + INTRA:          -7.954
REMARK INTER:                  -7.589
REMARK INTRA:                  -0.365
REMARK UNBOUND:                -0.297
REMARK  Name = 
REMARK  5 active torsions:
REMARK  status: ('A' for Active; 'I' for Inactive)
REMARK    1  A    between atoms: N_1  and  C_2
REMARK    2  A    between atoms: C_2  and  C_3
REMARK    3  A    between atoms: C_7  and  C_8
REMARK    4  A    between atoms: C_9  and  N_10
REMARK    5  A    between atoms: C_14  and  C_15
REMARK                            x       y       z     vdW  Elec       q    Type
REMARK                         _______ _______ _______ _____ _____    ______ ____
ROOT
ATOM      1  N   UNL     1      47.287   6.574  14.036  0.00  0.00    +0.000 N 
ATOM      2  C   UNL     1      46.476   5.906  13.115  0.00  0.00    +0.000 A 
ATOM      3  C   UNL     1      46.081   4.581  13.302  0.00  0.00    +0.000 A 
ATOM      4  C   UNL     1      45.322   3.937  12.323  0.00  0.00    +0.000 A 
ATOM      5  C   UNL     1      44.959   4.625  11.171  0.00  0.00    +0.000 A 
ATOM      6  C   UNL     1      45.360   5.951  11.080  0.00  0.00    +0.000 A 
ATOM      7  N   UNL     1      46.095   6.600  12.024  0.00  0.00    +0.000 NA
ATOM      8  H   UNL     1      47.424   7.548  13.792  0.00  0.00    +0.000 HD
ENDROOT
BRANCH   5   9
ATOM      9  C   UNL     1      44.180   3.914  10.133  0.00  0.00    +0.000 C 
ATOM     10  N   UNL     1      44.164   4.398   8.858  0.00  0.00    +0.000 N 
ATOM     11  O   UNL     1      43.560   2.889  10.400  0.00  0.00    +0.000 OA
ATOM     12  H   UNL     1      44.659   5.209   8.524  0.00  0.00    +0.000 HD
ATOM     13  H   UNL     1      43.634   3.864   8.182  0.00  0.00    +0.000 HD
ENDBRANCH   5   9
BRANCH   1  15
ATOM     14  C   UNL     1      48.521   6.447  16.137  0.00  0.00    +0.000 C 
ATOM     15  C   UNL     1      48.165   6.010  14.921  0.00  0.00    +0.000 C 
BRANCH  14  20
ATOM     16  C   UNL     1      50.465   3.550  17.583  0.00  0.00    +0.000 A 
ATOM     17  C   UNL     1      51.336   4.217  18.457  0.00  0.00    +0.000 A 
ATOM     18  C   UNL     1      51.256   5.598  18.619  0.00  0.00    +0.000 A 
ATOM     19  C   UNL     1      50.321   6.330  17.890  0.00  0.00    +0.000 A 
ATOM     20  C   UNL     1      49.464   5.695  16.980  0.00  0.00    +0.000 A 
ATOM     21  C   UNL     1      49.525   4.300  16.857  0.00  0.00    +0.000 A 
BRANCH  16  22
ATOM     22  C   UNL     1      50.582   2.062  17.374  0.00  0.00    +0.000 C 
BRANCH  22  23
ATOM     23  N   UNL     1      49.880   1.621  16.174  0.00  0.00    +0.000 NA
ATOM     24  H   UNL     1      49.244   0.867  16.421  0.00  0.00    +0.000 HD
ATOM     25  H   UNL     1      50.560   1.225  15.525  0.00  0.00    +0.000 HD
ENDBRANCH  22  23
ENDBRANCH  16  22
ENDBRANCH  14  20
ENDBRANCH   1  15
TORSDOF 5
ENDMDL
MODEL 6
REMARK VINA RESULT:    -5.958      5.109      8.192
REMARK INTER + INTRA:          -7.823
REMARK INTER:                  -7.436
REMARK INTRA:                  -0.387
REMARK UNBOUND:                -0.297
REMARK  Name = 
REMARK  5 active torsions:
REMARK  status: ('A' for Active; 'I' for Inactive)
REMARK    1  A    between atoms: N_1  and  C_2
REMARK    2  A    between atoms: C_2  and  C_3
REMARK    3  A    between atoms: C_7  and  C_8
REMARK    4  A    between atoms: C_9  and  N_10
REMARK    5  A    between atoms: C_14  and  C_15
REMARK                            x       y       z     vdW  Elec       q    Type
REMARK                         _______ _______ _______ _____ _____    ______ ____
ROOT
ATOM      1  N   UNL     1      45.115   9.005  11.577  0.00  0.00    +0.000 N 
ATOM      2  C   UNL     1      45.315   7.651  11.858  0.00  0.00    +0.000 A 
ATOM      3  C   UNL     1      44.413   6.670  11.448  0.00  0.00    +0.000 A 
ATOM      4  C   UNL     1      44.624   5.337  11.806  0.00  0.00    +0.000 A 
ATOM      5  C   UNL     1      45.737   4.997  12.566  0.00  0.00    +0.000 A 
ATOM      6  C   UNL     1      46.605   6.027  12.902  0.00  0.00    +0.000 A 
ATOM      7  N   UNL     1      46.422   7.332  12.558  0.00  0.00    +0.000 NA
ATOM      8  H   UNL     1      45.893   9.580  11.880  0.00  0.00    +0.000 HD
ENDROOT
BRANCH   5   9
ATOM      9  C   UNL     1      45.925   3.583  12.961  0.00  0.00    +0.000 C 
ATOM     10  N   UNL     1      45.053   2.640  12.504  0.00  0.00    +0.000 N 
ATOM     11  O   UNL     1      46.861   3.247  13.681  0.00  0.00    +0.000 OA
ATOM     12  H   UNL     1      44.273   2.799  11.888  0.00  0.00    +0.000 HD
ATOM     13  H   UNL     1      45.237   1.685  12.786  0.00  0.00    +0.000 HD
ENDBRANCH   5   9
BRANCH   1  15
ATOM     14  C   UNL     1      43.450  10.100  10.170  0.00  0.00    +0.000 C 
ATOM     15  C   UNL     1      43.922   9.628  11.332  0.00  0.00    +0.000 C 
BRANCH  14  20
ATOM     16  C   UNL     1      39.799  10.802  10.837  0.00  0.00    +0.000 A 
ATOM     17  C   UNL     1      39.592  11.942  10.046  0.00  0.00    +0.000 A 
ATOM     18  C   UNL     1      40.620  12.449   9.254  0.00  0.00    +0.000 A 
ATOM     19  C   UNL     1      41.873  11.837   9.265  0.00  0.00    +0.000 A 
ATOM     20  C   UNL     1      42.118  10.721  10.076  0.00  0.00    +0.000 A 
ATOM     21  C   UNL     1      41.065  10.193  10.835  0.00  0.00    +0.000 A 
BRANCH  16  22
ATOM     22  C   UNL     1      38.700  10.279  11.728  0.00  0.00    +0.000 C 
BRANCH  22  23
ATOM     23  N   UNL     1      38.456   8.857  11.518  0.00  0.00    +0.000 NA
ATOM     24  H   UNL     1      38.871   8.333  12.285  0.00  0.00    +0.000 HD
ATOM     25  H   UNL     1      38.943   8.563  10.671  0.00  0.00    +0.000 HD
ENDBRANCH  22  23
ENDBRANCH  16  22
ENDBRANCH  14  20
ENDBRANCH   1  15
TORSDOF 5
ENDMDL
MODEL 7
REMARK VINA RESULT:    -5.945      5.139      6.902
REMARK INTER + INTRA:          -7.807
REMARK INTER:                  -7.476
REMARK INTRA:                  -0.331
REMARK UNBOUND:                -0.297
REMARK  Name = 
REMARK  5 active torsions:
REMARK  status: ('A' for Active; 'I' for Inactive)
REMARK    1  A    between atoms: N_1  and  C_2
REMARK    2  A    between atoms: C_2  and  C_3
REMARK    3  A    between atoms: C_7  and  C_8
REMARK    4  A    between atoms: C_9  and  N_10
REMARK    5  A    between atoms: C_14  and  C_15
REMARK                            x       y       z     vdW  Elec       q    Type
REMARK                         _______ _______ _______ _____ _____    ______ ____
ROOT
ATOM      1  N   UNL     1      47.651   3.170  15.018  0.00  0.00    +0.000 N 
ATOM      2  C   UNL     1      47.977   3.421  16.353  0.00  0.00    +0.000 A 
ATOM      3  C   UNL     1      47.152   4.179  17.185  0.00  0.00    +0.000 A 
ATOM      4  C   UNL     1      47.550   4.454  18.494  0.00  0.00    +0.000 A 
ATOM      5  C   UNL     1      48.765   3.965  18.962  0.00  0.00    +0.000 A 
ATOM      6  C   UNL     1      49.508   3.189  18.083  0.00  0.00    +0.000 A 
ATOM      7  N   UNL     1      49.137   2.903  16.805  0.00  0.00    +0.000 NA
ATOM      8  H   UNL     1      48.315   2.546  14.571  0.00  0.00    +0.000 HD
ENDROOT
BRANCH   5   9
ATOM      9  C   UNL     1      49.182   4.296  20.343  0.00  0.00    +0.000 C 
ATOM     10  N   UNL     1      50.482   4.622  20.590  0.00  0.00    +0.000 N 
ATOM     11  O   UNL     1      48.371   4.293  21.264  0.00  0.00    +0.000 OA
ATOM     12  H   UNL     1      51.220   4.684  19.907  0.00  0.00    +0.000 HD
ATOM     13  H   UNL     1      50.711   4.859  21.547  0.00  0.00    +0.000 HD
ENDBRANCH   5   9
BRANCH   1  15
ATOM     14  C   UNL     1      47.005   5.196  13.823  0.00  0.00    +0.000 C 
ATOM     15  C   UNL     1      46.844   3.923  14.211  0.00  0.00    +0.000 C 
BRANCH  14  20
ATOM     16  C   UNL     1      43.916   5.774  11.728  0.00  0.00    +0.000 A 
ATOM     17  C   UNL     1      44.119   7.095  11.303  0.00  0.00    +0.000 A 
ATOM     18  C   UNL     1      45.282   7.779  11.649  0.00  0.00    +0.000 A 
ATOM     19  C   UNL     1      46.244   7.157  12.445  0.00  0.00    +0.000 A 
ATOM     20  C   UNL     1      46.048   5.851  12.917  0.00  0.00    +0.000 A 
ATOM     21  C   UNL     1      44.895   5.158  12.526  0.00  0.00    +0.000 A 
BRANCH  16  22
ATOM     22  C   UNL     1      42.637   5.049  11.392  0.00  0.00    +0.000 C 
BRANCH  22  23
ATOM     23  N   UNL     1      42.812   3.602  11.392  0.00  0.00    +0.000 NA
ATOM     24  H   UNL     1      42.176   3.192  12.073  0.00  0.00    +0.000 HD
ATOM     25  H   UNL     1      43.756   3.387  11.712  0.00  0.00    +0.000 HD
ENDBRANCH  22  23
ENDBRANCH  16  22
ENDBRANCH  14  20
ENDBRANCH   1  15
TORSDOF 5
ENDMDL
MODEL 8
REMARK VINA RESULT:    -5.795      2.023      2.886
REMARK INTER + INTRA:          -7.617
REMARK INTER:                  -7.282
REMARK INTRA:                  -0.334
REMARK UNBOUND:                -0.297
REMARK  Name = 
REMARK  5 active torsions:
REMARK  status: ('A' for Active; 'I' for Inactive)
REMARK    1  A    between atoms: N_1  and  C_2
REMARK    2  A    between atoms: C_2  and  C_3
REMARK    3  A    between atoms: C_7  and  C_8
REMARK    4  A    between atoms: C_9  and  N_10
REMARK    5  A    between atoms: C_14  and  C_15
REMARK                            x       y       z     vdW  Elec       q    Type
REMARK                         _______ _______ _______ _____ _____    ______ ____
ROOT
ATOM      1  N   UNL     1      46.271   7.259  13.200  0.00  0.00    +0.000 N 
ATOM      2  C   UNL     1      47.557   7.793  13.311  0.00  0.00    +0.000 A 
ATOM      3  C   UNL     1      48.506   7.652  12.298  0.00  0.00    +0.000 A 
ATOM      4  C   UNL     1      49.797   8.149  12.480  0.00  0.00    +0.000 A 
ATOM      5  C   UNL     1      50.127   8.787  13.671  0.00  0.00    +0.000 A 
ATOM      6  C   UNL     1      49.116   8.918  14.612  0.00  0.00    +0.000 A 
ATOM      7  N   UNL     1      47.848   8.447  14.453  0.00  0.00    +0.000 NA
ATOM      8  H   UNL     1      45.682   7.508  13.987  0.00  0.00    +0.000 HD
ENDROOT
BRANCH   5   9
ATOM      9  C   UNL     1      51.511   9.278  13.855  0.00  0.00    +0.000 C 
ATOM     10  N   UNL     1      51.721  10.596  14.137  0.00  0.00    +0.000 N 
ATOM     11  O   UNL     1      52.469   8.515  13.772  0.00  0.00    +0.000 OA
ATOM     12  H   UNL     1      51.010  11.299  14.256  0.00  0.00    +0.000 HD
ATOM     13  H   UNL     1      52.684  10.877  14.274  0.00  0.00    +0.000 HD
ENDBRANCH   5   9
BRANCH   1  15
ATOM     14  C   UNL     1      45.442   6.211  11.158  0.00  0.00    +0.000 C 
ATOM     15  C   UNL     1      45.881   6.202  12.424  0.00  0.00    +0.000 C 
BRANCH  14  20
ATOM     16  C   UNL     1      45.302   3.568   8.464  0.00  0.00    +0.000 A 
ATOM     17  C   UNL     1      44.575   2.559   9.111  0.00  0.00    +0.000 A 
ATOM     18  C   UNL     1      44.083   2.756  10.399  0.00  0.00    +0.000 A 
ATOM     19  C   UNL     1      44.335   3.956  11.064  0.00  0.00    +0.000 A 
ATOM     20  C   UNL     1      45.092   4.966  10.455  0.00  0.00    +0.000 A 
ATOM     21  C   UNL     1      45.544   4.774   9.143  0.00  0.00    +0.000 A 
BRANCH  16  22
ATOM     22  C   UNL     1      45.873   3.339   7.087  0.00  0.00    +0.000 C 
BRANCH  22  23
ATOM     23  N   UNL     1      47.043   4.171   6.835  0.00  0.00    +0.000 NA
ATOM     24  H   UNL     1      47.730   4.005   7.567  0.00  0.00    +0.000 HD
ATOM     25  H   UNL     1      46.770   5.150   6.911  0.00  0.00    +0.000 HD
ENDBRANCH  22  23
ENDBRANCH  16  22
ENDBRANCH  14  20
ENDBRANCH   1  15
TORSDOF 5
ENDMDL
MODEL 9
REMARK VINA RESULT:    -5.766      4.511      5.811
REMARK INTER + INTRA:          -7.580
REMARK INTER:                  -7.287
REMARK INTRA:                  -0.293
REMARK UNBOUND:                -0.297
REMARK  Name = 
REMARK  5 active torsions:
REMARK  status: ('A' for Active; 'I' for Inactive)
REMARK    1  A    between atoms: N_1  and  C_2
REMARK    2  A    between atoms: C_2  and  C_3
REMARK    3  A    between atoms: C_7  and  C_8
REMARK    4  A    between atoms: C_9  and  N_10
REMARK    5  A    between atoms: C_14  and  C_15
REMARK                            x       y       z     vdW  Elec       q    Type
REMARK                         _______ _______ _______ _____ _____    ______ ____
ROOT
ATOM      1  N   UNL     1      48.067   5.927  15.122  0.00  0.00    +0.000 N 
ATOM      2  C   UNL     1      48.386   5.605  16.444  0.00  0.00    +0.000 A 
ATOM      3  C   UNL     1      48.094   4.356  16.992  0.00  0.00    +0.000 A 
ATOM      4  C   UNL     1      48.376   4.102  18.335  0.00  0.00    +0.000 A 
ATOM      5  C   UNL     1      48.952   5.098  19.117  0.00  0.00    +0.000 A 
ATOM      6  C   UNL     1      49.245   6.299  18.487  0.00  0.00    +0.000 A 
ATOM      7  N   UNL     1      48.984   6.566  17.177  0.00  0.00    +0.000 NA
ATOM      8  H   UNL     1      48.408   6.844  14.857  0.00  0.00    +0.000 HD
ENDROOT
BRANCH   5   9
ATOM      9  C   UNL     1      49.213   4.818  20.547  0.00  0.00    +0.000 C 
ATOM     10  N   UNL     1      50.471   4.470  20.941  0.00  0.00    +0.000 N 
ATOM     11  O   UNL     1      48.318   4.908  21.382  0.00  0.00    +0.000 OA
ATOM     12  H   UNL     1      51.281   4.397  20.348  0.00  0.00    +0.000 HD
ATOM     13  H   UNL     1      50.602   4.309  21.932  0.00  0.00    +0.000 HD
ENDBRANCH   5   9
BRANCH   1  15
ATOM     14  C   UNL     1      46.484   5.872  13.267  0.00  0.00    +0.000 C 
ATOM     15  C   UNL     1      47.087   5.365  14.351  0.00  0.00    +0.000 C 
BRANCH  14  20
ATOM     16  C   UNL     1      44.582   4.339  10.386  0.00  0.00    +0.000 A 
ATOM     17  C   UNL     1      43.624   3.576  11.069  0.00  0.00    +0.000 A 
ATOM     18  C   UNL     1      43.559   3.601  12.460  0.00  0.00    +0.000 A 
ATOM     19  C   UNL     1      44.468   4.371  13.184  0.00  0.00    +0.000 A 
ATOM     20  C   UNL     1      45.461   5.113  12.530  0.00  0.00    +0.000 A 
ATOM     21  C   UNL     1      45.489   5.114  11.129  0.00  0.00    +0.000 A 
BRANCH  16  22
ATOM     22  C   UNL     1      44.682   4.277   8.883  0.00  0.00    +0.000 C 
BRANCH  22  23
ATOM     23  N   UNL     1      45.782   5.088   8.374  0.00  0.00    +0.000 NA
ATOM     24  H   UNL     1      46.434   5.274   9.133  0.00  0.00    +0.000 HD
ATOM     25  H   UNL     1      45.413   5.992   8.081  0.00  0.00    +0.000 HD
ENDBRANCH  22  23
ENDBRANCH  16  22
ENDBRANCH  14  20
ENDBRANCH   1  15
TORSDOF 5
ENDMDL
