MODEL 1
REMARK VINA RESULT:    -8.019      0.000      0.000
REMARK INTER + INTRA:         -12.283
REMARK INTER:                 -11.301
REMARK INTRA:                  -0.982
REMARK UNBOUND:                -0.982
REMARK  Name = 
REMARK  9 active torsions:
REMARK  status: ('A' for Active; 'I' for Inactive)
REMARK    1  A    between atoms: C_1  and  C_2
REMARK    2  A    between atoms: C_6  and  C_7
REMARK    3  A    between atoms: C_7  and  N_8
REMARK    4  A    between atoms: N_8  and  C_9
REMARK    5  A    between atoms: N_8  and  C_10
REMARK    6  A    between atoms: C_10  and  C_11
REMARK    7  A    between atoms: C_14  and  C_15
REMARK    8  A    between atoms: C_15  and  N_16
REMARK    9  A    between atoms: C_17  and  C_19
REMARK                            x       y       z     vdW  Elec       q    Type
REMARK                         _______ _______ _______ _____ _____    ______ ____
ROOT
ATOM      1  C   UNL     1      46.380   4.411  13.267  0.00  0.00    +0.000 A 
ATOM      2  C   UNL     1      46.544   3.965  14.586  0.00  0.00    +0.000 A 
ATOM      3  C   UNL     1      47.386   4.648  15.468  0.00  0.00    +0.000 A 
ATOM      4  C   UNL     1      48.073   5.795  15.049  0.00  0.00    +0.000 A 
ATOM      5  C   UNL     1      47.958   6.201  13.714  0.00  0.00    +0.000 A 
ATOM      6  C   UNL     1      47.119   5.519  12.834  0.00  0.00    +0.000 A 
ENDROOT
BRANCH   1   7
ATOM      7  C   UNL     1      45.380   3.751  12.338  0.00  0.00    +0.000 C 
BRANCH   7   8
ATOM      8  N   UNL     1      44.759   4.692  11.389  0.00  0.00    +0.000 NA
ATOM      9  C   UNL     1      43.795   5.556  12.063  0.00  0.00    +0.000 C 
BRANCH   8  10
ATOM     10  C   UNL     1      44.174   4.016  10.207  0.00  0.00    +0.000 C 
BRANCH  10  16
ATOM     11  C   UNL     1      46.683   0.429   7.722  0.00  0.00    +0.000 C 
ATOM     12  C   UNL     1      46.333   1.871   7.914  0.00  0.00    +0.000 A 
ATOM     13  C   UNL     1      46.884   2.867   7.110  0.00  0.00    +0.000 A 
ATOM     14  C   UNL     1      46.527   4.182   7.350  0.00  0.00    +0.000 A 
ATOM     15  N   UNL     1      45.674   4.564   8.323  0.00  0.00    +0.000 NA
ATOM     16  C   UNL     1      45.132   3.594   9.101  0.00  0.00    +0.000 A 
ATOM     17  C   UNL     1      45.440   2.245   8.922  0.00  0.00    +0.000 A 
ENDBRANCH  10  16
ENDBRANCH   8  10
ENDBRANCH   7   8
ENDBRANCH   1   7
BRANCH   4  18
ATOM     18  C   UNL     1      48.936   6.579  16.001  0.00  0.00    +0.000 C 
BRANCH  18  19
ATOM     19  N   UNL     1      50.024   5.776  16.496  0.00  0.00    +0.000 N 
ATOM     20  C   UNL     1      50.103   5.428  17.817  0.00  0.00    +0.000 C 
ATOM     21  O   UNL     1      49.238   5.743  18.630  0.00  0.00    +0.000 OA
ATOM     22  H   UNL     1      50.852   5.720  15.910  0.00  0.00    +0.000 HD
BRANCH  20  23
ATOM     23  C   UNL     1      51.249   4.594  18.204  0.00  0.00    +0.000 A 
ATOM     24  C   UNL     1      52.279   5.149  18.951  0.00  0.00    +0.000 A 
ATOM     25  S   UNL     1      53.497   4.029  19.370  0.00  0.00    +0.000 S 
ATOM     26  C   UNL     1      52.716   2.779  18.523  0.00  0.00    +0.000 A 
ATOM     27  N   UNL     1      53.254   1.530  18.464  0.00  0.00    +0.000 NA
ATOM     28  C   UNL     1      52.569   0.686  17.769  0.00  0.00    +0.000 A 
ATOM     29  N   UNL     1      51.391   0.978  17.125  0.00  0.00    +0.000 N 
ATOM     30  C   UNL     1      50.800   2.216  17.172  0.00  0.00    +0.000 A 
ATOM     31  O   UNL     1      49.733   2.433  16.608  0.00  0.00    +0.000 OA
ATOM     32  C   UNL     1      51.535   3.205  17.942  0.00  0.00    +0.000 A 
ATOM     33  H   UNL     1      50.898   0.269  16.603  0.00  0.00    +0.000 HD
ENDBRANCH  20  23
ENDBRANCH  18  19
ENDBRANCH   4  18
TORSDOF 7
ENDMDL
MODEL 2
REMARK VINA RESULT:    -7.921      2.570      3.090
REMARK INTER + INTRA:         -12.144
REMARK INTER:                 -11.309
REMARK INTRA:                  -0.836
REMARK UNBOUND:                -0.982
REMARK  Name = 
REMARK  9 active torsions:
REMARK  status: ('A' for Active; 'I' for Inactive)
REMARK    1  A    between atoms: C_1  and  C_2
REMARK    2  A    between atoms: C_6  and  C_7
REMARK    3  A    between atoms: C_7  and  N_8
REMARK    4  A    between atoms: N_8  and  C_9
REMARK    5  A    between atoms: N_8  and  C_10
REMARK    6  A    between atoms: C_10  and  C_11
REMARK    7  A    between atoms: C_14  and  C_15
REMARK    8  A    between atoms: C_15  and  N_16
REMARK    9  A    between atoms: C_17  and  C_19
REMARK                            x       y       z     vdW  Elec       q    Type
REMARK                         _______ _______ _______ _____ _____    ______ ____
ROOT
ATOM      1  C   UNL     1      45.842   4.993  12.740  0.00  0.00    +0.000 A 
ATOM      2  C   UNL     1      46.368   6.103  12.062  0.00  0.00    +0.000 A 
ATOM      3  C   UNL     1      47.437   6.824  12.602  0.00  0.00    +0.000 A 
ATOM      4  C   UNL     1      48.004   6.443  13.825  0.00  0.00    +0.000 A 
ATOM      5  C   UNL     1      47.437   5.376  14.530  0.00  0.00    +0.000 A 
ATOM      6  C   UNL     1      46.369   4.658  13.993  0.00  0.00    +0.000 A 
ENDROOT
BRANCH   1   7
ATOM      7  C   UNL     1      44.763   4.133  12.110  0.00  0.00    +0.000 C 
BRANCH   7   8
ATOM      8  N   UNL     1      44.267   4.667  10.829  0.00  0.00    +0.000 NA
ATOM      9  C   UNL     1      43.118   5.542  11.037  0.00  0.00    +0.000 C 
BRANCH   8  10
ATOM     10  C   UNL     1      43.991   3.607   9.832  0.00  0.00    +0.000 C 
BRANCH  10  16
ATOM     11  C   UNL     1      46.930   0.218   7.549  0.00  0.00    +0.000 C 
ATOM     12  C   UNL     1      46.510   1.639   7.759  0.00  0.00    +0.000 A 
ATOM     13  C   UNL     1      47.133   2.689   7.086  0.00  0.00    +0.000 A 
ATOM     14  C   UNL     1      46.703   3.980   7.337  0.00  0.00    +0.000 A 
ATOM     15  N   UNL     1      45.713   4.290   8.200  0.00  0.00    +0.000 NA
ATOM     16  C   UNL     1      45.103   3.267   8.849  0.00  0.00    +0.000 A 
ATOM     17  C   UNL     1      45.477   1.937   8.651  0.00  0.00    +0.000 A 
ENDBRANCH  10  16
ENDBRANCH   8  10
ENDBRANCH   7   8
ENDBRANCH   1   7
BRANCH   4  18
ATOM     18  C   UNL     1      49.194   7.169  14.391  0.00  0.00    +0.000 C 
BRANCH  18  19
ATOM     19  N   UNL     1      49.081   7.316  15.819  0.00  0.00    +0.000 N 
ATOM     20  C   UNL     1      49.897   6.620  16.670  0.00  0.00    +0.000 C 
ATOM     21  O   UNL     1      50.784   5.874  16.263  0.00  0.00    +0.000 OA
ATOM     22  H   UNL     1      48.218   7.721  16.169  0.00  0.00    +0.000 HD
BRANCH  20  23
ATOM     23  C   UNL     1      49.701   6.863  18.105  0.00  0.00    +0.000 A 
ATOM     24  C   UNL     1      49.940   8.128  18.625  0.00  0.00    +0.000 A 
ATOM     25  S   UNL     1      49.600   8.256  20.292  0.00  0.00    +0.000 S 
ATOM     26  C   UNL     1      49.173   6.612  20.387  0.00  0.00    +0.000 A 
ATOM     27  N   UNL     1      48.792   6.055  21.569  0.00  0.00    +0.000 NA
ATOM     28  C   UNL     1      48.518   4.795  21.501  0.00  0.00    +0.000 A 
ATOM     29  N   UNL     1      48.592   4.041  20.355  0.00  0.00    +0.000 N 
ATOM     30  C   UNL     1      48.952   4.562  19.138  0.00  0.00    +0.000 A 
ATOM     31  O   UNL     1      48.979   3.864  18.130  0.00  0.00    +0.000 OA
ATOM     32  C   UNL     1      49.272   5.980  19.161  0.00  0.00    +0.000 A 
ATOM     33  H   UNL     1      48.357   3.060  20.367  0.00  0.00    +0.000 HD
ENDBRANCH  20  23
ENDBRANCH  18  19
ENDBRANCH   4  18
TORSDOF 7
ENDMDL
MODEL 3
REMARK VINA RESULT:    -7.804      1.748      2.248
REMARK INTER + INTRA:         -11.980
REMARK INTER:                 -10.918
REMARK INTRA:                  -1.062
REMARK UNBOUND:                -0.982
REMARK  Name = 
REMARK  9 active torsions:
REMARK  status: ('A' for Active; 'I' for Inactive)
REMARK    1  A    between atoms: C_1  and  C_2
REMARK    2  A    between atoms: C_6  and  C_7
REMARK    3  A    between atoms: C_7  and  N_8
REMARK    4  A    between atoms: N_8  and  C_9
REMARK    5  A    between atoms: N_8  and  C_10
REMARK    6  A    between atoms: C_10  and  C_11
REMARK    7  A    between atoms: C_14  and  C_15
REMARK    8  A    between atoms: C_15  and  N_16
REMARK    9  A    between atoms: C_17  and  C_19
REMARK                            x       y       z     vdW  Elec       q    Type
REMARK                         _______ _______ _______ _____ _____    ______ ____
ROOT
ATOM      1  C   UNL     1      46.224   5.364  12.424  0.00  0.00    +0.000 A 
ATOM      2  C   UNL     1      46.649   6.405  11.585  0.00  0.00    +0.000 A 
ATOM      3  C   UNL     1      47.641   7.296  12.004  0.00  0.00    +0.000 A 
ATOM      4  C   UNL     1      48.232   7.158  13.267  0.00  0.00    +0.000 A 
ATOM      5  C   UNL     1      47.762   6.159  14.128  0.00  0.00    +0.000 A 
ATOM      6  C   UNL     1      46.771   5.271  13.710  0.00  0.00    +0.000 A 
ENDROOT
BRANCH   1   7
ATOM      7  C   UNL     1      45.236   4.321  11.937  0.00  0.00    +0.000 C 
BRANCH   7   8
ATOM      8  N   UNL     1      44.358   4.811  10.860  0.00  0.00    +0.000 NA
ATOM      9  C   UNL     1      43.171   5.460  11.406  0.00  0.00    +0.000 C 
BRANCH   8  10
ATOM     10  C   UNL     1      44.018   3.760   9.872  0.00  0.00    +0.000 C 
BRANCH  10  16
ATOM     11  C   UNL     1      46.840   0.229   7.658  0.00  0.00    +0.000 C 
ATOM     12  C   UNL     1      46.450   1.666   7.821  0.00  0.00    +0.000 A 
ATOM     13  C   UNL     1      47.074   2.676   7.092  0.00  0.00    +0.000 A 
ATOM     14  C   UNL     1      46.674   3.984   7.300  0.00  0.00    +0.000 A 
ATOM     15  N   UNL     1      45.711   4.346   8.174  0.00  0.00    +0.000 NA
ATOM     16  C   UNL     1      45.099   3.361   8.878  0.00  0.00    +0.000 A 
ATOM     17  C   UNL     1      45.445   2.018   8.724  0.00  0.00    +0.000 A 
ENDBRANCH  10  16
ENDBRANCH   8  10
ENDBRANCH   7   8
ENDBRANCH   1   7
BRANCH   4  18
ATOM     18  C   UNL     1      49.344   8.069  13.711  0.00  0.00    +0.000 C 
BRANCH  18  19
ATOM     19  N   UNL     1      50.390   7.329  14.367  0.00  0.00    +0.000 N 
ATOM     20  C   UNL     1      50.677   7.528  15.691  0.00  0.00    +0.000 C 
ATOM     21  O   UNL     1      50.035   8.309  16.389  0.00  0.00    +0.000 OA
ATOM     22  H   UNL     1      51.074   6.878  13.766  0.00  0.00    +0.000 HD
BRANCH  20  23
ATOM     23  C   UNL     1      51.754   6.705  16.255  0.00  0.00    +0.000 A 
ATOM     24  C   UNL     1      53.074   7.116  16.119  0.00  0.00    +0.000 A 
ATOM     25  S   UNL     1      54.193   6.083  16.887  0.00  0.00    +0.000 S 
ATOM     26  C   UNL     1      52.958   5.024  17.383  0.00  0.00    +0.000 A 
ATOM     27  N   UNL     1      53.245   3.895  18.086  0.00  0.00    +0.000 NA
ATOM     28  C   UNL     1      52.216   3.171  18.376  0.00  0.00    +0.000 A 
ATOM     29  N   UNL     1      50.923   3.476  18.025  0.00  0.00    +0.000 N 
ATOM     30  C   UNL     1      50.583   4.611  17.334  0.00  0.00    +0.000 A 
ATOM     31  O   UNL     1      49.414   4.866  17.063  0.00  0.00    +0.000 OA
ATOM     32  C   UNL     1      51.709   5.461  16.982  0.00  0.00    +0.000 A 
ATOM     33  H   UNL     1      50.160   2.871  18.290  0.00  0.00    +0.000 HD
ENDBRANCH  20  23
ENDBRANCH  18  19
ENDBRANCH   4  18
TORSDOF 7
ENDMDL
MODEL 4
REMARK VINA RESULT:    -7.635      3.875      8.949
REMARK INTER + INTRA:         -11.741
REMARK INTER:                 -10.212
REMARK INTRA:                  -1.529
REMARK UNBOUND:                -0.982
REMARK  Name = 
REMARK  9 active torsions:
REMARK  status: ('A' for Active; 'I' for Inactive)
REMARK    1  A    between atoms: C_1  and  C_2
REMARK    2  A    between atoms: C_6  and  C_7
REMARK    3  A    between atoms: C_7  and  N_8
REMARK    4  A    between atoms: N_8  and  C_9
REMARK    5  A    between atoms: N_8  and  C_10
REMARK    6  A    between atoms: C_10  and  C_11
REMARK    7  A    between atoms: C_14  and  C_15
REMARK    8  A    between atoms: C_15  and  N_16
REMARK    9  A    between atoms: C_17  and  C_19
REMARK                            x       y       z     vdW  Elec       q    Type
REMARK                         _______ _______ _______ _____ _____    ______ ____
ROOT
ATOM      1  C   UNL     1      49.118   8.234  15.924  0.00  0.00    +0.000 A 
ATOM      2  C   UNL     1      48.360   9.250  15.323  0.00  0.00    +0.000 A 
ATOM      3  C   UNL     1      47.939   9.133  13.996  0.00  0.00    +0.000 A 
ATOM      4  C   UNL     1      48.260   7.993  13.247  0.00  0.00    +0.000 A 
ATOM      5  C   UNL     1      49.070   7.010  13.827  0.00  0.00    +0.000 A 
ATOM      6  C   UNL     1      49.492   7.128  15.151  0.00  0.00    +0.000 A 
ENDROOT
BRANCH   1   7
ATOM      7  C   UNL     1      49.479   8.295  17.395  0.00  0.00    +0.000 C 
BRANCH   7   8
ATOM      8  N   UNL     1      48.523   7.578  18.258  0.00  0.00    +0.000 NA
ATOM      9  C   UNL     1      47.955   8.470  19.264  0.00  0.00    +0.000 C 
BRANCH   8  10
ATOM     10  C   UNL     1      49.098   6.351  18.859  0.00  0.00    +0.000 C 
BRANCH  10  16
ATOM     11  C   UNL     1      50.664   1.889  17.134  0.00  0.00    +0.000 C 
ATOM     12  C   UNL     1      49.573   2.896  17.326  0.00  0.00    +0.000 A 
ATOM     13  C   UNL     1      48.283   2.671  16.849  0.00  0.00    +0.000 A 
ATOM     14  C   UNL     1      47.325   3.649  17.049  0.00  0.00    +0.000 A 
ATOM     15  N   UNL     1      47.563   4.817  17.681  0.00  0.00    +0.000 NA
ATOM     16  C   UNL     1      48.817   5.032  18.152  0.00  0.00    +0.000 A 
ATOM     17  C   UNL     1      49.839   4.096  17.990  0.00  0.00    +0.000 A 
ENDBRANCH  10  16
ENDBRANCH   8  10
ENDBRANCH   7   8
ENDBRANCH   1   7
BRANCH   4  18
ATOM     18  C   UNL     1      47.763   7.820  11.838  0.00  0.00    +0.000 C 
BRANCH  18  19
ATOM     19  N   UNL     1      47.041   6.584  11.689  0.00  0.00    +0.000 N 
ATOM     20  C   UNL     1      45.673   6.554  11.715  0.00  0.00    +0.000 C 
ATOM     21  O   UNL     1      44.998   7.574  11.825  0.00  0.00    +0.000 OA
ATOM     22  H   UNL     1      47.566   5.728  11.845  0.00  0.00    +0.000 HD
BRANCH  20  23
ATOM     23  C   UNL     1      45.046   5.237  11.537  0.00  0.00    +0.000 A 
ATOM     24  C   UNL     1      44.372   4.650  12.599  0.00  0.00    +0.000 A 
ATOM     25  S   UNL     1      43.647   3.157  12.205  0.00  0.00    +0.000 S 
ATOM     26  C   UNL     1      44.255   3.218  10.618  0.00  0.00    +0.000 A 
ATOM     27  N   UNL     1      44.012   2.211   9.736  0.00  0.00    +0.000 NA
ATOM     28  C   UNL     1      44.552   2.377   8.575  0.00  0.00    +0.000 A 
ATOM     29  N   UNL     1      45.316   3.461   8.217  0.00  0.00    +0.000 N 
ATOM     30  C   UNL     1      45.572   4.509   9.065  0.00  0.00    +0.000 A 
ATOM     31  O   UNL     1      46.235   5.474   8.701  0.00  0.00    +0.000 OA
ATOM     32  C   UNL     1      44.986   4.370  10.387  0.00  0.00    +0.000 A 
ATOM     33  H   UNL     1      45.704   3.535   7.288  0.00  0.00    +0.000 HD
ENDBRANCH  20  23
ENDBRANCH  18  19
ENDBRANCH   4  18
TORSDOF 7
ENDMDL
MODEL 5
REMARK VINA RESULT:    -7.307      5.129      6.796
REMARK INTER + INTRA:         -11.279
REMARK INTER:                 -10.120
REMARK INTRA:                  -1.158
REMARK UNBOUND:                -0.982
REMARK  Name = 
REMARK  9 active torsions:
REMARK  status: ('A' for Active; 'I' for Inactive)
REMARK    1  A    between atoms: C_1  and  C_2
REMARK    2  A    between atoms: C_6  and  C_7
REMARK    3  A    between atoms: C_7  and  N_8
REMARK    4  A    between atoms: N_8  and  C_9
REMARK    5  A    between atoms: N_8  and  C_10
REMARK    6  A    between atoms: C_10  and  C_11
REMARK    7  A    between atoms: C_14  and  C_15
REMARK    8  A    between atoms: C_15  and  N_16
REMARK    9  A    between atoms: C_17  and  C_19
REMARK                            x       y       z     vdW  Elec       q    Type
REMARK                         _______ _______ _______ _____ _____    ______ ____
ROOT
ATOM      1  C   UNL     1      46.225   5.448  12.354  0.00  0.00    +0.000 A 
ATOM      2  C   UNL     1      46.604   6.421  11.417  0.00  0.00    +0.000 A 
ATOM      3  C   UNL     1      47.692   7.262  11.666  0.00  0.00    +0.000 A 
ATOM      4  C   UNL     1      48.427   7.140  12.853  0.00  0.00    +0.000 A 
ATOM      5  C   UNL     1      48.008   6.213  13.815  0.00  0.00    +0.000 A 
ATOM      6  C   UNL     1      46.921   5.375  13.567  0.00  0.00    +0.000 A 
ENDROOT
BRANCH   1   7
ATOM      7  C   UNL     1      45.124   4.452  12.045  0.00  0.00    +0.000 C 
BRANCH   7   8
ATOM      8  N   UNL     1      44.284   4.852  10.901  0.00  0.00    +0.000 NA
ATOM      9  C   UNL     1      43.075   5.534  11.352  0.00  0.00    +0.000 C 
BRANCH   8  10
ATOM     10  C   UNL     1      43.983   3.725   9.987  0.00  0.00    +0.000 C 
BRANCH  10  16
ATOM     11  C   UNL     1      46.801   0.249   7.681  0.00  0.00    +0.000 C 
ATOM     12  C   UNL     1      46.401   1.679   7.869  0.00  0.00    +0.000 A 
ATOM     13  C   UNL     1      47.003   2.704   7.142  0.00  0.00    +0.000 A 
ATOM     14  C   UNL     1      46.594   4.006   7.374  0.00  0.00    +0.000 A 
ATOM     15  N   UNL     1      45.643   4.348   8.268  0.00  0.00    +0.000 NA
ATOM     16  C   UNL     1      45.052   3.348   8.970  0.00  0.00    +0.000 A 
ATOM     17  C   UNL     1      45.408   2.011   8.793  0.00  0.00    +0.000 A 
ENDBRANCH  10  16
ENDBRANCH   8  10
ENDBRANCH   7   8
ENDBRANCH   1   7
BRANCH   4  18
ATOM     18  C   UNL     1      49.638   7.994  13.112  0.00  0.00    +0.000 C 
BRANCH  18  19
ATOM     19  N   UNL     1      50.219   8.459  11.879  0.00  0.00    +0.000 N 
ATOM     20  C   UNL     1      51.387   9.171  11.870  0.00  0.00    +0.000 C 
ATOM     21  O   UNL     1      52.014   9.413  12.898  0.00  0.00    +0.000 OA
ATOM     22  H   UNL     1      49.607   8.486  11.069  0.00  0.00    +0.000 HD
BRANCH  20  23
ATOM     23  C   UNL     1      51.893   9.578  10.552  0.00  0.00    +0.000 A 
ATOM     24  C   UNL     1      51.866  10.918  10.192  0.00  0.00    +0.000 A 
ATOM     25  S   UNL     1      52.550  11.226   8.659  0.00  0.00    +0.000 S 
ATOM     26  C   UNL     1      52.856   9.573   8.403  0.00  0.00    +0.000 A 
ATOM     27  N   UNL     1      53.426   9.138   7.247  0.00  0.00    +0.000 NA
ATOM     28  C   UNL     1      53.580   7.859   7.176  0.00  0.00    +0.000 A 
ATOM     29  N   UNL     1      53.213   6.973   8.160  0.00  0.00    +0.000 N 
ATOM     30  C   UNL     1      52.653   7.365   9.349  0.00  0.00    +0.000 A 
ATOM     31  O   UNL     1      52.364   6.548  10.217  0.00  0.00    +0.000 OA
ATOM     32  C   UNL     1      52.458   8.800   9.478  0.00  0.00    +0.000 A 
ATOM     33  H   UNL     1      53.367   5.982   8.046  0.00  0.00    +0.000 HD
ENDBRANCH  20  23
ENDBRANCH  18  19
ENDBRANCH   4  18
TORSDOF 7
ENDMDL
MODEL 6
REMARK VINA RESULT:    -7.105      4.089      8.539
REMARK INTER + INTRA:         -10.995
REMARK INTER:                 -10.127
REMARK INTRA:                  -0.868
REMARK UNBOUND:                -0.982
REMARK  Name = 
REMARK  9 active torsions:
REMARK  status: ('A' for Active; 'I' for Inactive)
REMARK    1  A    between atoms: C_1  and  C_2
REMARK    2  A    between atoms: C_6  and  C_7
REMARK    3  A    between atoms: C_7  and  N_8
REMARK    4  A    between atoms: N_8  and  C_9
REMARK    5  A    between atoms: N_8  and  C_10
REMARK    6  A    between atoms: C_10  and  C_11
REMARK    7  A    between atoms: C_14  and  C_15
REMARK    8  A    between atoms: C_15  and  N_16
REMARK    9  A    between atoms: C_17  and  C_19
REMARK                            x       y       z     vdW  Elec       q    Type
REMARK                         _______ _______ _______ _____ _____    ______ ____
ROOT
ATOM      1  C   UNL     1      49.385   8.213  17.351  0.00  0.00    +0.000 A 
ATOM      2  C   UNL     1      48.469   8.885  16.529  0.00  0.00    +0.000 A 
ATOM      3  C   UNL     1      48.492   8.705  15.143  0.00  0.00    +0.000 A 
ATOM      4  C   UNL     1      49.426   7.843  14.555  0.00  0.00    +0.000 A 
ATOM      5  C   UNL     1      50.381   7.224  15.370  0.00  0.00    +0.000 A 
ATOM      6  C   UNL     1      50.360   7.405  16.753  0.00  0.00    +0.000 A 
ENDROOT
BRANCH   1   7
ATOM      7  C   UNL     1      49.294   8.307  18.862  0.00  0.00    +0.000 C 
BRANCH   7   8
ATOM      8  N   UNL     1      48.282   7.406  19.441  0.00  0.00    +0.000 NA
ATOM      9  C   UNL     1      47.647   8.011  20.607  0.00  0.00    +0.000 C 
BRANCH   8  10
ATOM     10  C   UNL     1      48.814   6.054  19.731  0.00  0.00    +0.000 C 
BRANCH  10  16
ATOM     11  C   UNL     1      50.364   2.028  17.138  0.00  0.00    +0.000 C 
ATOM     12  C   UNL     1      49.307   3.039  17.455  0.00  0.00    +0.000 A 
ATOM     13  C   UNL     1      48.076   3.033  16.802  0.00  0.00    +0.000 A 
ATOM     14  C   UNL     1      47.148   4.004  17.134  0.00  0.00    +0.000 A 
ATOM     15  N   UNL     1      47.363   4.966  18.055  0.00  0.00    +0.000 NA
ATOM     16  C   UNL     1      48.559   4.967  18.696  0.00  0.00    +0.000 A 
ATOM     17  C   UNL     1      49.547   4.021  18.419  0.00  0.00    +0.000 A 
ENDBRANCH  10  16
ENDBRANCH   8  10
ENDBRANCH   7   8
ENDBRANCH   1   7
BRANCH   4  18
ATOM     18  C   UNL     1      49.427   7.588  13.072  0.00  0.00    +0.000 C 
BRANCH  18  19
ATOM     19  N   UNL     1      48.102   7.288  12.596  0.00  0.00    +0.000 N 
ATOM     20  C   UNL     1      47.500   6.093  12.882  0.00  0.00    +0.000 C 
ATOM     21  O   UNL     1      48.037   5.241  13.586  0.00  0.00    +0.000 OA
ATOM     22  H   UNL     1      47.754   7.856  11.830  0.00  0.00    +0.000 HD
BRANCH  20  23
ATOM     23  C   UNL     1      46.141   5.905  12.357  0.00  0.00    +0.000 A 
ATOM     24  C   UNL     1      45.455   6.991  11.829  0.00  0.00    +0.000 A 
ATOM     25  S   UNL     1      43.920   6.588  11.203  0.00  0.00    +0.000 S 
ATOM     26  C   UNL     1      44.098   4.960  11.663  0.00  0.00    +0.000 A 
ATOM     27  N   UNL     1      43.109   4.055  11.431  0.00  0.00    +0.000 NA
ATOM     28  C   UNL     1      43.368   2.863  11.853  0.00  0.00    +0.000 A 
ATOM     29  N   UNL     1      44.529   2.494  12.488  0.00  0.00    +0.000 N 
ATOM     30  C   UNL     1      45.561   3.366  12.727  0.00  0.00    +0.000 A 
ATOM     31  O   UNL     1      46.595   2.995  13.271  0.00  0.00    +0.000 OA
ATOM     32  C   UNL     1      45.318   4.725  12.271  0.00  0.00    +0.000 A 
ATOM     33  H   UNL     1      44.673   1.541  12.787  0.00  0.00    +0.000 HD
ENDBRANCH  20  23
ENDBRANCH  18  19
ENDBRANCH   4  18
TORSDOF 7
ENDMDL
MODEL 7
REMARK VINA RESULT:    -6.423      6.277      8.080
REMARK INTER + INTRA:         -10.033
REMARK INTER:                  -9.045
REMARK INTRA:                  -0.988
REMARK UNBOUND:                -0.982
REMARK  Name = 
REMARK  9 active torsions:
REMARK  status: ('A' for Active; 'I' for Inactive)
REMARK    1  A    between atoms: C_1  and  C_2
REMARK    2  A    between atoms: C_6  and  C_7
REMARK    3  A    between atoms: C_7  and  N_8
REMARK    4  A    between atoms: N_8  and  C_9
REMARK    5  A    between atoms: N_8  and  C_10
REMARK    6  A    between atoms: C_10  and  C_11
REMARK    7  A    between atoms: C_14  and  C_15
REMARK    8  A    between atoms: C_15  and  N_16
REMARK    9  A    between atoms: C_17  and  C_19
REMARK                            x       y       z     vdW  Elec       q    Type
REMARK                         _______ _______ _______ _____ _____    ______ ____
ROOT
ATOM      1  C   UNL     1      47.899   8.505  12.317  0.00  0.00    +0.000 A 
ATOM      2  C   UNL     1      48.755   7.433  12.026  0.00  0.00    +0.000 A 
ATOM      3  C   UNL     1      50.058   7.666  11.575  0.00  0.00    +0.000 A 
ATOM      4  C   UNL     1      50.530   8.975  11.415  0.00  0.00    +0.000 A 
ATOM      5  C   UNL     1      49.654  10.042  11.643  0.00  0.00    +0.000 A 
ATOM      6  C   UNL     1      48.354   9.810  12.091  0.00  0.00    +0.000 A 
ENDROOT
BRANCH   1   7
ATOM      7  C   UNL     1      46.527   8.268  12.918  0.00  0.00    +0.000 C 
BRANCH   7   8
ATOM      8  N   UNL     1      45.591   7.610  11.990  0.00  0.00    +0.000 NA
ATOM      9  C   UNL     1      44.686   8.581  11.383  0.00  0.00    +0.000 C 
BRANCH   8  10
ATOM     10  C   UNL     1      44.863   6.479  12.612  0.00  0.00    +0.000 C 
BRANCH  10  16
ATOM     11  C   UNL     1      45.381   4.019   8.251  0.00  0.00    +0.000 C 
ATOM     12  C   UNL     1      44.885   4.067   9.663  0.00  0.00    +0.000 A 
ATOM     13  C   UNL     1      44.185   3.001  10.225  0.00  0.00    +0.000 A 
ATOM     14  C   UNL     1      43.743   3.117  11.531  0.00  0.00    +0.000 A 
ATOM     15  N   UNL     1      43.947   4.207  12.300  0.00  0.00    +0.000 NA
ATOM     16  C   UNL     1      44.635   5.241  11.755  0.00  0.00    +0.000 A 
ATOM     17  C   UNL     1      45.114   5.202  10.445  0.00  0.00    +0.000 A 
ENDBRANCH  10  16
ENDBRANCH   8  10
ENDBRANCH   7   8
ENDBRANCH   1   7
BRANCH   4  18
ATOM     18  C   UNL     1      51.948   9.245  10.990  0.00  0.00    +0.000 C 
BRANCH  18  19
ATOM     19  N   UNL     1      52.244   8.608   9.733  0.00  0.00    +0.000 N 
ATOM     20  C   UNL     1      53.427   8.836   9.084  0.00  0.00    +0.000 C 
ATOM     21  O   UNL     1      54.304   9.556   9.555  0.00  0.00    +0.000 OA
ATOM     22  H   UNL     1      51.456   8.221   9.222  0.00  0.00    +0.000 HD
BRANCH  20  23
ATOM     23  C   UNL     1      53.625   8.118   7.818  0.00  0.00    +0.000 A 
ATOM     24  C   UNL     1      53.741   8.835   6.635  0.00  0.00    +0.000 A 
ATOM     25  S   UNL     1      54.033   7.855   5.269  0.00  0.00    +0.000 S 
ATOM     26  C   UNL     1      53.961   6.436   6.205  0.00  0.00    +0.000 A 
ATOM     27  N   UNL     1      54.115   5.211   5.631  0.00  0.00    +0.000 NA
ATOM     28  C   UNL     1      54.015   4.221   6.453  0.00  0.00    +0.000 A 
ATOM     29  N   UNL     1      53.774   4.346   7.800  0.00  0.00    +0.000 N 
ATOM     30  C   UNL     1      53.631   5.559   8.426  0.00  0.00    +0.000 A 
ATOM     31  O   UNL     1      53.446   5.633   9.636  0.00  0.00    +0.000 OA
ATOM     32  C   UNL     1      53.735   6.708   7.542  0.00  0.00    +0.000 A 
ATOM     33  H   UNL     1      53.714   3.530   8.392  0.00  0.00    +0.000 HD
ENDBRANCH  20  23
ENDBRANCH  18  19
ENDBRANCH   4  18
TORSDOF 7
ENDMDL
MODEL 8
REMARK VINA RESULT:    -6.196      3.015      4.589
REMARK INTER + INTRA:          -9.714
REMARK INTER:                  -8.397
REMARK INTRA:                  -1.316
REMARK UNBOUND:                -0.982
REMARK  Name = 
REMARK  9 active torsions:
REMARK  status: ('A' for Active; 'I' for Inactive)
REMARK    1  A    between atoms: C_1  and  C_2
REMARK    2  A    between atoms: C_6  and  C_7
REMARK    3  A    between atoms: C_7  and  N_8
REMARK    4  A    between atoms: N_8  and  C_9
REMARK    5  A    between atoms: N_8  and  C_10
REMARK    6  A    between atoms: C_10  and  C_11
REMARK    7  A    between atoms: C_14  and  C_15
REMARK    8  A    between atoms: C_15  and  N_16
REMARK    9  A    between atoms: C_17  and  C_19
REMARK                            x       y       z     vdW  Elec       q    Type
REMARK                         _______ _______ _______ _____ _____    ______ ____
ROOT
ATOM      1  C   UNL     1      47.852   9.829  12.275  0.00  0.00    +0.000 A 
ATOM      2  C   UNL     1      48.460   8.676  11.758  0.00  0.00    +0.000 A 
ATOM      3  C   UNL     1      49.579   8.121  12.384  0.00  0.00    +0.000 A 
ATOM      4  C   UNL     1      50.106   8.705  13.544  0.00  0.00    +0.000 A 
ATOM      5  C   UNL     1      49.539   9.893  14.021  0.00  0.00    +0.000 A 
ATOM      6  C   UNL     1      48.422  10.447  13.395  0.00  0.00    +0.000 A 
ENDROOT
BRANCH   1   7
ATOM      7  C   UNL     1      46.568  10.372  11.675  0.00  0.00    +0.000 C 
BRANCH   7   8
ATOM      8  N   UNL     1      45.473   9.386  11.659  0.00  0.00    +0.000 NA
ATOM      9  C   UNL     1      44.173  10.048  11.646  0.00  0.00    +0.000 C 
BRANCH   8  10
ATOM     10  C   UNL     1      45.582   8.387  12.749  0.00  0.00    +0.000 C 
BRANCH  10  16
ATOM     11  C   UNL     1      45.386   4.704   9.324  0.00  0.00    +0.000 C 
ATOM     12  C   UNL     1      45.243   5.169  10.740  0.00  0.00    +0.000 A 
ATOM     13  C   UNL     1      44.862   4.295  11.756  0.00  0.00    +0.000 A 
ATOM     14  C   UNL     1      44.736   4.793  13.041  0.00  0.00    +0.000 A 
ATOM     15  N   UNL     1      44.959   6.081  13.374  0.00  0.00    +0.000 NA
ATOM     16  C   UNL     1      45.336   6.929  12.385  0.00  0.00    +0.000 A 
ATOM     17  C   UNL     1      45.486   6.505  11.064  0.00  0.00    +0.000 A 
ENDBRANCH  10  16
ENDBRANCH   8  10
ENDBRANCH   7   8
ENDBRANCH   1   7
BRANCH   4  18
ATOM     18  C   UNL     1      51.273   8.088  14.267  0.00  0.00    +0.000 C 
BRANCH  18  19
ATOM     19  N   UNL     1      50.836   7.056  15.170  0.00  0.00    +0.000 N 
ATOM     20  C   UNL     1      50.517   7.339  16.470  0.00  0.00    +0.000 C 
ATOM     21  O   UNL     1      50.546   8.483  16.917  0.00  0.00    +0.000 OA
ATOM     22  H   UNL     1      51.040   6.098  14.899  0.00  0.00    +0.000 HD
BRANCH  20  23
ATOM     23  C   UNL     1      50.069   6.208  17.293  0.00  0.00    +0.000 A 
ATOM     24  C   UNL     1      50.685   5.962  18.513  0.00  0.00    +0.000 A 
ATOM     25  S   UNL     1      50.001   4.655  19.370  0.00  0.00    +0.000 S 
ATOM     26  C   UNL     1      48.894   4.340  18.118  0.00  0.00    +0.000 A 
ATOM     27  N   UNL     1      48.008   3.312  18.208  0.00  0.00    +0.000 NA
ATOM     28  C   UNL     1      47.244   3.174  17.177  0.00  0.00    +0.000 A 
ATOM     29  N   UNL     1      47.287   3.973  16.061  0.00  0.00    +0.000 N 
ATOM     30  C   UNL     1      48.149   5.032  15.932  0.00  0.00    +0.000 A 
ATOM     31  O   UNL     1      48.140   5.742  14.932  0.00  0.00    +0.000 OA
ATOM     32  C   UNL     1      49.034   5.230  17.068  0.00  0.00    +0.000 A 
ATOM     33  H   UNL     1      46.656   3.817  15.289  0.00  0.00    +0.000 HD
ENDBRANCH  20  23
ENDBRANCH  18  19
ENDBRANCH   4  18
TORSDOF 7
ENDMDL
MODEL 9
REMARK VINA RESULT:    -6.002      2.533      3.201
REMARK INTER + INTRA:          -9.440
REMARK INTER:                  -8.662
REMARK INTRA:                  -0.778
REMARK UNBOUND:                -0.982
REMARK  Name = 
REMARK  9 active torsions:
REMARK  status: ('A' for Active; 'I' for Inactive)
REMARK    1  A    between atoms: C_1  and  C_2
REMARK    2  A    between atoms: C_6  and  C_7
REMARK    3  A    between atoms: C_7  and  N_8
REMARK    4  A    between atoms: N_8  and  C_9
REMARK    5  A    between atoms: N_8  and  C_10
REMARK    6  A    between atoms: C_10  and  C_11
REMARK    7  A    between atoms: C_14  and  C_15
REMARK    8  A    between atoms: C_15  and  N_16
REMARK    9  A    between atoms: C_17  and  C_19
REMARK                            x       y       z     vdW  Elec       q    Type
REMARK                         _______ _______ _______ _____ _____    ______ ____
ROOT
ATOM      1  C   UNL     1      47.533   6.120  12.926  0.00  0.00    +0.000 A 
ATOM      2  C   UNL     1      47.695   6.011  14.315  0.00  0.00    +0.000 A 
ATOM      3  C   UNL     1      48.737   6.680  14.963  0.00  0.00    +0.000 A 
ATOM      4  C   UNL     1      49.631   7.476  14.236  0.00  0.00    +0.000 A 
ATOM      5  C   UNL     1      49.507   7.532  12.843  0.00  0.00    +0.000 A 
ATOM      6  C   UNL     1      48.469   6.863  12.195  0.00  0.00    +0.000 A 
ENDROOT
BRANCH   1   7
ATOM      7  C   UNL     1      46.340   5.497  12.227  0.00  0.00    +0.000 C 
BRANCH   7   8
ATOM      8  N   UNL     1      45.508   6.481  11.511  0.00  0.00    +0.000 NA
ATOM      9  C   UNL     1      45.089   7.559  12.400  0.00  0.00    +0.000 C 
BRANCH   8  10
ATOM     10  C   UNL     1      44.363   5.860  10.805  0.00  0.00    +0.000 C 
BRANCH  10  16
ATOM     11  C   UNL     1      46.464   3.494   6.890  0.00  0.00    +0.000 C 
ATOM     12  C   UNL     1      45.644   3.456   8.142  0.00  0.00    +0.000 A 
ATOM     13  C   UNL     1      45.091   2.266   8.612  0.00  0.00    +0.000 A 
ATOM     14  C   UNL     1      44.333   2.303   9.769  0.00  0.00    +0.000 A 
ATOM     15  N   UNL     1      44.091   3.428  10.475  0.00  0.00    +0.000 NA
ATOM     16  C   UNL     1      44.636   4.584  10.020  0.00  0.00    +0.000 A 
ATOM     17  C   UNL     1      45.413   4.630   8.862  0.00  0.00    +0.000 A 
ENDBRANCH  10  16
ENDBRANCH   8  10
ENDBRANCH   7   8
ENDBRANCH   1   7
BRANCH   4  18
ATOM     18  C   UNL     1      50.721   8.252  14.924  0.00  0.00    +0.000 C 
BRANCH  18  19
ATOM     19  N   UNL     1      50.670   8.067  16.350  0.00  0.00    +0.000 N 
ATOM     20  C   UNL     1      51.454   7.133  16.973  0.00  0.00    +0.000 C 
ATOM     21  O   UNL     1      52.262   6.443  16.358  0.00  0.00    +0.000 OA
ATOM     22  H   UNL     1      49.855   8.439  16.829  0.00  0.00    +0.000 HD
BRANCH  20  23
ATOM     23  C   UNL     1      51.328   7.045  18.433  0.00  0.00    +0.000 A 
ATOM     24  C   UNL     1      52.023   7.940  19.236  0.00  0.00    +0.000 A 
ATOM     25  S   UNL     1      51.713   7.743  20.903  0.00  0.00    +0.000 S 
ATOM     26  C   UNL     1      50.682   6.422  20.611  0.00  0.00    +0.000 A 
ATOM     27  N   UNL     1      50.084   5.761  21.639  0.00  0.00    +0.000 NA
ATOM     28  C   UNL     1      49.347   4.765  21.276  0.00  0.00    +0.000 A 
ATOM     29  N   UNL     1      49.156   4.369  19.974  0.00  0.00    +0.000 N 
ATOM     30  C   UNL     1      49.722   5.016  18.905  0.00  0.00    +0.000 A 
ATOM     31  O   UNL     1      49.505   4.652  17.754  0.00  0.00    +0.000 OA
ATOM     32  C   UNL     1      50.563   6.146  19.261  0.00  0.00    +0.000 A 
ATOM     33  H   UNL     1      48.560   3.585  19.755  0.00  0.00    +0.000 HD
ENDBRANCH  20  23
ENDBRANCH  18  19
ENDBRANCH   4  18
TORSDOF 7
ENDMDL
