MODEL 1
REMARK VINA RESULT:    -7.650      0.000      0.000
REMARK INTER + INTRA:         -11.458
REMARK INTER:                 -10.333
REMARK INTRA:                  -1.125
REMARK UNBOUND:                -1.125
REMARK  Name = 
REMARK  7 active torsions:
REMARK  status: ('A' for Active; 'I' for Inactive)
REMARK    1  A    between atoms: C_1  and  C_2
REMARK    2  A    between atoms: C_2  and  N_3
REMARK    3  A    between atoms: C_2  and  C_16
REMARK    4  A    between atoms: C_4  and  C_6
REMARK    5  A    between atoms: C_19  and  C_20
REMARK    6  A    between atoms: C_20  and  N_21
REMARK    7  A    between atoms: C_22  and  C_24
REMARK                            x       y       z     vdW  Elec       q    Type
REMARK                         _______ _______ _______ _____ _____    ______ ____
ROOT
ATOM      1  C   UNL     1      48.777   7.594  13.575  0.00  0.00    +0.000 A 
ATOM      2  C   UNL     1      48.206   6.941  14.675  0.00  0.00    +0.000 A 
ATOM      3  C   UNL     1      48.942   6.747  15.851  0.00  0.00    +0.000 A 
ATOM      4  C   UNL     1      50.261   7.208  15.955  0.00  0.00    +0.000 A 
ATOM      5  C   UNL     1      50.837   7.858  14.856  0.00  0.00    +0.000 A 
ATOM      6  C   UNL     1      50.102   8.053  13.685  0.00  0.00    +0.000 A 
ENDROOT
BRANCH   1   8
ATOM      7  C   UNL     1      48.965   7.964  11.099  0.00  0.00    +0.000 C 
ATOM      8  C   UNL     1      48.000   7.760  12.273  0.00  0.00    +0.000 C 
BRANCH   8   9
ATOM      9  N   UNL     1      47.136   6.603  12.098  0.00  0.00    +0.000 N 
ATOM     10  C   UNL     1      45.805   6.679  11.778  0.00  0.00    +0.000 C 
ATOM     11  O   UNL     1      45.228   7.741  11.562  0.00  0.00    +0.000 OA
ATOM     12  H   UNL     1      47.451   5.759  12.565  0.00  0.00    +0.000 HD
BRANCH  10  13
ATOM     13  C   UNL     1      45.114   5.392  11.627  0.00  0.00    +0.000 A 
ATOM     14  C   UNL     1      44.417   4.851  12.698  0.00  0.00    +0.000 A 
ATOM     15  S   UNL     1      43.635   3.381  12.328  0.00  0.00    +0.000 S 
ATOM     16  C   UNL     1      44.241   3.394  10.738  0.00  0.00    +0.000 A 
ATOM     17  N   UNL     1      43.960   2.384   9.872  0.00  0.00    +0.000 NA
ATOM     18  C   UNL     1      44.507   2.512   8.708  0.00  0.00    +0.000 A 
ATOM     19  N   UNL     1      45.306   3.560   8.332  0.00  0.00    +0.000 N 
ATOM     20  C   UNL     1      45.593   4.614   9.163  0.00  0.00    +0.000 A 
ATOM     21  O   UNL     1      46.272   5.563   8.783  0.00  0.00    +0.000 OA
ATOM     22  C   UNL     1      45.011   4.514  10.487  0.00  0.00    +0.000 A 
ATOM     23  H   UNL     1      45.696   3.605   7.401  0.00  0.00    +0.000 HD
ENDBRANCH  10  13
ENDBRANCH   8   9
ENDBRANCH   1   8
BRANCH   4  24
ATOM     24  C   UNL     1      51.076   6.958  17.197  0.00  0.00    +0.000 C 
BRANCH  24  25
ATOM     25  N   UNL     1      51.587   5.604  17.213  0.00  0.00    +0.000 N 
ATOM     26  C   UNL     1      50.950   4.600  17.899  0.00  0.00    +0.000 C 
ATOM     27  O   UNL     1      49.902   4.780  18.514  0.00  0.00    +0.000 OA
ATOM     28  H   UNL     1      52.479   5.441  16.763  0.00  0.00    +0.000 HD
BRANCH  26  29
ATOM     29  C   UNL     1      51.532   3.233  17.833  0.00  0.00    +0.000 A 
ATOM     30  C   UNL     1      52.850   3.069  18.290  0.00  0.00    +0.000 A 
ATOM     31  C   UNL     1      53.441   1.807  18.292  0.00  0.00    +0.000 A 
ATOM     32  C   UNL     1      52.700   0.737  17.825  0.00  0.00    +0.000 A 
ATOM     33  N   UNL     1      51.439   0.853  17.358  0.00  0.00    +0.000 NA
ATOM     34  C   UNL     1      50.889   2.095  17.364  0.00  0.00    +0.000 A 
ATOM     35 CL   UNL     1      49.305   2.071  16.682  0.00  0.00    +0.000 Cl
ENDBRANCH  26  29
ENDBRANCH  24  25
ENDBRANCH   4  24
TORSDOF 6
ENDMDL
MODEL 2
REMARK VINA RESULT:    -7.552      3.528      9.045
REMARK INTER + INTRA:         -11.326
REMARK INTER:                 -10.537
REMARK INTRA:                  -0.789
REMARK UNBOUND:                -1.125
REMARK  Name = 
REMARK  7 active torsions:
REMARK  status: ('A' for Active; 'I' for Inactive)
REMARK    1  A    between atoms: C_1  and  C_2
REMARK    2  A    between atoms: C_2  and  N_3
REMARK    3  A    between atoms: C_2  and  C_16
REMARK    4  A    between atoms: C_4  and  C_6
REMARK    5  A    between atoms: C_19  and  C_20
REMARK    6  A    between atoms: C_20  and  N_21
REMARK    7  A    between atoms: C_22  and  C_24
REMARK                            x       y       z     vdW  Elec       q    Type
REMARK                         _______ _______ _______ _____ _____    ______ ____
ROOT
ATOM      1  C   UNL     1      47.016   7.046  13.207  0.00  0.00    +0.000 A 
ATOM      2  C   UNL     1      46.279   7.857  12.335  0.00  0.00    +0.000 A 
ATOM      3  C   UNL     1      45.312   7.301  11.488  0.00  0.00    +0.000 A 
ATOM      4  C   UNL     1      45.055   5.924  11.500  0.00  0.00    +0.000 A 
ATOM      5  C   UNL     1      45.793   5.109  12.367  0.00  0.00    +0.000 A 
ATOM      6  C   UNL     1      46.755   5.664  13.213  0.00  0.00    +0.000 A 
ENDROOT
BRANCH   1   8
ATOM      7  C   UNL     1      47.964   9.161  14.170  0.00  0.00    +0.000 C 
ATOM      8  C   UNL     1      48.108   7.637  14.092  0.00  0.00    +0.000 C 
BRANCH   8   9
ATOM      9  N   UNL     1      48.043   6.998  15.398  0.00  0.00    +0.000 N 
ATOM     10  C   UNL     1      49.127   6.462  16.045  0.00  0.00    +0.000 C 
ATOM     11  O   UNL     1      50.269   6.517  15.598  0.00  0.00    +0.000 OA
ATOM     12  H   UNL     1      47.129   6.640  15.654  0.00  0.00    +0.000 HD
BRANCH  10  13
ATOM     13  C   UNL     1      48.853   5.880  17.365  0.00  0.00    +0.000 A 
ATOM     14  C   UNL     1      49.061   4.525  17.580  0.00  0.00    +0.000 A 
ATOM     15  S   UNL     1      48.740   4.032  19.182  0.00  0.00    +0.000 S 
ATOM     16  C   UNL     1      48.269   5.605  19.630  0.00  0.00    +0.000 A 
ATOM     17  N   UNL     1      47.847   5.877  20.894  0.00  0.00    +0.000 NA
ATOM     18  C   UNL     1      47.495   7.106  21.085  0.00  0.00    +0.000 A 
ATOM     19  N   UNL     1      47.532   8.087  20.129  0.00  0.00    +0.000 N 
ATOM     20  C   UNL     1      47.977   7.864  18.849  0.00  0.00    +0.000 A 
ATOM     21  O   UNL     1      48.044   8.772  18.027  0.00  0.00    +0.000 OA
ATOM     22  C   UNL     1      48.374   6.496  18.579  0.00  0.00    +0.000 A 
ATOM     23  H   UNL     1      47.252   9.033  20.347  0.00  0.00    +0.000 HD
ENDBRANCH  10  13
ENDBRANCH   8   9
ENDBRANCH   1   8
BRANCH   4  24
ATOM     24  C   UNL     1      44.053   5.311  10.556  0.00  0.00    +0.000 C 
BRANCH  24  25
ATOM     25  N   UNL     1      44.615   4.157   9.889  0.00  0.00    +0.000 N 
ATOM     26  C   UNL     1      45.507   4.284   8.853  0.00  0.00    +0.000 C 
ATOM     27  O   UNL     1      45.902   5.375   8.451  0.00  0.00    +0.000 OA
ATOM     28  H   UNL     1      44.263   3.247  10.162  0.00  0.00    +0.000 HD
BRANCH  26  29
ATOM     29  C   UNL     1      46.055   3.040   8.248  0.00  0.00    +0.000 A 
ATOM     30  C   UNL     1      47.104   3.179   7.325  0.00  0.00    +0.000 A 
ATOM     31  C   UNL     1      47.688   2.051   6.751  0.00  0.00    +0.000 A 
ATOM     32  C   UNL     1      47.200   0.808   7.109  0.00  0.00    +0.000 A 
ATOM     33  N   UNL     1      46.180   0.630   7.974  0.00  0.00    +0.000 NA
ATOM     34  C   UNL     1      45.627   1.746   8.516  0.00  0.00    +0.000 A 
ATOM     35 CL   UNL     1      44.306   1.341   9.548  0.00  0.00    +0.000 Cl
ENDBRANCH  26  29
ENDBRANCH  24  25
ENDBRANCH   4  24
TORSDOF 6
ENDMDL
MODEL 3
REMARK VINA RESULT:    -7.526      3.186      9.595
REMARK INTER + INTRA:         -11.291
REMARK INTER:                 -10.066
REMARK INTRA:                  -1.225
REMARK UNBOUND:                -1.125
REMARK  Name = 
REMARK  7 active torsions:
REMARK  status: ('A' for Active; 'I' for Inactive)
REMARK    1  A    between atoms: C_1  and  C_2
REMARK    2  A    between atoms: C_2  and  N_3
REMARK    3  A    between atoms: C_2  and  C_16
REMARK    4  A    between atoms: C_4  and  C_6
REMARK    5  A    between atoms: C_19  and  C_20
REMARK    6  A    between atoms: C_20  and  N_21
REMARK    7  A    between atoms: C_22  and  C_24
REMARK                            x       y       z     vdW  Elec       q    Type
REMARK                         _______ _______ _______ _____ _____    ______ ____
ROOT
ATOM      1  C   UNL     1      48.339   4.791  16.485  0.00  0.00    +0.000 A 
ATOM      2  C   UNL     1      47.371   4.106  15.738  0.00  0.00    +0.000 A 
ATOM      3  C   UNL     1      46.848   4.664  14.565  0.00  0.00    +0.000 A 
ATOM      4  C   UNL     1      47.286   5.915  14.109  0.00  0.00    +0.000 A 
ATOM      5  C   UNL     1      48.250   6.603  14.855  0.00  0.00    +0.000 A 
ATOM      6  C   UNL     1      48.773   6.046  16.024  0.00  0.00    +0.000 A 
ENDROOT
BRANCH   1   8
ATOM      7  C   UNL     1      48.015   3.023  18.238  0.00  0.00    +0.000 C 
ATOM      8  C   UNL     1      48.872   4.214  17.793  0.00  0.00    +0.000 C 
BRANCH   8   9
ATOM      9  N   UNL     1      50.272   3.863  17.608  0.00  0.00    +0.000 N 
ATOM     10  C   UNL     1      51.255   4.113  18.530  0.00  0.00    +0.000 C 
ATOM     11  O   UNL     1      51.032   4.619  19.626  0.00  0.00    +0.000 OA
ATOM     12  H   UNL     1      50.562   3.755  16.641  0.00  0.00    +0.000 HD
BRANCH  10  13
ATOM     13  C   UNL     1      52.602   3.662  18.160  0.00  0.00    +0.000 A 
ATOM     14  C   UNL     1      53.667   4.550  18.207  0.00  0.00    +0.000 A 
ATOM     15  S   UNL     1      55.163   3.842  17.794  0.00  0.00    +0.000 S 
ATOM     16  C   UNL     1      54.431   2.336  17.492  0.00  0.00    +0.000 A 
ATOM     17  N   UNL     1      55.164   1.271  17.072  0.00  0.00    +0.000 NA
ATOM     18  C   UNL     1      54.474   0.200  16.857  0.00  0.00    +0.000 A 
ATOM     19  N   UNL     1      53.118   0.097  17.028  0.00  0.00    +0.000 N 
ATOM     20  C   UNL     1      52.342   1.138  17.476  0.00  0.00    +0.000 A 
ATOM     21  O   UNL     1      51.137   1.003  17.666  0.00  0.00    +0.000 OA
ATOM     22  C   UNL     1      53.068   2.368  17.723  0.00  0.00    +0.000 A 
ATOM     23  H   UNL     1      52.639  -0.775  16.852  0.00  0.00    +0.000 HD
ENDBRANCH  10  13
ENDBRANCH   8   9
ENDBRANCH   1   8
BRANCH   4  24
ATOM     24  C   UNL     1      46.692   6.544  12.876  0.00  0.00    +0.000 C 
BRANCH  24  25
ATOM     25  N   UNL     1      46.396   5.540  11.878  0.00  0.00    +0.000 N 
ATOM     26  C   UNL     1      45.249   5.584  11.126  0.00  0.00    +0.000 C 
ATOM     27  O   UNL     1      44.422   6.486  11.233  0.00  0.00    +0.000 OA
ATOM     28  H   UNL     1      47.032   4.754  11.810  0.00  0.00    +0.000 HD
BRANCH  26  29
ATOM     29  C   UNL     1      45.044   4.524  10.102  0.00  0.00    +0.000 A 
ATOM     30  C   UNL     1      45.645   4.714   8.848  0.00  0.00    +0.000 A 
ATOM     31  C   UNL     1      45.525   3.741   7.856  0.00  0.00    +0.000 A 
ATOM     32  C   UNL     1      44.796   2.602   8.144  0.00  0.00    +0.000 A 
ATOM     33  N   UNL     1      44.185   2.389   9.327  0.00  0.00    +0.000 NA
ATOM     34  C   UNL     1      44.315   3.355  10.274  0.00  0.00    +0.000 A 
ATOM     35 CL   UNL     1      43.426   2.949  11.696  0.00  0.00    +0.000 Cl
ENDBRANCH  26  29
ENDBRANCH  24  25
ENDBRANCH   4  24
TORSDOF 6
ENDMDL
MODEL 4
REMARK VINA RESULT:    -7.343      1.507      2.018
REMARK INTER + INTRA:         -11.043
REMARK INTER:                  -9.870
REMARK INTRA:                  -1.173
REMARK UNBOUND:                -1.125
REMARK  Name = 
REMARK  7 active torsions:
REMARK  status: ('A' for Active; 'I' for Inactive)
REMARK    1  A    between atoms: C_1  and  C_2
REMARK    2  A    between atoms: C_2  and  N_3
REMARK    3  A    between atoms: C_2  and  C_16
REMARK    4  A    between atoms: C_4  and  C_6
REMARK    5  A    between atoms: C_19  and  C_20
REMARK    6  A    between atoms: C_20  and  N_21
REMARK    7  A    between atoms: C_22  and  C_24
REMARK                            x       y       z     vdW  Elec       q    Type
REMARK                         _______ _______ _______ _____ _____    ______ ____
ROOT
ATOM      1  C   UNL     1      48.016   8.209  13.828  0.00  0.00    +0.000 A 
ATOM      2  C   UNL     1      48.336   6.870  14.086  0.00  0.00    +0.000 A 
ATOM      3  C   UNL     1      48.922   6.497  15.302  0.00  0.00    +0.000 A 
ATOM      4  C   UNL     1      49.194   7.454  16.289  0.00  0.00    +0.000 A 
ATOM      5  C   UNL     1      48.880   8.794  16.033  0.00  0.00    +0.000 A 
ATOM      6  C   UNL     1      48.293   9.165  14.821  0.00  0.00    +0.000 A 
ENDROOT
BRANCH   1   8
ATOM      7  C   UNL     1      48.473   9.391  11.661  0.00  0.00    +0.000 C 
ATOM      8  C   UNL     1      47.428   8.629  12.484  0.00  0.00    +0.000 C 
BRANCH   8   9
ATOM      9  N   UNL     1      46.930   7.443  11.805  0.00  0.00    +0.000 N 
ATOM     10  C   UNL     1      45.611   7.231  11.497  0.00  0.00    +0.000 C 
ATOM     11  O   UNL     1      44.729   8.053  11.728  0.00  0.00    +0.000 OA
ATOM     12  H   UNL     1      47.523   6.624  11.884  0.00  0.00    +0.000 HD
BRANCH  10  13
ATOM     13  C   UNL     1      45.318   5.977  10.792  0.00  0.00    +0.000 A 
ATOM     14  C   UNL     1      45.815   5.771   9.512  0.00  0.00    +0.000 A 
ATOM     15  S   UNL     1      45.419   4.242   8.867  0.00  0.00    +0.000 S 
ATOM     16  C   UNL     1      44.532   3.822  10.257  0.00  0.00    +0.000 A 
ATOM     17  N   UNL     1      43.898   2.623  10.350  0.00  0.00    +0.000 NA
ATOM     18  C   UNL     1      43.241   2.450  11.449  0.00  0.00    +0.000 A 
ATOM     19  N   UNL     1      43.164   3.367  12.465  0.00  0.00    +0.000 N 
ATOM     20  C   UNL     1      43.809   4.578  12.427  0.00  0.00    +0.000 A 
ATOM     21  O   UNL     1      43.762   5.360  13.372  0.00  0.00    +0.000 OA
ATOM     22  C   UNL     1      44.553   4.826  11.207  0.00  0.00    +0.000 A 
ATOM     23  H   UNL     1      42.640   3.166  13.305  0.00  0.00    +0.000 HD
ENDBRANCH  10  13
ENDBRANCH   8   9
ENDBRANCH   1   8
BRANCH   4  24
ATOM     24  C   UNL     1      49.871   7.069  17.579  0.00  0.00    +0.000 C 
BRANCH  24  25
ATOM     25  N   UNL     1      50.569   5.810  17.437  0.00  0.00    +0.000 N 
ATOM     26  C   UNL     1      50.146   4.673  18.079  0.00  0.00    +0.000 C 
ATOM     27  O   UNL     1      49.142   4.648  18.786  0.00  0.00    +0.000 OA
ATOM     28  H   UNL     1      51.432   5.816  16.906  0.00  0.00    +0.000 HD
BRANCH  26  29
ATOM     29  C   UNL     1      50.909   3.417  17.849  0.00  0.00    +0.000 A 
ATOM     30  C   UNL     1      52.237   3.376  18.304  0.00  0.00    +0.000 A 
ATOM     31  C   UNL     1      52.995   2.215  18.155  0.00  0.00    +0.000 A 
ATOM     32  C   UNL     1      52.406   1.124  17.543  0.00  0.00    +0.000 A 
ATOM     33  N   UNL     1      51.142   1.128  17.072  0.00  0.00    +0.000 NA
ATOM     34  C   UNL     1      50.427   2.273  17.228  0.00  0.00    +0.000 A 
ATOM     35 CL   UNL     1      48.861   2.123  16.520  0.00  0.00    +0.000 Cl
ENDBRANCH  26  29
ENDBRANCH  24  25
ENDBRANCH   4  24
TORSDOF 6
ENDMDL
MODEL 5
REMARK VINA RESULT:    -7.193      3.650      9.053
REMARK INTER + INTRA:         -10.841
REMARK INTER:                  -9.646
REMARK INTRA:                  -1.195
REMARK UNBOUND:                -1.125
REMARK  Name = 
REMARK  7 active torsions:
REMARK  status: ('A' for Active; 'I' for Inactive)
REMARK    1  A    between atoms: C_1  and  C_2
REMARK    2  A    between atoms: C_2  and  N_3
REMARK    3  A    between atoms: C_2  and  C_16
REMARK    4  A    between atoms: C_4  and  C_6
REMARK    5  A    between atoms: C_19  and  C_20
REMARK    6  A    between atoms: C_20  and  N_21
REMARK    7  A    between atoms: C_22  and  C_24
REMARK                            x       y       z     vdW  Elec       q    Type
REMARK                         _______ _______ _______ _____ _____    ______ ____
ROOT
ATOM      1  C   UNL     1      47.055   6.603  13.492  0.00  0.00    +0.000 A 
ATOM      2  C   UNL     1      46.124   6.897  12.487  0.00  0.00    +0.000 A 
ATOM      3  C   UNL     1      45.296   5.896  11.964  0.00  0.00    +0.000 A 
ATOM      4  C   UNL     1      45.376   4.580  12.440  0.00  0.00    +0.000 A 
ATOM      5  C   UNL     1      46.307   4.281  13.442  0.00  0.00    +0.000 A 
ATOM      6  C   UNL     1      47.131   5.281  13.964  0.00  0.00    +0.000 A 
ENDROOT
BRANCH   1   8
ATOM      7  C   UNL     1      47.498   9.070  13.625  0.00  0.00    +0.000 C 
ATOM      8  C   UNL     1      47.996   7.677  14.026  0.00  0.00    +0.000 C 
BRANCH   8   9
ATOM      9  N   UNL     1      48.116   7.514  15.467  0.00  0.00    +0.000 N 
ATOM     10  C   UNL     1      49.300   7.283  16.118  0.00  0.00    +0.000 C 
ATOM     11  O   UNL     1      50.383   7.240  15.543  0.00  0.00    +0.000 OA
ATOM     12  H   UNL     1      47.265   7.220  15.936  0.00  0.00    +0.000 HD
BRANCH  10  13
ATOM     13  C   UNL     1      49.208   7.168  17.579  0.00  0.00    +0.000 A 
ATOM     14  C   UNL     1      49.217   8.312  18.365  0.00  0.00    +0.000 A 
ATOM     15  S   UNL     1      49.051   7.993  20.033  0.00  0.00    +0.000 S 
ATOM     16  C   UNL     1      49.007   6.313  19.765  0.00  0.00    +0.000 A 
ATOM     17  N   UNL     1      48.898   5.439  20.801  0.00  0.00    +0.000 NA
ATOM     18  C   UNL     1      48.904   4.195  20.452  0.00  0.00    +0.000 A 
ATOM     19  N   UNL     1      49.005   3.746  19.161  0.00  0.00    +0.000 N 
ATOM     20  C   UNL     1      49.090   4.592  18.083  0.00  0.00    +0.000 A 
ATOM     21  O   UNL     1      49.132   4.162  16.934  0.00  0.00    +0.000 OA
ATOM     22  C   UNL     1      49.098   6.002  18.421  0.00  0.00    +0.000 A 
ATOM     23  H   UNL     1      48.994   2.758  18.955  0.00  0.00    +0.000 HD
ENDBRANCH  10  13
ENDBRANCH   8   9
ENDBRANCH   1   8
BRANCH   4  24
ATOM     24  C   UNL     1      44.525   3.486  11.848  0.00  0.00    +0.000 C 
BRANCH  24  25
ATOM     25  N   UNL     1      45.240   2.789  10.802  0.00  0.00    +0.000 N 
ATOM     26  C   UNL     1      45.042   3.079   9.474  0.00  0.00    +0.000 C 
ATOM     27  O   UNL     1      44.273   3.959   9.097  0.00  0.00    +0.000 OA
ATOM     28  H   UNL     1      45.837   2.020  11.082  0.00  0.00    +0.000 HD
BRANCH  26  29
ATOM     29  C   UNL     1      45.844   2.331   8.470  0.00  0.00    +0.000 A 
ATOM     30  C   UNL     1      45.772   0.929   8.499  0.00  0.00    +0.000 A 
ATOM     31  C   UNL     1      46.469   0.169   7.561  0.00  0.00    +0.000 A 
ATOM     32  C   UNL     1      47.232   0.834   6.619  0.00  0.00    +0.000 A 
ATOM     33  N   UNL     1      47.347   2.177   6.568  0.00  0.00    +0.000 NA
ATOM     34  C   UNL     1      46.660   2.893   7.496  0.00  0.00    +0.000 A 
ATOM     35 CL   UNL     1      46.966   4.581   7.324  0.00  0.00    +0.000 Cl
ENDBRANCH  26  29
ENDBRANCH  24  25
ENDBRANCH   4  24
TORSDOF 6
ENDMDL
MODEL 6
REMARK VINA RESULT:    -7.042      3.279      8.303
REMARK INTER + INTRA:         -10.636
REMARK INTER:                  -9.362
REMARK INTRA:                  -1.274
REMARK UNBOUND:                -1.125
REMARK  Name = 
REMARK  7 active torsions:
REMARK  status: ('A' for Active; 'I' for Inactive)
REMARK    1  A    between atoms: C_1  and  C_2
REMARK    2  A    between atoms: C_2  and  N_3
REMARK    3  A    between atoms: C_2  and  C_16
REMARK    4  A    between atoms: C_4  and  C_6
REMARK    5  A    between atoms: C_19  and  C_20
REMARK    6  A    between atoms: C_20  and  N_21
REMARK    7  A    between atoms: C_22  and  C_24
REMARK                            x       y       z     vdW  Elec       q    Type
REMARK                         _______ _______ _______ _____ _____    ______ ____
ROOT
ATOM      1  C   UNL     1      48.169   8.508  13.792  0.00  0.00    +0.000 A 
ATOM      2  C   UNL     1      48.317   7.551  12.780  0.00  0.00    +0.000 A 
ATOM      3  C   UNL     1      47.269   7.285  11.890  0.00  0.00    +0.000 A 
ATOM      4  C   UNL     1      46.053   7.976  11.988  0.00  0.00    +0.000 A 
ATOM      5  C   UNL     1      45.900   8.930  13.001  0.00  0.00    +0.000 A 
ATOM      6  C   UNL     1      46.947   9.196  13.887  0.00  0.00    +0.000 A 
ENDROOT
BRANCH   1   8
ATOM      7  C   UNL     1      49.138  10.157  15.418  0.00  0.00    +0.000 C 
ATOM      8  C   UNL     1      49.287   8.763  14.798  0.00  0.00    +0.000 C 
BRANCH   8   9
ATOM      9  N   UNL     1      49.269   7.699  15.791  0.00  0.00    +0.000 N 
ATOM     10  C   UNL     1      50.342   6.894  16.074  0.00  0.00    +0.000 C 
ATOM     11  O   UNL     1      51.441   7.031  15.544  0.00  0.00    +0.000 OA
ATOM     12  H   UNL     1      48.348   7.335  16.011  0.00  0.00    +0.000 HD
BRANCH  10  13
ATOM     13  C   UNL     1      50.124   5.892  17.125  0.00  0.00    +0.000 A 
ATOM     14  C   UNL     1      50.947   5.869  18.242  0.00  0.00    +0.000 A 
ATOM     15  S   UNL     1      50.517   4.675  19.381  0.00  0.00    +0.000 S 
ATOM     16  C   UNL     1      49.244   4.117  18.398  0.00  0.00    +0.000 A 
ATOM     17  N   UNL     1      48.467   3.070  18.784  0.00  0.00    +0.000 NA
ATOM     18  C   UNL     1      47.557   2.738  17.928  0.00  0.00    +0.000 A 
ATOM     19  N   UNL     1      47.351   3.361  16.726  0.00  0.00    +0.000 N 
ATOM     20  C   UNL     1      48.093   4.438  16.308  0.00  0.00    +0.000 A 
ATOM     21  O   UNL     1      47.855   5.007  15.246  0.00  0.00    +0.000 OA
ATOM     22  C   UNL     1      49.137   4.845  17.228  0.00  0.00    +0.000 A 
ATOM     23  H   UNL     1      46.614   3.058  16.105  0.00  0.00    +0.000 HD
ENDBRANCH  10  13
ENDBRANCH   8   9
ENDBRANCH   1   8
BRANCH   4  24
ATOM     24  C   UNL     1      44.903   7.659  11.068  0.00  0.00    +0.000 C 
BRANCH  24  25
ATOM     25  N   UNL     1      45.121   6.402  10.387  0.00  0.00    +0.000 N 
ATOM     26  C   UNL     1      44.289   5.325  10.573  0.00  0.00    +0.000 C 
ATOM     27  O   UNL     1      43.301   5.372  11.300  0.00  0.00    +0.000 OA
ATOM     28  H   UNL     1      45.960   6.318   9.826  0.00  0.00    +0.000 HD
BRANCH  26  29
ATOM     29  C   UNL     1      44.575   4.083   9.807  0.00  0.00    +0.000 A 
ATOM     30  C   UNL     1      45.275   4.217   8.597  0.00  0.00    +0.000 A 
ATOM     31  C   UNL     1      45.609   3.088   7.850  0.00  0.00    +0.000 A 
ATOM     32  C   UNL     1      45.223   1.850   8.329  0.00  0.00    +0.000 A 
ATOM     33  N   UNL     1      44.530   1.677   9.474  0.00  0.00    +0.000 NA
ATOM     34  C   UNL     1      44.216   2.794  10.181  0.00  0.00    +0.000 A 
ATOM     35 CL   UNL     1      43.284   2.398  11.577  0.00  0.00    +0.000 Cl
ENDBRANCH  26  29
ENDBRANCH  24  25
ENDBRANCH   4  24
TORSDOF 6
ENDMDL
MODEL 7
REMARK VINA RESULT:    -6.993      3.945      8.833
REMARK INTER + INTRA:         -10.571
REMARK INTER:                  -9.379
REMARK INTRA:                  -1.192
REMARK UNBOUND:                -1.125
REMARK  Name = 
REMARK  7 active torsions:
REMARK  status: ('A' for Active; 'I' for Inactive)
REMARK    1  A    between atoms: C_1  and  C_2
REMARK    2  A    between atoms: C_2  and  N_3
REMARK    3  A    between atoms: C_2  and  C_16
REMARK    4  A    between atoms: C_4  and  C_6
REMARK    5  A    between atoms: C_19  and  C_20
REMARK    6  A    between atoms: C_20  and  N_21
REMARK    7  A    between atoms: C_22  and  C_24
REMARK                            x       y       z     vdW  Elec       q    Type
REMARK                         _______ _______ _______ _____ _____    ______ ____
ROOT
ATOM      1  C   UNL     1      45.790   7.763  12.218  0.00  0.00    +0.000 A 
ATOM      2  C   UNL     1      44.573   7.722  11.526  0.00  0.00    +0.000 A 
ATOM      3  C   UNL     1      43.945   6.500  11.257  0.00  0.00    +0.000 A 
ATOM      4  C   UNL     1      44.517   5.292  11.679  0.00  0.00    +0.000 A 
ATOM      5  C   UNL     1      45.735   5.328  12.368  0.00  0.00    +0.000 A 
ATOM      6  C   UNL     1      46.360   6.548  12.638  0.00  0.00    +0.000 A 
ENDROOT
BRANCH   1   8
ATOM      7  C   UNL     1      45.569  10.263  12.166  0.00  0.00    +0.000 C 
ATOM      8  C   UNL     1      46.506   9.087  12.466  0.00  0.00    +0.000 C 
BRANCH   8   9
ATOM      9  N   UNL     1      47.003   9.096  13.833  0.00  0.00    +0.000 N 
ATOM     10  C   UNL     1      48.332   9.065  14.168  0.00  0.00    +0.000 C 
ATOM     11  O   UNL     1      49.233   9.075  13.335  0.00  0.00    +0.000 OA
ATOM     12  H   UNL     1      46.343   8.766  14.530  0.00  0.00    +0.000 HD
BRANCH  10  13
ATOM     13  C   UNL     1      48.625   9.101  15.606  0.00  0.00    +0.000 A 
ATOM     14  C   UNL     1      48.713  10.320  16.264  0.00  0.00    +0.000 A 
ATOM     15  S   UNL     1      49.008  10.170  17.938  0.00  0.00    +0.000 S 
ATOM     16  C   UNL     1      49.074   8.473  17.832  0.00  0.00    +0.000 A 
ATOM     17  N   UNL     1      49.322   7.710  18.930  0.00  0.00    +0.000 NA
ATOM     18  C   UNL     1      49.370   6.440  18.696  0.00  0.00    +0.000 A 
ATOM     19  N   UNL     1      49.188   5.864  17.467  0.00  0.00    +0.000 N 
ATOM     20  C   UNL     1      48.908   6.593  16.336  0.00  0.00    +0.000 A 
ATOM     21  O   UNL     1      48.703   6.046  15.257  0.00  0.00    +0.000 OA
ATOM     22  C   UNL     1      48.854   8.027  16.542  0.00  0.00    +0.000 A 
ATOM     23  H   UNL     1      49.228   4.861  17.353  0.00  0.00    +0.000 HD
ENDBRANCH  10  13
ENDBRANCH   8   9
ENDBRANCH   1   8
BRANCH   4  24
ATOM     24  C   UNL     1      43.874   3.970  11.349  0.00  0.00    +0.000 C 
BRANCH  24  25
ATOM     25  N   UNL     1      44.744   3.169  10.516  0.00  0.00    +0.000 N 
ATOM     26  C   UNL     1      44.795   3.335   9.154  0.00  0.00    +0.000 C 
ATOM     27  O   UNL     1      44.131   4.185   8.567  0.00  0.00    +0.000 OA
ATOM     28  H   UNL     1      45.259   2.423  10.968  0.00  0.00    +0.000 HD
BRANCH  26  29
ATOM     29  C   UNL     1      45.743   2.487   8.383  0.00  0.00    +0.000 A 
ATOM     30  C   UNL     1      45.616   1.095   8.513  0.00  0.00    +0.000 A 
ATOM     31  C   UNL     1      46.447   0.243   7.788  0.00  0.00    +0.000 A 
ATOM     32  C   UNL     1      47.395   0.807   6.955  0.00  0.00    +0.000 A 
ATOM     33  N   UNL     1      47.566   2.139   6.816  0.00  0.00    +0.000 NA
ATOM     34  C   UNL     1      46.744   2.946   7.538  0.00  0.00    +0.000 A 
ATOM     35 CL   UNL     1      47.137   4.606   7.288  0.00  0.00    +0.000 Cl
ENDBRANCH  26  29
ENDBRANCH  24  25
ENDBRANCH   4  24
TORSDOF 6
ENDMDL
MODEL 8
REMARK VINA RESULT:    -6.749      3.794      9.047
REMARK INTER + INTRA:         -10.241
REMARK INTER:                  -9.146
REMARK INTRA:                  -1.096
REMARK UNBOUND:                -1.125
REMARK  Name = 
REMARK  7 active torsions:
REMARK  status: ('A' for Active; 'I' for Inactive)
REMARK    1  A    between atoms: C_1  and  C_2
REMARK    2  A    between atoms: C_2  and  N_3
REMARK    3  A    between atoms: C_2  and  C_16
REMARK    4  A    between atoms: C_4  and  C_6
REMARK    5  A    between atoms: C_19  and  C_20
REMARK    6  A    between atoms: C_20  and  N_21
REMARK    7  A    between atoms: C_22  and  C_24
REMARK                            x       y       z     vdW  Elec       q    Type
REMARK                         _______ _______ _______ _____ _____    ______ ____
ROOT
ATOM      1  C   UNL     1      49.326   7.939  14.210  0.00  0.00    +0.000 A 
ATOM      2  C   UNL     1      48.257   8.825  14.393  0.00  0.00    +0.000 A 
ATOM      3  C   UNL     1      47.063   8.662  13.678  0.00  0.00    +0.000 A 
ATOM      4  C   UNL     1      46.910   7.604  12.771  0.00  0.00    +0.000 A 
ATOM      5  C   UNL     1      47.978   6.718  12.584  0.00  0.00    +0.000 A 
ATOM      6  C   UNL     1      49.167   6.881  13.298  0.00  0.00    +0.000 A 
ENDROOT
BRANCH   1   8
ATOM      7  C   UNL     1      51.274   9.485  14.548  0.00  0.00    +0.000 C 
ATOM      8  C   UNL     1      50.647   8.143  14.944  0.00  0.00    +0.000 C 
BRANCH   8   9
ATOM      9  N   UNL     1      50.404   8.035  16.375  0.00  0.00    +0.000 N 
ATOM     10  C   UNL     1      50.446   6.856  17.074  0.00  0.00    +0.000 C 
ATOM     11  O   UNL     1      50.741   5.782  16.559  0.00  0.00    +0.000 OA
ATOM     12  H   UNL     1      49.856   8.789  16.774  0.00  0.00    +0.000 HD
BRANCH  10  13
ATOM     13  C   UNL     1      50.191   6.965  18.516  0.00  0.00    +0.000 A 
ATOM     14  C   UNL     1      51.118   7.592  19.337  0.00  0.00    +0.000 A 
ATOM     15  S   UNL     1      50.634   7.671  20.971  0.00  0.00    +0.000 S 
ATOM     16  C   UNL     1      49.192   6.830  20.645  0.00  0.00    +0.000 A 
ATOM     17  N   UNL     1      48.309   6.538  21.637  0.00  0.00    +0.000 NA
ATOM     18  C   UNL     1      47.272   5.872  21.249  0.00  0.00    +0.000 A 
ATOM     19  N   UNL     1      47.035   5.477  19.959  0.00  0.00    +0.000 N 
ATOM     20  C   UNL     1      47.884   5.773  18.921  0.00  0.00    +0.000 A 
ATOM     21  O   UNL     1      47.623   5.447  17.767  0.00  0.00    +0.000 OA
ATOM     22  C   UNL     1      49.072   6.510  19.305  0.00  0.00    +0.000 A 
ATOM     23  H   UNL     1      46.197   4.966  19.719  0.00  0.00    +0.000 HD
ENDBRANCH  10  13
ENDBRANCH   8   9
ENDBRANCH   1   8
BRANCH   4  24
ATOM     24  C   UNL     1      45.649   7.451  11.961  0.00  0.00    +0.000 C 
BRANCH  24  25
ATOM     25  N   UNL     1      45.702   6.255  11.149  0.00  0.00    +0.000 N 
ATOM     26  C   UNL     1      44.570   5.545  10.835  0.00  0.00    +0.000 C 
ATOM     27  O   UNL     1      43.449   5.893  11.196  0.00  0.00    +0.000 OA
ATOM     28  H   UNL     1      46.619   5.915  10.886  0.00  0.00    +0.000 HD
BRANCH  26  29
ATOM     29  C   UNL     1      44.719   4.345   9.969  0.00  0.00    +0.000 A 
ATOM     30  C   UNL     1      45.395   4.508   8.749  0.00  0.00    +0.000 A 
ATOM     31  C   UNL     1      45.603   3.416   7.909  0.00  0.00    +0.000 A 
ATOM     32  C   UNL     1      45.117   2.184   8.306  0.00  0.00    +0.000 A 
ATOM     33  N   UNL     1      44.443   1.986   9.458  0.00  0.00    +0.000 NA
ATOM     34  C   UNL     1      44.252   3.069  10.257  0.00  0.00    +0.000 A 
ATOM     35 CL   UNL     1      43.326   2.651  11.651  0.00  0.00    +0.000 Cl
ENDBRANCH  26  29
ENDBRANCH  24  25
ENDBRANCH   4  24
TORSDOF 6
ENDMDL
MODEL 9
REMARK VINA RESULT:    -6.659      5.037      6.218
REMARK INTER + INTRA:         -10.120
REMARK INTER:                  -9.077
REMARK INTRA:                  -1.042
REMARK UNBOUND:                -1.125
REMARK  Name = 
REMARK  7 active torsions:
REMARK  status: ('A' for Active; 'I' for Inactive)
REMARK    1  A    between atoms: C_1  and  C_2
REMARK    2  A    between atoms: C_2  and  N_3
REMARK    3  A    between atoms: C_2  and  C_16
REMARK    4  A    between atoms: C_4  and  C_6
REMARK    5  A    between atoms: C_19  and  C_20
REMARK    6  A    between atoms: C_20  and  N_21
REMARK    7  A    between atoms: C_22  and  C_24
REMARK                            x       y       z     vdW  Elec       q    Type
REMARK                         _______ _______ _______ _____ _____    ______ ____
ROOT
ATOM      1  C   UNL     1      47.495   8.501  12.268  0.00  0.00    +0.000 A 
ATOM      2  C   UNL     1      47.927   9.772  11.866  0.00  0.00    +0.000 A 
ATOM      3  C   UNL     1      49.236   9.970  11.408  0.00  0.00    +0.000 A 
ATOM      4  C   UNL     1      50.139   8.900  11.336  0.00  0.00    +0.000 A 
ATOM      5  C   UNL     1      49.712   7.630  11.740  0.00  0.00    +0.000 A 
ATOM      6  C   UNL     1      48.406   7.433  12.195  0.00  0.00    +0.000 A 
ENDROOT
BRANCH   1   8
ATOM      7  C   UNL     1      45.219   9.522  12.546  0.00  0.00    +0.000 C 
ATOM      8  C   UNL     1      46.089   8.290  12.819  0.00  0.00    +0.000 C 
BRANCH   8   9
ATOM      9  N   UNL     1      45.541   7.074  12.237  0.00  0.00    +0.000 N 
ATOM     10  C   UNL     1      45.614   5.839  12.829  0.00  0.00    +0.000 C 
ATOM     11  O   UNL     1      46.111   5.655  13.936  0.00  0.00    +0.000 OA
ATOM     12  H   UNL     1      45.423   7.097  11.230  0.00  0.00    +0.000 HD
BRANCH  10  13
ATOM     13  C   UNL     1      44.981   4.742  12.087  0.00  0.00    +0.000 A 
ATOM     14  C   UNL     1      44.217   3.800  12.762  0.00  0.00    +0.000 A 
ATOM     15  S   UNL     1      43.517   2.630  11.736  0.00  0.00    +0.000 S 
ATOM     16  C   UNL     1      44.249   3.315  10.361  0.00  0.00    +0.000 A 
ATOM     17  N   UNL     1      44.073   2.770   9.127  0.00  0.00    +0.000 NA
ATOM     18  C   UNL     1      44.709   3.378   8.181  0.00  0.00    +0.000 A 
ATOM     19  N   UNL     1      45.500   4.483   8.356  0.00  0.00    +0.000 N 
ATOM     20  C   UNL     1      45.684   5.083   9.578  0.00  0.00    +0.000 A 
ATOM     21  O   UNL     1      46.360   6.100   9.697  0.00  0.00    +0.000 OA
ATOM     22  C   UNL     1      45.000   4.431  10.678  0.00  0.00    +0.000 A 
ATOM     23  H   UNL     1      45.963   4.918   7.570  0.00  0.00    +0.000 HD
ENDBRANCH  10  13
ENDBRANCH   8   9
ENDBRANCH   1   8
BRANCH   4  24
ATOM     24  C   UNL     1      51.563   9.115  10.893  0.00  0.00    +0.000 C 
BRANCH  24  25
ATOM     25  N   UNL     1      52.098   7.916  10.286  0.00  0.00    +0.000 N 
ATOM     26  C   UNL     1      52.790   7.953   9.100  0.00  0.00    +0.000 C 
ATOM     27  O   UNL     1      53.019   9.000   8.501  0.00  0.00    +0.000 OA
ATOM     28  H   UNL     1      51.874   7.033  10.728  0.00  0.00    +0.000 HD
BRANCH  26  29
ATOM     29  C   UNL     1      53.329   6.674   8.567  0.00  0.00    +0.000 A 
ATOM     30  C   UNL     1      52.748   6.167   7.393  0.00  0.00    +0.000 A 
ATOM     31  C   UNL     1      53.232   4.993   6.819  0.00  0.00    +0.000 A 
ATOM     32  C   UNL     1      54.284   4.347   7.442  0.00  0.00    +0.000 A 
ATOM     33  N   UNL     1      54.857   4.786   8.582  0.00  0.00    +0.000 NA
ATOM     34  C   UNL     1      54.363   5.931   9.121  0.00  0.00    +0.000 A 
ATOM     35 CL   UNL     1      55.167   6.313  10.599  0.00  0.00    +0.000 Cl
ENDBRANCH  26  29
ENDBRANCH  24  25
ENDBRANCH   4  24
TORSDOF 6
ENDMDL
