MODEL 1
REMARK VINA RESULT:    -6.965      0.000      0.000
REMARK INTER + INTRA:         -11.292
REMARK INTER:                  -9.815
REMARK INTRA:                  -1.476
REMARK UNBOUND:                -1.476
REMARK  Name = 
REMARK  8 active torsions:
REMARK  status: ('A' for Active; 'I' for Inactive)
REMARK    1  A    between atoms: N_1  and  C_2
REMARK    2  A    between atoms: C_2  and  C_3
REMARK    3  A    between atoms: C_8  and  O_9
REMARK    4  A    between atoms: O_9  and  C_10
REMARK    5  A    between atoms: C_10  and  C_11
REMARK    6  A    between atoms: C_10  and  C_13
REMARK    7  A    between atoms: C_11  and  O_12
REMARK    8  A    between atoms: C_17  and  N_18
REMARK                            x       y       z     vdW  Elec       q    Type
REMARK                         _______ _______ _______ _____ _____    ______ ____
ROOT
ATOM      1  C   UNL     1      46.813   4.985  13.437  0.00  0.00    +0.000 C 
ENDROOT
BRANCH   1   2
ATOM      2  C   UNL     1      45.561   4.491  12.726  0.00  0.00    +0.000 A 
ATOM      3  C   UNL     1      44.310   4.640  13.335  0.00  0.00    +0.000 A 
ATOM      4  C   UNL     1      43.154   4.326  12.629  0.00  0.00    +0.000 A 
ATOM      5  C   UNL     1      43.240   3.862  11.314  0.00  0.00    +0.000 A 
ATOM      6  C   UNL     1      44.473   3.674  10.676  0.00  0.00    +0.000 A 
ATOM      7  C   UNL     1      45.624   3.991  11.413  0.00  0.00    +0.000 A 
BRANCH   6   8
ATOM      8  N   UNL     1      44.574   3.245   9.367  0.00  0.00    +0.000 N 
ATOM      9  C   UNL     1      44.688   1.828   9.024  0.00  0.00    +0.000 C 
ATOM     10  C   UNL     1      46.066   1.536   8.439  0.00  0.00    +0.000 C 
ATOM     11  C   UNL     1      46.375   2.474   7.272  0.00  0.00    +0.000 C 
ATOM     12  C   UNL     1      46.218   3.934   7.692  0.00  0.00    +0.000 C 
ATOM     13  C   UNL     1      44.833   4.200   8.287  0.00  0.00    +0.000 C 
ENDBRANCH   6   8
ENDBRANCH   1   2
BRANCH   1  14
ATOM     14  O   UNL     1      46.741   6.403  13.666  0.00  0.00    +0.000 OA
BRANCH  14  20
ATOM     15  C   UNL     1      47.142   8.462  12.562  0.00  0.00    +0.000 A 
ATOM     16  N   UNL     1      47.927   9.358  11.897  0.00  0.00    +0.000 NA
ATOM     17  C   UNL     1      49.182   8.970  11.584  0.00  0.00    +0.000 A 
ATOM     18  C   UNL     1      49.695   7.723  11.890  0.00  0.00    +0.000 A 
ATOM     19  C   UNL     1      48.892   6.829  12.594  0.00  0.00    +0.000 A 
ATOM     20  C   UNL     1      47.604   7.205  12.974  0.00  0.00    +0.000 A 
BRANCH  15  21
ATOM     21  C   UNL     1      45.721   8.909  12.838  0.00  0.00    +0.000 C 
BRANCH  21  22
ATOM     22  N   UNL     1      44.715   8.024  12.241  0.00  0.00    +0.000 NA
ATOM     23  H   UNL     1      44.590   8.294  11.267  0.00  0.00    +0.000 HD
ATOM     24  H   UNL     1      43.828   8.219  12.705  0.00  0.00    +0.000 HD
ENDBRANCH  21  22
ENDBRANCH  15  21
ENDBRANCH  14  20
ENDBRANCH   1  14
BRANCH   1  25
ATOM     25  C   UNL     1      46.914   4.296  14.817  0.00  0.00    +0.000 C 
BRANCH  25  26
ATOM     26  O   UNL     1      47.604   3.048  14.767  0.00  0.00    +0.000 OA
ATOM     27  H   UNL     1      47.142   2.448  15.387  0.00  0.00    +0.000 HD
ENDBRANCH  25  26
ENDBRANCH   1  25
TORSDOF 8
ENDMDL
MODEL 2
REMARK VINA RESULT:    -6.790      1.862      3.223
REMARK INTER + INTRA:         -11.045
REMARK INTER:                  -9.810
REMARK INTRA:                  -1.234
REMARK UNBOUND:                -1.476
REMARK  Name = 
REMARK  8 active torsions:
REMARK  status: ('A' for Active; 'I' for Inactive)
REMARK    1  A    between atoms: N_1  and  C_2
REMARK    2  A    between atoms: C_2  and  C_3
REMARK    3  A    between atoms: C_8  and  O_9
REMARK    4  A    between atoms: O_9  and  C_10
REMARK    5  A    between atoms: C_10  and  C_11
REMARK    6  A    between atoms: C_10  and  C_13
REMARK    7  A    between atoms: C_11  and  O_12
REMARK    8  A    between atoms: C_17  and  N_18
REMARK                            x       y       z     vdW  Elec       q    Type
REMARK                         _______ _______ _______ _____ _____    ______ ____
ROOT
ATOM      1  C   UNL     1      45.667   6.148  12.752  0.00  0.00    +0.000 C 
ENDROOT
BRANCH   1   2
ATOM      2  C   UNL     1      44.962   4.894  12.255  0.00  0.00    +0.000 A 
ATOM      3  C   UNL     1      44.004   4.268  13.061  0.00  0.00    +0.000 A 
ATOM      4  C   UNL     1      43.254   3.213  12.553  0.00  0.00    +0.000 A 
ATOM      5  C   UNL     1      43.457   2.777  11.242  0.00  0.00    +0.000 A 
ATOM      6  C   UNL     1      44.423   3.358  10.411  0.00  0.00    +0.000 A 
ATOM      7  C   UNL     1      45.171   4.415  10.950  0.00  0.00    +0.000 A 
BRANCH   6   8
ATOM      8  N   UNL     1      44.614   2.958   9.102  0.00  0.00    +0.000 N 
ATOM      9  C   UNL     1      44.874   1.563   8.749  0.00  0.00    +0.000 C 
ATOM     10  C   UNL     1      46.294   1.408   8.217  0.00  0.00    +0.000 C 
ATOM     11  C   UNL     1      46.560   2.387   7.074  0.00  0.00    +0.000 C 
ATOM     12  C   UNL     1      46.251   3.820   7.502  0.00  0.00    +0.000 C 
ATOM     13  C   UNL     1      44.825   3.948   8.044  0.00  0.00    +0.000 C 
ENDBRANCH   6   8
ENDBRANCH   1   2
BRANCH   1  14
ATOM     14  O   UNL     1      47.072   5.903  12.937  0.00  0.00    +0.000 OA
BRANCH  14  20
ATOM     15  C   UNL     1      48.565   6.396  14.711  0.00  0.00    +0.000 A 
ATOM     16  N   UNL     1      49.058   6.230  15.973  0.00  0.00    +0.000 NA
ATOM     17  C   UNL     1      48.530   5.237  16.719  0.00  0.00    +0.000 A 
ATOM     18  C   UNL     1      47.536   4.387  16.269  0.00  0.00    +0.000 A 
ATOM     19  C   UNL     1      47.023   4.586  14.990  0.00  0.00    +0.000 A 
ATOM     20  C   UNL     1      47.510   5.626  14.201  0.00  0.00    +0.000 A 
BRANCH  15  21
ATOM     21  C   UNL     1      49.226   7.475  13.881  0.00  0.00    +0.000 C 
BRANCH  21  22
ATOM     22  N   UNL     1      49.859   6.957  12.664  0.00  0.00    +0.000 NA
ATOM     23  H   UNL     1      49.319   6.157  12.338  0.00  0.00    +0.000 HD
ATOM     24  H   UNL     1      50.773   6.591  12.931  0.00  0.00    +0.000 HD
ENDBRANCH  21  22
ENDBRANCH  15  21
ENDBRANCH  14  20
ENDBRANCH   1  14
BRANCH   1  25
ATOM     25  C   UNL     1      45.525   7.261  11.688  0.00  0.00    +0.000 C 
BRANCH  25  26
ATOM     26  O   UNL     1      44.327   8.021  11.835  0.00  0.00    +0.000 OA
ATOM     27  H   UNL     1      43.655   7.598  11.262  0.00  0.00    +0.000 HD
ENDBRANCH  25  26
ENDBRANCH   1  25
TORSDOF 8
ENDMDL
MODEL 3
REMARK VINA RESULT:    -6.636      2.344      6.703
REMARK INTER + INTRA:         -10.829
REMARK INTER:                  -9.486
REMARK INTRA:                  -1.343
REMARK UNBOUND:                -1.476
REMARK  Name = 
REMARK  8 active torsions:
REMARK  status: ('A' for Active; 'I' for Inactive)
REMARK    1  A    between atoms: N_1  and  C_2
REMARK    2  A    between atoms: C_2  and  C_3
REMARK    3  A    between atoms: C_8  and  O_9
REMARK    4  A    between atoms: O_9  and  C_10
REMARK    5  A    between atoms: C_10  and  C_11
REMARK    6  A    between atoms: C_10  and  C_13
REMARK    7  A    between atoms: C_11  and  O_12
REMARK    8  A    between atoms: C_17  and  N_18
REMARK                            x       y       z     vdW  Elec       q    Type
REMARK                         _______ _______ _______ _____ _____    ______ ____
ROOT
ATOM      1  C   UNL     1      45.709   6.647  11.075  0.00  0.00    +0.000 C 
ENDROOT
BRANCH   1   2
ATOM      2  C   UNL     1      46.915   6.637  12.004  0.00  0.00    +0.000 A 
ATOM      3  C   UNL     1      48.057   7.374  11.670  0.00  0.00    +0.000 A 
ATOM      4  C   UNL     1      49.100   7.487  12.582  0.00  0.00    +0.000 A 
ATOM      5  C   UNL     1      49.010   6.866  13.830  0.00  0.00    +0.000 A 
ATOM      6  C   UNL     1      47.896   6.098  14.194  0.00  0.00    +0.000 A 
ATOM      7  C   UNL     1      46.861   5.994  13.253  0.00  0.00    +0.000 A 
BRANCH   6   8
ATOM      8  N   UNL     1      47.779   5.503  15.436  0.00  0.00    +0.000 N 
ATOM      9  C   UNL     1      48.572   5.941  16.583  0.00  0.00    +0.000 C 
ATOM     10  C   UNL     1      49.563   4.856  16.986  0.00  0.00    +0.000 C 
ATOM     11  C   UNL     1      48.852   3.521  17.210  0.00  0.00    +0.000 C 
ATOM     12  C   UNL     1      48.028   3.132  15.984  0.00  0.00    +0.000 C 
ATOM     13  C   UNL     1      47.050   4.242  15.591  0.00  0.00    +0.000 C 
ENDBRANCH   6   8
ENDBRANCH   1   2
BRANCH   1  14
ATOM     14  O   UNL     1      44.995   5.402  11.155  0.00  0.00    +0.000 OA
BRANCH  14  20
ATOM     15  C   UNL     1      44.367   3.343  10.162  0.00  0.00    +0.000 A 
ATOM     16  N   UNL     1      44.326   2.445   9.134  0.00  0.00    +0.000 NA
ATOM     17  C   UNL     1      45.030   2.745   8.022  0.00  0.00    +0.000 A 
ATOM     18  C   UNL     1      45.788   3.892   7.882  0.00  0.00    +0.000 A 
ATOM     19  C   UNL     1      45.799   4.812   8.928  0.00  0.00    +0.000 A 
ATOM     20  C   UNL     1      45.051   4.563  10.078  0.00  0.00    +0.000 A 
BRANCH  15  21
ATOM     21  C   UNL     1      43.619   2.943  11.416  0.00  0.00    +0.000 C 
BRANCH  21  22
ATOM     22  N   UNL     1      44.494   2.795  12.584  0.00  0.00    +0.000 NA
ATOM     23  H   UNL     1      44.124   2.047  13.168  0.00  0.00    +0.000 HD
ATOM     24  H   UNL     1      44.412   3.651  13.134  0.00  0.00    +0.000 HD
ENDBRANCH  21  22
ENDBRANCH  15  21
ENDBRANCH  14  20
ENDBRANCH   1  14
BRANCH   1  25
ATOM     25  C   UNL     1      44.741   7.767  11.519  0.00  0.00    +0.000 C 
BRANCH  25  26
ATOM     26  O   UNL     1      43.388   7.516  11.140  0.00  0.00    +0.000 OA
ATOM     27  H   UNL     1      42.997   6.963  11.848  0.00  0.00    +0.000 HD
ENDBRANCH  25  26
ENDBRANCH   1  25
TORSDOF 8
ENDMDL
MODEL 4
REMARK VINA RESULT:    -6.343      3.177      6.901
REMARK INTER + INTRA:         -10.415
REMARK INTER:                  -8.910
REMARK INTRA:                  -1.505
REMARK UNBOUND:                -1.476
REMARK  Name = 
REMARK  8 active torsions:
REMARK  status: ('A' for Active; 'I' for Inactive)
REMARK    1  A    between atoms: N_1  and  C_2
REMARK    2  A    between atoms: C_2  and  C_3
REMARK    3  A    between atoms: C_8  and  O_9
REMARK    4  A    between atoms: O_9  and  C_10
REMARK    5  A    between atoms: C_10  and  C_11
REMARK    6  A    between atoms: C_10  and  C_13
REMARK    7  A    between atoms: C_11  and  O_12
REMARK    8  A    between atoms: C_17  and  N_18
REMARK                            x       y       z     vdW  Elec       q    Type
REMARK                         _______ _______ _______ _____ _____    ______ ____
ROOT
ATOM      1  C   UNL     1      43.610   6.246  11.111  0.00  0.00    +0.000 C 
ENDROOT
BRANCH   1   2
ATOM      2  C   UNL     1      44.202   7.580  11.541  0.00  0.00    +0.000 A 
ATOM      3  C   UNL     1      45.286   7.608  12.427  0.00  0.00    +0.000 A 
ATOM      4  C   UNL     1      45.923   8.812  12.706  0.00  0.00    +0.000 A 
ATOM      5  C   UNL     1      45.482   9.993  12.104  0.00  0.00    +0.000 A 
ATOM      6  C   UNL     1      44.386  10.014  11.232  0.00  0.00    +0.000 A 
ATOM      7  C   UNL     1      43.757   8.787  10.973  0.00  0.00    +0.000 A 
BRANCH   6   8
ATOM      8  N   UNL     1      43.957  11.168  10.605  0.00  0.00    +0.000 N 
ATOM      9  C   UNL     1      42.849  11.966  11.127  0.00  0.00    +0.000 C 
ATOM     10  C   UNL     1      41.658  11.901  10.178  0.00  0.00    +0.000 C 
ATOM     11  C   UNL     1      42.070  12.284   8.757  0.00  0.00    +0.000 C 
ATOM     12  C   UNL     1      43.242  11.428   8.281  0.00  0.00    +0.000 C 
ATOM     13  C   UNL     1      44.420  11.500   9.256  0.00  0.00    +0.000 C 
ENDBRANCH   6   8
ENDBRANCH   1   2
BRANCH   1  14
ATOM     14  O   UNL     1      44.566   5.186  11.281  0.00  0.00    +0.000 OA
BRANCH  14  20
ATOM     15  C   UNL     1      44.361   3.089  10.194  0.00  0.00    +0.000 A 
ATOM     16  N   UNL     1      44.553   2.231   9.150  0.00  0.00    +0.000 NA
ATOM     17  C   UNL     1      45.297   2.672   8.115  0.00  0.00    +0.000 A 
ATOM     18  C   UNL     1      45.875   3.928   8.068  0.00  0.00    +0.000 A 
ATOM     19  C   UNL     1      45.648   4.803   9.127  0.00  0.00    +0.000 A 
ATOM     20  C   UNL     1      44.849   4.403  10.198  0.00  0.00    +0.000 A 
BRANCH  15  21
ATOM     21  C   UNL     1      43.576   2.537  11.366  0.00  0.00    +0.000 C 
BRANCH  21  22
ATOM     22  N   UNL     1      44.246   2.744  12.654  0.00  0.00    +0.000 NA
ATOM     23  H   UNL     1      45.185   2.354  12.593  0.00  0.00    +0.000 HD
ATOM     24  H   UNL     1      43.750   2.181  13.346  0.00  0.00    +0.000 HD
ENDBRANCH  21  22
ENDBRANCH  15  21
ENDBRANCH  14  20
ENDBRANCH   1  14
BRANCH   1  25
ATOM     25  C   UNL     1      42.393   5.922  12.009  0.00  0.00    +0.000 C 
BRANCH  25  26
ATOM     26  O   UNL     1      42.767   5.478  13.313  0.00  0.00    +0.000 OA
ATOM     27  H   UNL     1      41.964   5.087  13.716  0.00  0.00    +0.000 HD
ENDBRANCH  25  26
ENDBRANCH   1  25
TORSDOF 8
ENDMDL
MODEL 5
REMARK VINA RESULT:    -6.333      2.108      6.430
REMARK INTER + INTRA:         -10.401
REMARK INTER:                  -8.697
REMARK INTRA:                  -1.703
REMARK UNBOUND:                -1.476
REMARK  Name = 
REMARK  8 active torsions:
REMARK  status: ('A' for Active; 'I' for Inactive)
REMARK    1  A    between atoms: N_1  and  C_2
REMARK    2  A    between atoms: C_2  and  C_3
REMARK    3  A    between atoms: C_8  and  O_9
REMARK    4  A    between atoms: O_9  and  C_10
REMARK    5  A    between atoms: C_10  and  C_11
REMARK    6  A    between atoms: C_10  and  C_13
REMARK    7  A    between atoms: C_11  and  O_12
REMARK    8  A    between atoms: C_17  and  N_18
REMARK                            x       y       z     vdW  Elec       q    Type
REMARK                         _______ _______ _______ _____ _____    ______ ____
ROOT
ATOM      1  C   UNL     1      43.585   6.237  10.991  0.00  0.00    +0.000 C 
ENDROOT
BRANCH   1   2
ATOM      2  C   UNL     1      44.240   7.591  11.229  0.00  0.00    +0.000 A 
ATOM      3  C   UNL     1      43.506   8.765  11.023  0.00  0.00    +0.000 A 
ATOM      4  C   UNL     1      44.050   9.994  11.380  0.00  0.00    +0.000 A 
ATOM      5  C   UNL     1      45.327  10.058  11.941  0.00  0.00    +0.000 A 
ATOM      6  C   UNL     1      46.105   8.910  12.140  0.00  0.00    +0.000 A 
ATOM      7  C   UNL     1      45.536   7.684  11.765  0.00  0.00    +0.000 A 
BRANCH   6   8
ATOM      8  N   UNL     1      47.358   8.954  12.721  0.00  0.00    +0.000 N 
ATOM      9  C   UNL     1      48.580   9.033  11.923  0.00  0.00    +0.000 C 
ATOM     10  C   UNL     1      49.385   7.745  12.058  0.00  0.00    +0.000 C 
ATOM     11  C   UNL     1      49.637   7.410  13.528  0.00  0.00    +0.000 C 
ATOM     12  C   UNL     1      48.324   7.362  14.308  0.00  0.00    +0.000 C 
ATOM     13  C   UNL     1      47.529   8.660  14.146  0.00  0.00    +0.000 C 
ENDBRANCH   6   8
ENDBRANCH   1   2
BRANCH   1  14
ATOM     14  O   UNL     1      44.527   5.172  11.203  0.00  0.00    +0.000 OA
BRANCH  14  20
ATOM     15  C   UNL     1      44.348   3.037  10.188  0.00  0.00    +0.000 A 
ATOM     16  N   UNL     1      44.548   2.147   9.173  0.00  0.00    +0.000 NA
ATOM     17  C   UNL     1      45.280   2.565   8.119  0.00  0.00    +0.000 A 
ATOM     18  C   UNL     1      45.839   3.826   8.027  0.00  0.00    +0.000 A 
ATOM     19  C   UNL     1      45.604   4.733   9.058  0.00  0.00    +0.000 A 
ATOM     20  C   UNL     1      44.817   4.357  10.146  0.00  0.00    +0.000 A 
BRANCH  15  21
ATOM     21  C   UNL     1      43.577   2.513  11.382  0.00  0.00    +0.000 C 
BRANCH  21  22
ATOM     22  N   UNL     1      44.254   2.766  12.659  0.00  0.00    +0.000 NA
ATOM     23  H   UNL     1      45.196   2.383  12.602  0.00  0.00    +0.000 HD
ATOM     24  H   UNL     1      43.769   2.219  13.371  0.00  0.00    +0.000 HD
ENDBRANCH  21  22
ENDBRANCH  15  21
ENDBRANCH  14  20
ENDBRANCH   1  14
BRANCH   1  25
ATOM     25  C   UNL     1      42.435   6.049  12.008  0.00  0.00    +0.000 C 
BRANCH  25  26
ATOM     26  O   UNL     1      42.890   5.607  13.286  0.00  0.00    +0.000 OA
ATOM     27  H   UNL     1      42.682   4.651  13.341  0.00  0.00    +0.000 HD
ENDBRANCH  25  26
ENDBRANCH   1  25
TORSDOF 8
ENDMDL
MODEL 6
REMARK VINA RESULT:    -6.196      2.172      6.646
REMARK INTER + INTRA:         -10.208
REMARK INTER:                  -9.155
REMARK INTRA:                  -1.054
REMARK UNBOUND:                -1.476
REMARK  Name = 
REMARK  8 active torsions:
REMARK  status: ('A' for Active; 'I' for Inactive)
REMARK    1  A    between atoms: N_1  and  C_2
REMARK    2  A    between atoms: C_2  and  C_3
REMARK    3  A    between atoms: C_8  and  O_9
REMARK    4  A    between atoms: O_9  and  C_10
REMARK    5  A    between atoms: C_10  and  C_11
REMARK    6  A    between atoms: C_10  and  C_13
REMARK    7  A    between atoms: C_11  and  O_12
REMARK    8  A    between atoms: C_17  and  N_18
REMARK                            x       y       z     vdW  Elec       q    Type
REMARK                         _______ _______ _______ _____ _____    ______ ____
ROOT
ATOM      1  C   UNL     1      44.992   6.600  10.981  0.00  0.00    +0.000 C 
ENDROOT
BRANCH   1   2
ATOM      2  C   UNL     1      45.963   6.370  12.131  0.00  0.00    +0.000 A 
ATOM      3  C   UNL     1      45.650   5.443  13.132  0.00  0.00    +0.000 A 
ATOM      4  C   UNL     1      46.595   5.123  14.100  0.00  0.00    +0.000 A 
ATOM      5  C   UNL     1      47.855   5.726  14.075  0.00  0.00    +0.000 A 
ATOM      6  C   UNL     1      48.200   6.677  13.107  0.00  0.00    +0.000 A 
ATOM      7  C   UNL     1      47.226   6.988  12.147  0.00  0.00    +0.000 A 
BRANCH   6   8
ATOM      8  N   UNL     1      49.452   7.259  13.051  0.00  0.00    +0.000 N 
ATOM      9  C   UNL     1      50.151   7.709  14.254  0.00  0.00    +0.000 C 
ATOM     10  C   UNL     1      50.267   9.230  14.261  0.00  0.00    +0.000 C 
ATOM     11  C   UNL     1      50.897   9.735  12.963  0.00  0.00    +0.000 C 
ATOM     12  C   UNL     1      50.132   9.214  11.748  0.00  0.00    +0.000 C 
ATOM     13  C   UNL     1      50.018   7.688  11.771  0.00  0.00    +0.000 C 
ENDBRANCH   6   8
ENDBRANCH   1   2
BRANCH   1  14
ATOM     14  O   UNL     1      44.134   5.461  10.805  0.00  0.00    +0.000 OA
BRANCH  14  20
ATOM     15  C   UNL     1      44.269   3.139  10.343  0.00  0.00    +0.000 A 
ATOM     16  N   UNL     1      44.618   2.065   9.577  0.00  0.00    +0.000 NA
ATOM     17  C   UNL     1      45.326   2.309   8.454  0.00  0.00    +0.000 A 
ATOM     18  C   UNL     1      45.719   3.574   8.057  0.00  0.00    +0.000 A 
ATOM     19  C   UNL     1      45.333   4.663   8.835  0.00  0.00    +0.000 A 
ATOM     20  C   UNL     1      44.563   4.460   9.979  0.00  0.00    +0.000 A 
BRANCH  15  21
ATOM     21  C   UNL     1      43.531   2.821  11.627  0.00  0.00    +0.000 C 
BRANCH  21  22
ATOM     22  N   UNL     1      42.844   1.526  11.589  0.00  0.00    +0.000 NA
ATOM     23  H   UNL     1      41.966   1.645  11.087  0.00  0.00    +0.000 HD
ATOM     24  H   UNL     1      42.591   1.290  12.549  0.00  0.00    +0.000 HD
ENDBRANCH  21  22
ENDBRANCH  15  21
ENDBRANCH  14  20
ENDBRANCH   1  14
BRANCH   1  25
ATOM     25  C   UNL     1      44.093   7.812  11.316  0.00  0.00    +0.000 C 
BRANCH  25  26
ATOM     26  O   UNL     1      42.715   7.579  11.026  0.00  0.00    +0.000 OA
ATOM     27  H   UNL     1      42.352   8.425  10.693  0.00  0.00    +0.000 HD
ENDBRANCH  25  26
ENDBRANCH   1  25
TORSDOF 8
ENDMDL
MODEL 7
REMARK VINA RESULT:    -6.056      2.119      6.741
REMARK INTER + INTRA:         -10.011
REMARK INTER:                  -8.740
REMARK INTRA:                  -1.271
REMARK UNBOUND:                -1.476
REMARK  Name = 
REMARK  8 active torsions:
REMARK  status: ('A' for Active; 'I' for Inactive)
REMARK    1  A    between atoms: N_1  and  C_2
REMARK    2  A    between atoms: C_2  and  C_3
REMARK    3  A    between atoms: C_8  and  O_9
REMARK    4  A    between atoms: O_9  and  C_10
REMARK    5  A    between atoms: C_10  and  C_11
REMARK    6  A    between atoms: C_10  and  C_13
REMARK    7  A    between atoms: C_11  and  O_12
REMARK    8  A    between atoms: C_17  and  N_18
REMARK                            x       y       z     vdW  Elec       q    Type
REMARK                         _______ _______ _______ _____ _____    ______ ____
ROOT
ATOM      1  C   UNL     1      45.271   6.682  11.079  0.00  0.00    +0.000 C 
ENDROOT
BRANCH   1   2
ATOM      2  C   UNL     1      46.354   6.721  12.148  0.00  0.00    +0.000 A 
ATOM      3  C   UNL     1      46.373   5.749  13.156  0.00  0.00    +0.000 A 
ATOM      4  C   UNL     1      47.441   5.693  14.044  0.00  0.00    +0.000 A 
ATOM      5  C   UNL     1      48.492   6.606  13.934  0.00  0.00    +0.000 A 
ATOM      6  C   UNL     1      48.501   7.609  12.957  0.00  0.00    +0.000 A 
ATOM      7  C   UNL     1      47.408   7.648  12.078  0.00  0.00    +0.000 A 
BRANCH   6   8
ATOM      8  N   UNL     1      49.547   8.500  12.816  0.00  0.00    +0.000 N 
ATOM      9  C   UNL     1      50.103   8.841  11.507  0.00  0.00    +0.000 C 
ATOM     10  C   UNL     1      51.525   8.306  11.381  0.00  0.00    +0.000 C 
ATOM     11  C   UNL     1      52.390   8.773  12.552  0.00  0.00    +0.000 C 
ATOM     12  C   UNL     1      51.744   8.404  13.887  0.00  0.00    +0.000 C 
ATOM     13  C   UNL     1      50.314   8.940  13.984  0.00  0.00    +0.000 C 
ENDBRANCH   6   8
ENDBRANCH   1   2
BRANCH   1  14
ATOM     14  O   UNL     1      44.620   5.400  11.061  0.00  0.00    +0.000 OA
BRANCH  14  20
ATOM     15  C   UNL     1      44.406   3.246  10.094  0.00  0.00    +0.000 A 
ATOM     16  N   UNL     1      44.603   2.327   9.104  0.00  0.00    +0.000 NA
ATOM     17  C   UNL     1      45.367   2.700   8.056  0.00  0.00    +0.000 A 
ATOM     18  C   UNL     1      45.960   3.944   7.945  0.00  0.00    +0.000 A 
ATOM     19  C   UNL     1      45.728   4.881   8.949  0.00  0.00    +0.000 A 
ATOM     20  C   UNL     1      44.910   4.552  10.029  0.00  0.00    +0.000 A 
BRANCH  15  21
ATOM     21  C   UNL     1      43.598   2.771  11.283  0.00  0.00    +0.000 C 
BRANCH  21  22
ATOM     22  N   UNL     1      44.362   2.778  12.536  0.00  0.00    +0.000 NA
ATOM     23  H   UNL     1      43.975   3.498  13.142  0.00  0.00    +0.000 HD
ATOM     24  H   UNL     1      45.311   3.078  12.309  0.00  0.00    +0.000 HD
ENDBRANCH  21  22
ENDBRANCH  15  21
ENDBRANCH  14  20
ENDBRANCH   1  14
BRANCH   1  25
ATOM     25  C   UNL     1      44.197   7.744  11.410  0.00  0.00    +0.000 C 
BRANCH  25  26
ATOM     26  O   UNL     1      42.881   7.339  11.035  0.00  0.00    +0.000 OA
ATOM     27  H   UNL     1      42.313   7.471  11.822  0.00  0.00    +0.000 HD
ENDBRANCH  25  26
ENDBRANCH   1  25
TORSDOF 8
ENDMDL
MODEL 8
REMARK VINA RESULT:    -5.952      4.061      6.077
REMARK INTER + INTRA:          -9.865
REMARK INTER:                  -8.635
REMARK INTRA:                  -1.230
REMARK UNBOUND:                -1.476
REMARK  Name = 
REMARK  8 active torsions:
REMARK  status: ('A' for Active; 'I' for Inactive)
REMARK    1  A    between atoms: N_1  and  C_2
REMARK    2  A    between atoms: C_2  and  C_3
REMARK    3  A    between atoms: C_8  and  O_9
REMARK    4  A    between atoms: O_9  and  C_10
REMARK    5  A    between atoms: C_10  and  C_11
REMARK    6  A    between atoms: C_10  and  C_13
REMARK    7  A    between atoms: C_11  and  O_12
REMARK    8  A    between atoms: C_17  and  N_18
REMARK                            x       y       z     vdW  Elec       q    Type
REMARK                         _______ _______ _______ _____ _____    ______ ____
ROOT
ATOM      1  C   UNL     1      48.215   4.039  16.491  0.00  0.00    +0.000 C 
ENDROOT
BRANCH   1   2
ATOM      2  C   UNL     1      47.782   4.964  15.363  0.00  0.00    +0.000 A 
ATOM      3  C   UNL     1      48.385   6.219  15.221  0.00  0.00    +0.000 A 
ATOM      4  C   UNL     1      48.101   7.004  14.110  0.00  0.00    +0.000 A 
ATOM      5  C   UNL     1      47.212   6.542  13.136  0.00  0.00    +0.000 A 
ATOM      6  C   UNL     1      46.568   5.304  13.251  0.00  0.00    +0.000 A 
ATOM      7  C   UNL     1      46.867   4.536  14.386  0.00  0.00    +0.000 A 
BRANCH   6   8
ATOM      8  N   UNL     1      45.710   4.820  12.281  0.00  0.00    +0.000 N 
ATOM      9  C   UNL     1      45.181   5.674  11.219  0.00  0.00    +0.000 C 
ATOM     10  C   UNL     1      43.678   5.863  11.392  0.00  0.00    +0.000 C 
ATOM     11  C   UNL     1      42.967   4.514  11.502  0.00  0.00    +0.000 C 
ATOM     12  C   UNL     1      43.580   3.665  12.615  0.00  0.00    +0.000 C 
ATOM     13  C   UNL     1      45.090   3.501  12.426  0.00  0.00    +0.000 C 
ENDBRANCH   6   8
ENDBRANCH   1   2
BRANCH   1  14
ATOM     14  O   UNL     1      49.424   4.516  17.105  0.00  0.00    +0.000 OA
BRANCH  14  20
ATOM     15  C   UNL     1      51.687   4.103  17.682  0.00  0.00    +0.000 A 
ATOM     16  N   UNL     1      52.744   3.291  17.972  0.00  0.00    +0.000 NA
ATOM     17  C   UNL     1      52.551   1.959  17.860  0.00  0.00    +0.000 A 
ATOM     18  C   UNL     1      51.356   1.391  17.460  0.00  0.00    +0.000 A 
ATOM     19  C   UNL     1      50.277   2.231  17.194  0.00  0.00    +0.000 A 
ATOM     20  C   UNL     1      50.420   3.610  17.339  0.00  0.00    +0.000 A 
BRANCH  15  21
ATOM     21  C   UNL     1      51.959   5.591  17.756  0.00  0.00    +0.000 C 
BRANCH  21  22
ATOM     22  N   UNL     1      51.843   6.261  16.456  0.00  0.00    +0.000 NA
ATOM     23  H   UNL     1      51.559   5.570  15.764  0.00  0.00    +0.000 HD
ATOM     24  H   UNL     1      52.780   6.562  16.187  0.00  0.00    +0.000 HD
ENDBRANCH  21  22
ENDBRANCH  15  21
ENDBRANCH  14  20
ENDBRANCH   1  14
BRANCH   1  25
ATOM     25  C   UNL     1      47.117   4.024  17.580  0.00  0.00    +0.000 C 
BRANCH  25  26
ATOM     26  O   UNL     1      46.505   2.744  17.735  0.00  0.00    +0.000 OA
ATOM     27  H   UNL     1      45.707   2.745  17.168  0.00  0.00    +0.000 HD
ENDBRANCH  25  26
ENDBRANCH   1  25
TORSDOF 8
ENDMDL
MODEL 9
REMARK VINA RESULT:    -5.836      2.617      7.047
REMARK INTER + INTRA:          -9.701
REMARK INTER:                  -8.367
REMARK INTRA:                  -1.334
REMARK UNBOUND:                -1.476
REMARK  Name = 
REMARK  8 active torsions:
REMARK  status: ('A' for Active; 'I' for Inactive)
REMARK    1  A    between atoms: N_1  and  C_2
REMARK    2  A    between atoms: C_2  and  C_3
REMARK    3  A    between atoms: C_8  and  O_9
REMARK    4  A    between atoms: O_9  and  C_10
REMARK    5  A    between atoms: C_10  and  C_11
REMARK    6  A    between atoms: C_10  and  C_13
REMARK    7  A    between atoms: C_11  and  O_12
REMARK    8  A    between atoms: C_17  and  N_18
REMARK                            x       y       z     vdW  Elec       q    Type
REMARK                         _______ _______ _______ _____ _____    ______ ____
ROOT
ATOM      1  C   UNL     1      46.389   7.186  12.335  0.00  0.00    +0.000 C 
ENDROOT
BRANCH   1   2
ATOM      2  C   UNL     1      47.696   7.135  13.113  0.00  0.00    +0.000 A 
ATOM      3  C   UNL     1      48.813   7.836  12.645  0.00  0.00    +0.000 A 
ATOM      4  C   UNL     1      49.960   7.914  13.426  0.00  0.00    +0.000 A 
ATOM      5  C   UNL     1      49.999   7.293  14.677  0.00  0.00    +0.000 A 
ATOM      6  C   UNL     1      48.913   6.560  15.172  0.00  0.00    +0.000 A 
ATOM      7  C   UNL     1      47.771   6.491  14.361  0.00  0.00    +0.000 A 
BRANCH   6   8
ATOM      8  N   UNL     1      48.925   5.966  16.419  0.00  0.00    +0.000 N 
ATOM      9  C   UNL     1      48.364   4.636  16.648  0.00  0.00    +0.000 C 
ATOM     10  C   UNL     1      47.124   4.730  17.532  0.00  0.00    +0.000 C 
ATOM     11  C   UNL     1      47.428   5.494  18.820  0.00  0.00    +0.000 C 
ATOM     12  C   UNL     1      48.029   6.864  18.510  0.00  0.00    +0.000 C 
ATOM     13  C   UNL     1      49.263   6.745  17.613  0.00  0.00    +0.000 C 
ENDBRANCH   6   8
ENDBRANCH   1   2
BRANCH   1  14
ATOM     14  O   UNL     1      45.651   5.963  12.498  0.00  0.00    +0.000 OA
BRANCH  14  20
ATOM     15  C   UNL     1      44.133   4.453  11.480  0.00  0.00    +0.000 A 
ATOM     16  N   UNL     1      43.608   3.782  10.414  0.00  0.00    +0.000 NA
ATOM     17  C   UNL     1      44.229   3.929   9.224  0.00  0.00    +0.000 A 
ATOM     18  C   UNL     1      45.360   4.703   9.041  0.00  0.00    +0.000 A 
ATOM     19  C   UNL     1      45.868   5.403  10.133  0.00  0.00    +0.000 A 
ATOM     20  C   UNL     1      45.232   5.315  11.371  0.00  0.00    +0.000 A 
BRANCH  15  21
ATOM     21  C   UNL     1      43.449   4.214  12.811  0.00  0.00    +0.000 C 
BRANCH  21  22
ATOM     22  N   UNL     1      42.861   5.430  13.381  0.00  0.00    +0.000 NA
ATOM     23  H   UNL     1      43.580   6.151  13.408  0.00  0.00    +0.000 HD
ATOM     24  H   UNL     1      42.627   5.226  14.353  0.00  0.00    +0.000 HD
ENDBRANCH  21  22
ENDBRANCH  15  21
ENDBRANCH  14  20
ENDBRANCH   1  14
BRANCH   1  25
ATOM     25  C   UNL     1      45.514   8.333  12.892  0.00  0.00    +0.000 C 
BRANCH  25  26
ATOM     26  O   UNL     1      44.423   8.668  12.035  0.00  0.00    +0.000 OA
ATOM     27  H   UNL     1      44.274   9.630  12.135  0.00  0.00    +0.000 HD
ENDBRANCH  25  26
ENDBRANCH   1  25
TORSDOF 8
ENDMDL
