MODEL 1
REMARK VINA RESULT:    -8.458      0.000      0.000
REMARK INTER + INTRA:         -12.975
REMARK INTER:                 -12.166
REMARK INTRA:                  -0.809
REMARK UNBOUND:                -0.809
REMARK  Name = 
REMARK  8 active torsions:
REMARK  status: ('A' for Active; 'I' for Inactive)
REMARK    1  A    between atoms: N_1  and  C_2
REMARK    2  A    between atoms: C_2  and  C_3
REMARK    3  A    between atoms: C_2  and  C_19
REMARK    4  A    between atoms: C_3  and  C_4
REMARK    5  A    between atoms: C_7  and  C_8
REMARK    6  A    between atoms: C_8  and  N_9
REMARK    7  A    between atoms: N_9  and  C_10
REMARK    8  A    between atoms: C_10  and  C_11
REMARK                            x       y       z     vdW  Elec       q    Type
REMARK                         _______ _______ _______ _____ _____    ______ ____
ROOT
ATOM      1  C   UNL     1      47.938   5.637  15.333  0.00  0.00    +0.000 C 
ENDROOT
BRANCH   1   2
ATOM      2  C   UNL     1      47.100   5.285  14.129  0.00  0.00    +0.000 A 
ATOM      3  C   UNL     1      46.642   3.974  13.948  0.00  0.00    +0.000 A 
ATOM      4  C   UNL     1      45.853   3.648  12.845  0.00  0.00    +0.000 A 
ATOM      5  C   UNL     1      45.492   4.630  11.912  0.00  0.00    +0.000 A 
ATOM      6  C   UNL     1      45.958   5.939  12.093  0.00  0.00    +0.000 A 
ATOM      7  C   UNL     1      46.759   6.264  13.189  0.00  0.00    +0.000 A 
BRANCH   5   8
ATOM      8  C   UNL     1      44.608   4.281  10.738  0.00  0.00    +0.000 C 
BRANCH   8   9
ATOM      9  N   UNL     1      45.230   4.704   9.486  0.00  0.00    +0.000 NA
ATOM     10  H   UNL     1      46.240   4.589   9.562  0.00  0.00    +0.000 HD
BRANCH   9  11
ATOM     11  C   UNL     1      44.741   3.932   8.350  0.00  0.00    +0.000 C 
BRANCH  11  12
ATOM     12  C   UNL     1      45.829   3.029   7.825  0.00  0.00    +0.000 A 
ATOM     13  C   UNL     1      45.885   1.681   8.188  0.00  0.00    +0.000 A 
ATOM     14  C   UNL     1      46.926   0.904   7.702  0.00  0.00    +0.000 A 
ATOM     15  N   UNL     1      47.898   1.370   6.888  0.00  0.00    +0.000 NA
ATOM     16  C   UNL     1      47.824   2.674   6.544  0.00  0.00    +0.000 A 
ATOM     17  C   UNL     1      46.821   3.528   6.973  0.00  0.00    +0.000 A 
ENDBRANCH  11  12
ENDBRANCH   9  11
ENDBRANCH   8   9
ENDBRANCH   5   8
ENDBRANCH   1   2
BRANCH   1  18
ATOM     18  C   UNL     1      47.979   4.546  16.431  0.00  0.00    +0.000 C 
BRANCH  18  19
ATOM     19  C   UNL     1      49.313   4.530  17.147  0.00  0.00    +0.000 A 
ATOM     20  C   UNL     1      49.837   5.624  17.819  0.00  0.00    +0.000 A 
ATOM     21  S   UNL     1      51.334   5.292  18.575  0.00  0.00    +0.000 S 
ATOM     22  C   UNL     1      51.330   3.682  18.021  0.00  0.00    +0.000 A 
ATOM     23  N   UNL     1      52.336   2.821  18.334  0.00  0.00    +0.000 NA
ATOM     24  C   UNL     1      52.187   1.632  17.851  0.00  0.00    +0.000 A 
ATOM     25  N   UNL     1      51.130   1.225  17.077  0.00  0.00    +0.000 N 
ATOM     26  C   UNL     1      50.116   2.070  16.691  0.00  0.00    +0.000 A 
ATOM     27  O   UNL     1      49.230   1.694  15.929  0.00  0.00    +0.000 OA
ATOM     28  C   UNL     1      50.215   3.407  17.252  0.00  0.00    +0.000 A 
ATOM     29  H   UNL     1      51.086   0.286  16.711  0.00  0.00    +0.000 HD
ENDBRANCH  18  19
BRANCH  18  30
ATOM     30  N   UNL     1      46.942   4.660  17.459  0.00  0.00    +0.000 NA
ATOM     31  H   UNL     1      46.033   4.542  17.012  0.00  0.00    +0.000 HD
ATOM     32  H   UNL     1      46.937   5.631  17.795  0.00  0.00    +0.000 HD
ENDBRANCH  18  30
ENDBRANCH   1  18
TORSDOF 8
ENDMDL
MODEL 2
REMARK VINA RESULT:    -7.895      1.785      2.432
REMARK INTER + INTRA:         -12.165
REMARK INTER:                 -11.163
REMARK INTRA:                  -1.002
REMARK UNBOUND:                -0.809
REMARK  Name = 
REMARK  8 active torsions:
REMARK  status: ('A' for Active; 'I' for Inactive)
REMARK    1  A    between atoms: N_1  and  C_2
REMARK    2  A    between atoms: C_2  and  C_3
REMARK    3  A    between atoms: C_2  and  C_19
REMARK    4  A    between atoms: C_3  and  C_4
REMARK    5  A    between atoms: C_7  and  C_8
REMARK    6  A    between atoms: C_8  and  N_9
REMARK    7  A    between atoms: N_9  and  C_10
REMARK    8  A    between atoms: C_10  and  C_11
REMARK                            x       y       z     vdW  Elec       q    Type
REMARK                         _______ _______ _______ _____ _____    ______ ____
ROOT
ATOM      1  C   UNL     1      48.273   6.301  13.377  0.00  0.00    +0.000 C 
ENDROOT
BRANCH   1   2
ATOM      2  C   UNL     1      47.094   5.867  12.542  0.00  0.00    +0.000 A 
ATOM      3  C   UNL     1      46.327   4.760  12.927  0.00  0.00    +0.000 A 
ATOM      4  C   UNL     1      45.226   4.365  12.167  0.00  0.00    +0.000 A 
ATOM      5  C   UNL     1      44.861   5.081  11.017  0.00  0.00    +0.000 A 
ATOM      6  C   UNL     1      45.634   6.183  10.632  0.00  0.00    +0.000 A 
ATOM      7  C   UNL     1      46.744   6.571  11.384  0.00  0.00    +0.000 A 
BRANCH   5   8
ATOM      8  C   UNL     1      43.647   4.672  10.216  0.00  0.00    +0.000 C 
BRANCH   8   9
ATOM      9  N   UNL     1      44.047   4.147   8.914  0.00  0.00    +0.000 NA
ATOM     10  H   UNL     1      44.829   4.697   8.561  0.00  0.00    +0.000 HD
BRANCH   9  11
ATOM     11  C   UNL     1      44.440   2.744   8.992  0.00  0.00    +0.000 C 
BRANCH  11  12
ATOM     12  C   UNL     1      45.706   2.513   8.206  0.00  0.00    +0.000 A 
ATOM     13  C   UNL     1      46.363   3.568   7.569  0.00  0.00    +0.000 A 
ATOM     14  C   UNL     1      47.506   3.292   6.834  0.00  0.00    +0.000 A 
ATOM     15  N   UNL     1      48.034   2.057   6.695  0.00  0.00    +0.000 NA
ATOM     16  C   UNL     1      47.388   1.051   7.322  0.00  0.00    +0.000 A 
ATOM     17  C   UNL     1      46.244   1.226   8.084  0.00  0.00    +0.000 A 
ENDBRANCH  11  12
ENDBRANCH   9  11
ENDBRANCH   8   9
ENDBRANCH   5   8
ENDBRANCH   1   2
BRANCH   1  18
ATOM     18  C   UNL     1      47.903   6.858  14.774  0.00  0.00    +0.000 C 
BRANCH  18  19
ATOM     19  C   UNL     1      48.827   6.324  15.846  0.00  0.00    +0.000 A 
ATOM     20  C   UNL     1      50.055   6.890  16.153  0.00  0.00    +0.000 A 
ATOM     21  S   UNL     1      50.852   6.103  17.445  0.00  0.00    +0.000 S 
ATOM     22  C   UNL     1      49.587   4.979  17.626  0.00  0.00    +0.000 A 
ATOM     23  N   UNL     1      49.624   4.018  18.588  0.00  0.00    +0.000 NA
ATOM     24  C   UNL     1      48.587   3.247  18.608  0.00  0.00    +0.000 A 
ATOM     25  N   UNL     1      47.519   3.343  17.754  0.00  0.00    +0.000 N 
ATOM     26  C   UNL     1      47.457   4.265  16.734  0.00  0.00    +0.000 A 
ATOM     27  O   UNL     1      46.525   4.269  15.936  0.00  0.00    +0.000 OA
ATOM     28  C   UNL     1      48.580   5.187  16.702  0.00  0.00    +0.000 A 
ATOM     29  H   UNL     1      46.749   2.694  17.809  0.00  0.00    +0.000 HD
ENDBRANCH  18  19
BRANCH  18  30
ATOM     30  N   UNL     1      47.917   8.319  14.883  0.00  0.00    +0.000 NA
ATOM     31  H   UNL     1      48.587   8.580  15.606  0.00  0.00    +0.000 HD
ATOM     32  H   UNL     1      47.008   8.614  15.258  0.00  0.00    +0.000 HD
ENDBRANCH  18  30
ENDBRANCH   1  18
TORSDOF 8
ENDMDL
MODEL 3
REMARK VINA RESULT:    -7.660      1.494      2.190
REMARK INTER + INTRA:         -11.828
REMARK INTER:                 -11.096
REMARK INTRA:                  -0.732
REMARK UNBOUND:                -0.809
REMARK  Name = 
REMARK  8 active torsions:
REMARK  status: ('A' for Active; 'I' for Inactive)
REMARK    1  A    between atoms: N_1  and  C_2
REMARK    2  A    between atoms: C_2  and  C_3
REMARK    3  A    between atoms: C_2  and  C_19
REMARK    4  A    between atoms: C_3  and  C_4
REMARK    5  A    between atoms: C_7  and  C_8
REMARK    6  A    between atoms: C_8  and  N_9
REMARK    7  A    between atoms: N_9  and  C_10
REMARK    8  A    between atoms: C_10  and  C_11
REMARK                            x       y       z     vdW  Elec       q    Type
REMARK                         _______ _______ _______ _____ _____    ______ ____
ROOT
ATOM      1  C   UNL     1      47.964   5.428  15.134  0.00  0.00    +0.000 C 
ENDROOT
BRANCH   1   2
ATOM      2  C   UNL     1      47.089   5.323  13.909  0.00  0.00    +0.000 A 
ATOM      3  C   UNL     1      46.327   4.170  13.684  0.00  0.00    +0.000 A 
ATOM      4  C   UNL     1      45.504   4.076  12.562  0.00  0.00    +0.000 A 
ATOM      5  C   UNL     1      45.413   5.140  11.653  0.00  0.00    +0.000 A 
ATOM      6  C   UNL     1      46.182   6.289  11.878  0.00  0.00    +0.000 A 
ATOM      7  C   UNL     1      47.016   6.380  12.993  0.00  0.00    +0.000 A 
BRANCH   5   8
ATOM      8  C   UNL     1      44.494   5.049  10.458  0.00  0.00    +0.000 C 
BRANCH   8   9
ATOM      9  N   UNL     1      45.264   4.845   9.235  0.00  0.00    +0.000 NA
ATOM     10  H   UNL     1      46.234   4.653   9.482  0.00  0.00    +0.000 HD
BRANCH   9  11
ATOM     11  C   UNL     1      44.740   3.739   8.441  0.00  0.00    +0.000 C 
BRANCH  11  12
ATOM     12  C   UNL     1      45.873   2.905   7.897  0.00  0.00    +0.000 A 
ATOM     13  C   UNL     1      46.861   3.470   7.087  0.00  0.00    +0.000 A 
ATOM     14  C   UNL     1      47.861   2.649   6.588  0.00  0.00    +0.000 A 
ATOM     15  N   UNL     1      47.946   1.325   6.840  0.00  0.00    +0.000 NA
ATOM     16  C   UNL     1      46.984   0.798   7.628  0.00  0.00    +0.000 A 
ATOM     17  C   UNL     1      45.949   1.536   8.179  0.00  0.00    +0.000 A 
ENDBRANCH  11  12
ENDBRANCH   9  11
ENDBRANCH   8   9
ENDBRANCH   5   8
ENDBRANCH   1   2
BRANCH   1  18
ATOM     18  C   UNL     1      47.616   4.427  16.262  0.00  0.00    +0.000 C 
BRANCH  18  19
ATOM     19  C   UNL     1      48.854   3.739  16.794  0.00  0.00    +0.000 A 
ATOM     20  C   UNL     1      49.118   2.389  16.618  0.00  0.00    +0.000 A 
ATOM     21  S   UNL     1      50.617   1.906  17.282  0.00  0.00    +0.000 S 
ATOM     22  C   UNL     1      50.954   3.481  17.832  0.00  0.00    +0.000 A 
ATOM     23  N   UNL     1      52.113   3.774  18.481  0.00  0.00    +0.000 NA
ATOM     24  C   UNL     1      52.230   5.013  18.826  0.00  0.00    +0.000 A 
ATOM     25  N   UNL     1      51.294   5.987  18.590  0.00  0.00    +0.000 N 
ATOM     26  C   UNL     1      50.086   5.731  17.983  0.00  0.00    +0.000 A 
ATOM     27  O   UNL     1      49.237   6.610  17.863  0.00  0.00    +0.000 OA
ATOM     28  C   UNL     1      49.929   4.359  17.533  0.00  0.00    +0.000 A 
ATOM     29  H   UNL     1      51.437   6.934  18.906  0.00  0.00    +0.000 HD
ENDBRANCH  18  19
BRANCH  18  30
ATOM     30  N   UNL     1      46.918   5.005  17.413  0.00  0.00    +0.000 NA
ATOM     31  H   UNL     1      47.489   4.853  18.244  0.00  0.00    +0.000 HD
ATOM     32  H   UNL     1      46.071   4.449  17.579  0.00  0.00    +0.000 HD
ENDBRANCH  18  30
ENDBRANCH   1  18
TORSDOF 8
ENDMDL
MODEL 4
REMARK VINA RESULT:    -7.513      2.068      2.726
REMARK INTER + INTRA:         -11.616
REMARK INTER:                 -10.674
REMARK INTRA:                  -0.943
REMARK UNBOUND:                -0.809
REMARK  Name = 
REMARK  8 active torsions:
REMARK  status: ('A' for Active; 'I' for Inactive)
REMARK    1  A    between atoms: N_1  and  C_2
REMARK    2  A    between atoms: C_2  and  C_3
REMARK    3  A    between atoms: C_2  and  C_19
REMARK    4  A    between atoms: C_3  and  C_4
REMARK    5  A    between atoms: C_7  and  C_8
REMARK    6  A    between atoms: C_8  and  N_9
REMARK    7  A    between atoms: N_9  and  C_10
REMARK    8  A    between atoms: C_10  and  C_11
REMARK                            x       y       z     vdW  Elec       q    Type
REMARK                         _______ _______ _______ _____ _____    ______ ____
ROOT
ATOM      1  C   UNL     1      48.366   6.822  13.305  0.00  0.00    +0.000 C 
ENDROOT
BRANCH   1   2
ATOM      2  C   UNL     1      47.184   6.181  12.622  0.00  0.00    +0.000 A 
ATOM      3  C   UNL     1      46.673   6.726  11.437  0.00  0.00    +0.000 A 
ATOM      4  C   UNL     1      45.590   6.127  10.794  0.00  0.00    +0.000 A 
ATOM      5  C   UNL     1      45.010   4.960  11.313  0.00  0.00    +0.000 A 
ATOM      6  C   UNL     1      45.520   4.421  12.501  0.00  0.00    +0.000 A 
ATOM      7  C   UNL     1      46.594   5.028  13.153  0.00  0.00    +0.000 A 
BRANCH   5   8
ATOM      8  C   UNL     1      43.861   4.293  10.594  0.00  0.00    +0.000 C 
BRANCH   8   9
ATOM      9  N   UNL     1      44.345   3.193   9.766  0.00  0.00    +0.000 NA
ATOM     10  H   UNL     1      43.628   2.470   9.723  0.00  0.00    +0.000 HD
BRANCH   9  11
ATOM     11  C   UNL     1      44.667   3.633   8.413  0.00  0.00    +0.000 C 
BRANCH  11  12
ATOM     12  C   UNL     1      45.813   2.823   7.860  0.00  0.00    +0.000 A 
ATOM     13  C   UNL     1      45.946   1.465   8.158  0.00  0.00    +0.000 A 
ATOM     14  C   UNL     1      47.037   0.776   7.648  0.00  0.00    +0.000 A 
ATOM     15  N   UNL     1      47.987   1.338   6.871  0.00  0.00    +0.000 NA
ATOM     16  C   UNL     1      47.839   2.651   6.590  0.00  0.00    +0.000 A 
ATOM     17  C   UNL     1      46.782   3.422   7.046  0.00  0.00    +0.000 A 
ENDBRANCH  11  12
ENDBRANCH   9  11
ENDBRANCH   8   9
ENDBRANCH   5   8
ENDBRANCH   1   2
BRANCH   1  18
ATOM     18  C   UNL     1      48.048   7.460  14.679  0.00  0.00    +0.000 C 
BRANCH  18  19
ATOM     19  C   UNL     1      49.296   7.613  15.522  0.00  0.00    +0.000 A 
ATOM     20  C   UNL     1      50.097   8.745  15.509  0.00  0.00    +0.000 A 
ATOM     21  S   UNL     1      51.407   8.652  16.603  0.00  0.00    +0.000 S 
ATOM     22  C   UNL     1      50.949   7.096  17.119  0.00  0.00    +0.000 A 
ATOM     23  N   UNL     1      51.648   6.432  18.079  0.00  0.00    +0.000 NA
ATOM     24  C   UNL     1      51.172   5.267  18.372  0.00  0.00    +0.000 A 
ATOM     25  N   UNL     1      50.067   4.700  17.791  0.00  0.00    +0.000 N 
ATOM     26  C   UNL     1      49.357   5.309  16.782  0.00  0.00    +0.000 A 
ATOM     27  O   UNL     1      48.423   4.737  16.228  0.00  0.00    +0.000 OA
ATOM     28  C   UNL     1      49.826   6.644  16.452  0.00  0.00    +0.000 A 
ATOM     29  H   UNL     1      49.760   3.775  18.050  0.00  0.00    +0.000 HD
ENDBRANCH  18  19
BRANCH  18  30
ATOM     30  N   UNL     1      47.406   8.776  14.619  0.00  0.00    +0.000 NA
ATOM     31  H   UNL     1      47.292   9.032  13.639  0.00  0.00    +0.000 HD
ATOM     32  H   UNL     1      48.070   9.466  14.989  0.00  0.00    +0.000 HD
ENDBRANCH  18  30
ENDBRANCH   1  18
TORSDOF 8
ENDMDL
MODEL 5
REMARK VINA RESULT:    -7.339      3.487      4.615
REMARK INTER + INTRA:         -11.366
REMARK INTER:                 -10.279
REMARK INTRA:                  -1.087
REMARK UNBOUND:                -0.809
REMARK  Name = 
REMARK  8 active torsions:
REMARK  status: ('A' for Active; 'I' for Inactive)
REMARK    1  A    between atoms: N_1  and  C_2
REMARK    2  A    between atoms: C_2  and  C_3
REMARK    3  A    between atoms: C_2  and  C_19
REMARK    4  A    between atoms: C_3  and  C_4
REMARK    5  A    between atoms: C_7  and  C_8
REMARK    6  A    between atoms: C_8  and  N_9
REMARK    7  A    between atoms: N_9  and  C_10
REMARK    8  A    between atoms: C_10  and  C_11
REMARK                            x       y       z     vdW  Elec       q    Type
REMARK                         _______ _______ _______ _____ _____    ______ ____
ROOT
ATOM      1  C   UNL     1      47.704   5.650  14.303  0.00  0.00    +0.000 C 
ENDROOT
BRANCH   1   2
ATOM      2  C   UNL     1      46.667   5.269  13.276  0.00  0.00    +0.000 A 
ATOM      3  C   UNL     1      46.242   3.939  13.165  0.00  0.00    +0.000 A 
ATOM      4  C   UNL     1      45.271   3.585  12.228  0.00  0.00    +0.000 A 
ATOM      5  C   UNL     1      44.694   4.557  11.397  0.00  0.00    +0.000 A 
ATOM      6  C   UNL     1      45.127   5.884  11.507  0.00  0.00    +0.000 A 
ATOM      7  C   UNL     1      46.108   6.238  12.435  0.00  0.00    +0.000 A 
BRANCH   5   8
ATOM      8  C   UNL     1      43.618   4.176  10.408  0.00  0.00    +0.000 C 
BRANCH   8   9
ATOM      9  N   UNL     1      44.139   3.231   9.424  0.00  0.00    +0.000 NA
ATOM     10  H   UNL     1      43.362   2.707   9.024  0.00  0.00    +0.000 HD
BRANCH   9  11
ATOM     11  C   UNL     1      44.866   3.908   8.356  0.00  0.00    +0.000 C 
BRANCH  11  12
ATOM     12  C   UNL     1      45.882   2.976   7.745  0.00  0.00    +0.000 A 
ATOM     13  C   UNL     1      46.658   3.370   6.653  0.00  0.00    +0.000 A 
ATOM     14  C   UNL     1      47.555   2.460   6.111  0.00  0.00    +0.000 A 
ATOM     15  N   UNL     1      47.731   1.206   6.579  0.00  0.00    +0.000 NA
ATOM     16  C   UNL     1      46.976   0.845   7.639  0.00  0.00    +0.000 A 
ATOM     17  C   UNL     1      46.059   1.683   8.252  0.00  0.00    +0.000 A 
ENDBRANCH  11  12
ENDBRANCH   9  11
ENDBRANCH   8   9
ENDBRANCH   5   8
ENDBRANCH   1   2
BRANCH   1  18
ATOM     18  C   UNL     1      48.448   6.975  14.006  0.00  0.00    +0.000 C 
BRANCH  18  19
ATOM     19  C   UNL     1      48.944   7.631  15.276  0.00  0.00    +0.000 A 
ATOM     20  C   UNL     1      49.113   6.952  16.474  0.00  0.00    +0.000 A 
ATOM     21  S   UNL     1      49.737   7.941  17.722  0.00  0.00    +0.000 S 
ATOM     22  C   UNL     1      49.792   9.303  16.703  0.00  0.00    +0.000 A 
ATOM     23  N   UNL     1      50.256  10.502  17.147  0.00  0.00    +0.000 NA
ATOM     24  C   UNL     1      50.247  11.438  16.255  0.00  0.00    +0.000 A 
ATOM     25  N   UNL     1      49.811  11.289  14.964  0.00  0.00    +0.000 N 
ATOM     26  C   UNL     1      49.286  10.112  14.483  0.00  0.00    +0.000 A 
ATOM     27  O   UNL     1      48.828  10.038  13.347  0.00  0.00    +0.000 OA
ATOM     28  C   UNL     1      49.322   9.016  15.436  0.00  0.00    +0.000 A 
ATOM     29  H   UNL     1      49.809  12.068  14.323  0.00  0.00    +0.000 HD
ENDBRANCH  18  19
BRANCH  18  30
ATOM     30  N   UNL     1      49.599   6.853  13.108  0.00  0.00    +0.000 NA
ATOM     31  H   UNL     1      49.263   6.550  12.194  0.00  0.00    +0.000 HD
ATOM     32  H   UNL     1      50.176   6.072  13.441  0.00  0.00    +0.000 HD
ENDBRANCH  18  30
ENDBRANCH   1  18
TORSDOF 8
ENDMDL
MODEL 6
REMARK VINA RESULT:    -7.337      4.336      5.922
REMARK INTER + INTRA:         -11.364
REMARK INTER:                 -10.274
REMARK INTRA:                  -1.090
REMARK UNBOUND:                -0.809
REMARK  Name = 
REMARK  8 active torsions:
REMARK  status: ('A' for Active; 'I' for Inactive)
REMARK    1  A    between atoms: N_1  and  C_2
REMARK    2  A    between atoms: C_2  and  C_3
REMARK    3  A    between atoms: C_2  and  C_19
REMARK    4  A    between atoms: C_3  and  C_4
REMARK    5  A    between atoms: C_7  and  C_8
REMARK    6  A    between atoms: C_8  and  N_9
REMARK    7  A    between atoms: N_9  and  C_10
REMARK    8  A    between atoms: C_10  and  C_11
REMARK                            x       y       z     vdW  Elec       q    Type
REMARK                         _______ _______ _______ _____ _____    ______ ____
ROOT
ATOM      1  C   UNL     1      47.761   7.230  13.703  0.00  0.00    +0.000 C 
ENDROOT
BRANCH   1   2
ATOM      2  C   UNL     1      46.716   6.471  12.923  0.00  0.00    +0.000 A 
ATOM      3  C   UNL     1      46.009   7.103  11.892  0.00  0.00    +0.000 A 
ATOM      4  C   UNL     1      45.053   6.400  11.158  0.00  0.00    +0.000 A 
ATOM      5  C   UNL     1      44.800   5.047  11.429  0.00  0.00    +0.000 A 
ATOM      6  C   UNL     1      45.504   4.421  12.465  0.00  0.00    +0.000 A 
ATOM      7  C   UNL     1      46.450   5.127  13.209  0.00  0.00    +0.000 A 
BRANCH   5   8
ATOM      8  C   UNL     1      43.790   4.280  10.608  0.00  0.00    +0.000 C 
BRANCH   8   9
ATOM      9  N   UNL     1      44.456   3.264   9.798  0.00  0.00    +0.000 NA
ATOM     10  H   UNL     1      43.836   2.461   9.699  0.00  0.00    +0.000 HD
BRANCH   9  11
ATOM     11  C   UNL     1      44.807   3.769   8.476  0.00  0.00    +0.000 C 
BRANCH  11  12
ATOM     12  C   UNL     1      45.854   2.887   7.842  0.00  0.00    +0.000 A 
ATOM     13  C   UNL     1      46.000   1.552   8.224  0.00  0.00    +0.000 A 
ATOM     14  C   UNL     1      47.000   0.796   7.630  0.00  0.00    +0.000 A 
ATOM     15  N   UNL     1      47.850   1.272   6.695  0.00  0.00    +0.000 NA
ATOM     16  C   UNL     1      47.690   2.563   6.335  0.00  0.00    +0.000 A 
ATOM     17  C   UNL     1      46.718   3.396   6.865  0.00  0.00    +0.000 A 
ENDBRANCH  11  12
ENDBRANCH   9  11
ENDBRANCH   8   9
ENDBRANCH   5   8
ENDBRANCH   1   2
BRANCH   1  18
ATOM     18  C   UNL     1      49.096   7.447  12.949  0.00  0.00    +0.000 C 
BRANCH  18  19
ATOM     19  C   UNL     1      49.200   8.853  12.400  0.00  0.00    +0.000 A 
ATOM     20  C   UNL     1      48.323   9.874  12.732  0.00  0.00    +0.000 A 
ATOM     21  S   UNL     1      48.721  11.366  11.998  0.00  0.00    +0.000 S 
ATOM     22  C   UNL     1      50.070  10.691  11.210  0.00  0.00    +0.000 A 
ATOM     23  N   UNL     1      50.881  11.445  10.419  0.00  0.00    +0.000 NA
ATOM     24  C   UNL     1      51.869  10.795   9.898  0.00  0.00    +0.000 A 
ATOM     25  N   UNL     1      52.120   9.461  10.089  0.00  0.00    +0.000 N 
ATOM     26  C   UNL     1      51.303   8.646  10.838  0.00  0.00    +0.000 A 
ATOM     27  O   UNL     1      51.510   7.439  10.918  0.00  0.00    +0.000 OA
ATOM     28  C   UNL     1      50.204   9.343  11.484  0.00  0.00    +0.000 A 
ATOM     29  H   UNL     1      52.898   9.008   9.634  0.00  0.00    +0.000 HD
ENDBRANCH  18  19
BRANCH  18  30
ATOM     30  N   UNL     1      50.304   7.205  13.743  0.00  0.00    +0.000 NA
ATOM     31  H   UNL     1      50.711   6.319  13.444  0.00  0.00    +0.000 HD
ATOM     32  H   UNL     1      50.013   7.039  14.713  0.00  0.00    +0.000 HD
ENDBRANCH  18  30
ENDBRANCH   1  18
TORSDOF 8
ENDMDL
MODEL 7
REMARK VINA RESULT:    -7.189      3.597      8.723
REMARK INTER + INTRA:         -11.151
REMARK INTER:                  -9.690
REMARK INTRA:                  -1.460
REMARK UNBOUND:                -0.809
REMARK  Name = 
REMARK  8 active torsions:
REMARK  status: ('A' for Active; 'I' for Inactive)
REMARK    1  A    between atoms: N_1  and  C_2
REMARK    2  A    between atoms: C_2  and  C_3
REMARK    3  A    between atoms: C_2  and  C_19
REMARK    4  A    between atoms: C_3  and  C_4
REMARK    5  A    between atoms: C_7  and  C_8
REMARK    6  A    between atoms: C_8  and  N_9
REMARK    7  A    between atoms: N_9  and  C_10
REMARK    8  A    between atoms: C_10  and  C_11
REMARK                            x       y       z     vdW  Elec       q    Type
REMARK                         _______ _______ _______ _____ _____    ______ ____
ROOT
ATOM      1  C   UNL     1      44.767   6.953  12.718  0.00  0.00    +0.000 C 
ENDROOT
BRANCH   1   2
ATOM      2  C   UNL     1      46.226   7.334  12.692  0.00  0.00    +0.000 A 
ATOM      3  C   UNL     1      46.608   8.672  12.853  0.00  0.00    +0.000 A 
ATOM      4  C   UNL     1      47.957   9.027  12.847  0.00  0.00    +0.000 A 
ATOM      5  C   UNL     1      48.950   8.048  12.698  0.00  0.00    +0.000 A 
ATOM      6  C   UNL     1      48.564   6.712  12.531  0.00  0.00    +0.000 A 
ATOM      7  C   UNL     1      47.215   6.358  12.524  0.00  0.00    +0.000 A 
BRANCH   5   8
ATOM      8  C   UNL     1      50.411   8.432  12.728  0.00  0.00    +0.000 C 
BRANCH   8   9
ATOM      9  N   UNL     1      51.116   7.681  13.763  0.00  0.00    +0.000 NA
ATOM     10  H   UNL     1      52.120   7.804  13.636  0.00  0.00    +0.000 HD
BRANCH   9  11
ATOM     11  C   UNL     1      50.742   8.122  15.102  0.00  0.00    +0.000 C 
BRANCH  11  12
ATOM     12  C   UNL     1      50.358   6.938  15.953  0.00  0.00    +0.000 A 
ATOM     13  C   UNL     1      49.021   6.563  16.108  0.00  0.00    +0.000 A 
ATOM     14  C   UNL     1      48.723   5.485  16.928  0.00  0.00    +0.000 A 
ATOM     15  N   UNL     1      49.652   4.764  17.591  0.00  0.00    +0.000 NA
ATOM     16  C   UNL     1      50.939   5.137  17.426  0.00  0.00    +0.000 A 
ATOM     17  C   UNL     1      51.337   6.195  16.624  0.00  0.00    +0.000 A 
ENDBRANCH  11  12
ENDBRANCH   9  11
ENDBRANCH   8   9
ENDBRANCH   5   8
ENDBRANCH   1   2
BRANCH   1  18
ATOM     18  C   UNL     1      44.180   6.559  11.340  0.00  0.00    +0.000 C 
BRANCH  18  19
ATOM     19  C   UNL     1      44.068   5.057  11.193  0.00  0.00    +0.000 A 
ATOM     20  C   UNL     1      43.343   4.253  12.060  0.00  0.00    +0.000 A 
ATOM     21  S   UNL     1      43.355   2.603  11.612  0.00  0.00    +0.000 S 
ATOM     22  C   UNL     1      44.336   2.912  10.255  0.00  0.00    +0.000 A 
ATOM     23  N   UNL     1      44.711   1.915   9.409  0.00  0.00    +0.000 NA
ATOM     24  C   UNL     1      45.444   2.307   8.420  0.00  0.00    +0.000 A 
ATOM     25  N   UNL     1      45.843   3.600   8.200  0.00  0.00    +0.000 N 
ATOM     26  C   UNL     1      45.532   4.634   9.053  0.00  0.00    +0.000 A 
ATOM     27  O   UNL     1      45.976   5.763   8.871  0.00  0.00    +0.000 OA
ATOM     28  C   UNL     1      44.667   4.250  10.156  0.00  0.00    +0.000 A 
ATOM     29  H   UNL     1      46.436   3.836   7.419  0.00  0.00    +0.000 HD
ENDBRANCH  18  19
BRANCH  18  30
ATOM     30  N   UNL     1      42.858   7.119  11.045  0.00  0.00    +0.000 NA
ATOM     31  H   UNL     1      42.370   6.477  10.421  0.00  0.00    +0.000 HD
ATOM     32  H   UNL     1      42.995   7.967  10.483  0.00  0.00    +0.000 HD
ENDBRANCH  18  30
ENDBRANCH   1  18
TORSDOF 8
ENDMDL
MODEL 8
REMARK VINA RESULT:    -7.023      5.128      7.912
REMARK INTER + INTRA:         -10.911
REMARK INTER:                  -9.989
REMARK INTRA:                  -0.922
REMARK UNBOUND:                -0.809
REMARK  Name = 
REMARK  8 active torsions:
REMARK  status: ('A' for Active; 'I' for Inactive)
REMARK    1  A    between atoms: N_1  and  C_2
REMARK    2  A    between atoms: C_2  and  C_3
REMARK    3  A    between atoms: C_2  and  C_19
REMARK    4  A    between atoms: C_3  and  C_4
REMARK    5  A    between atoms: C_7  and  C_8
REMARK    6  A    between atoms: C_8  and  N_9
REMARK    7  A    between atoms: N_9  and  C_10
REMARK    8  A    between atoms: C_10  and  C_11
REMARK                            x       y       z     vdW  Elec       q    Type
REMARK                         _______ _______ _______ _____ _____    ______ ____
ROOT
ATOM      1  C   UNL     1      44.976   7.063  12.640  0.00  0.00    +0.000 C 
ENDROOT
BRANCH   1   2
ATOM      2  C   UNL     1      46.444   7.380  12.498  0.00  0.00    +0.000 A 
ATOM      3  C   UNL     1      47.403   6.377  12.688  0.00  0.00    +0.000 A 
ATOM      4  C   UNL     1      48.761   6.662  12.542  0.00  0.00    +0.000 A 
ATOM      5  C   UNL     1      49.184   7.951  12.186  0.00  0.00    +0.000 A 
ATOM      6  C   UNL     1      48.223   8.953  12.004  0.00  0.00    +0.000 A 
ATOM      7  C   UNL     1      46.865   8.673  12.163  0.00  0.00    +0.000 A 
BRANCH   5   8
ATOM      8  C   UNL     1      50.653   8.247  11.994  0.00  0.00    +0.000 C 
BRANCH   8   9
ATOM      9  N   UNL     1      51.243   7.310  11.042  0.00  0.00    +0.000 NA
ATOM     10  H   UNL     1      50.604   7.188  10.257  0.00  0.00    +0.000 HD
BRANCH   9  11
ATOM     11  C   UNL     1      52.532   7.781  10.546  0.00  0.00    +0.000 C 
BRANCH  11  12
ATOM     12  C   UNL     1      53.044   6.859   9.467  0.00  0.00    +0.000 A 
ATOM     13  C   UNL     1      52.501   6.882   8.181  0.00  0.00    +0.000 A 
ATOM     14  C   UNL     1      52.989   5.990   7.237  0.00  0.00    +0.000 A 
ATOM     15  N   UNL     1      53.967   5.093   7.483  0.00  0.00    +0.000 NA
ATOM     16  C   UNL     1      54.483   5.089   8.731  0.00  0.00    +0.000 A 
ATOM     17  C   UNL     1      54.067   5.944   9.739  0.00  0.00    +0.000 A 
ENDBRANCH  11  12
ENDBRANCH   9  11
ENDBRANCH   8   9
ENDBRANCH   5   8
ENDBRANCH   1   2
BRANCH   1  18
ATOM     18  C   UNL     1      44.273   6.663  11.319  0.00  0.00    +0.000 C 
BRANCH  18  19
ATOM     19  C   UNL     1      44.113   5.162  11.209  0.00  0.00    +0.000 A 
ATOM     20  C   UNL     1      43.369   4.403  12.100  0.00  0.00    +0.000 A 
ATOM     21  S   UNL     1      43.325   2.743  11.692  0.00  0.00    +0.000 S 
ATOM     22  C   UNL     1      44.304   2.988  10.321  0.00  0.00    +0.000 A 
ATOM     23  N   UNL     1      44.641   1.960   9.497  0.00  0.00    +0.000 NA
ATOM     24  C   UNL     1      45.379   2.304   8.493  0.00  0.00    +0.000 A 
ATOM     25  N   UNL     1      45.817   3.578   8.240  0.00  0.00    +0.000 N 
ATOM     26  C   UNL     1      45.546   4.641   9.070  0.00  0.00    +0.000 A 
ATOM     27  O   UNL     1      46.024   5.752   8.858  0.00  0.00    +0.000 OA
ATOM     28  C   UNL     1      44.677   4.312  10.187  0.00  0.00    +0.000 A 
ATOM     29  H   UNL     1      46.411   3.776   7.449  0.00  0.00    +0.000 HD
ENDBRANCH  18  19
BRANCH  18  30
ATOM     30  N   UNL     1      42.948   7.253  11.117  0.00  0.00    +0.000 NA
ATOM     31  H   UNL     1      42.759   7.282  10.116  0.00  0.00    +0.000 HD
ATOM     32  H   UNL     1      42.997   8.239  11.397  0.00  0.00    +0.000 HD
ENDBRANCH  18  30
ENDBRANCH   1  18
TORSDOF 8
ENDMDL
MODEL 9
REMARK VINA RESULT:    -6.989      3.286      8.647
REMARK INTER + INTRA:         -10.863
REMARK INTER:                  -9.755
REMARK INTRA:                  -1.108
REMARK UNBOUND:                -0.809
REMARK  Name = 
REMARK  8 active torsions:
REMARK  status: ('A' for Active; 'I' for Inactive)
REMARK    1  A    between atoms: N_1  and  C_2
REMARK    2  A    between atoms: C_2  and  C_3
REMARK    3  A    between atoms: C_2  and  C_19
REMARK    4  A    between atoms: C_3  and  C_4
REMARK    5  A    between atoms: C_7  and  C_8
REMARK    6  A    between atoms: C_8  and  N_9
REMARK    7  A    between atoms: N_9  and  C_10
REMARK    8  A    between atoms: C_10  and  C_11
REMARK                            x       y       z     vdW  Elec       q    Type
REMARK                         _______ _______ _______ _____ _____    ______ ____
ROOT
ATOM      1  C   UNL     1      46.953   6.857  11.430  0.00  0.00    +0.000 C 
ENDROOT
BRANCH   1   2
ATOM      2  C   UNL     1      47.473   7.136  12.818  0.00  0.00    +0.000 A 
ATOM      3  C   UNL     1      47.752   6.079  13.693  0.00  0.00    +0.000 A 
ATOM      4  C   UNL     1      48.249   6.332  14.971  0.00  0.00    +0.000 A 
ATOM      5  C   UNL     1      48.494   7.648  15.393  0.00  0.00    +0.000 A 
ATOM      6  C   UNL     1      48.208   8.703  14.517  0.00  0.00    +0.000 A 
ATOM      7  C   UNL     1      47.698   8.451  13.243  0.00  0.00    +0.000 A 
BRANCH   5   8
ATOM      8  C   UNL     1      49.066   7.916  16.765  0.00  0.00    +0.000 C 
BRANCH   8   9
ATOM      9  N   UNL     1      48.170   7.411  17.800  0.00  0.00    +0.000 NA
ATOM     10  H   UNL     1      47.365   6.972  17.356  0.00  0.00    +0.000 HD
BRANCH   9  11
ATOM     11  C   UNL     1      48.832   6.441  18.665  0.00  0.00    +0.000 C 
BRANCH  11  12
ATOM     12  C   UNL     1      48.672   5.049  18.107  0.00  0.00    +0.000 A 
ATOM     13  C   UNL     1      47.406   4.500  17.890  0.00  0.00    +0.000 A 
ATOM     14  C   UNL     1      47.318   3.204  17.406  0.00  0.00    +0.000 A 
ATOM     15  N   UNL     1      48.388   2.430  17.123  0.00  0.00    +0.000 NA
ATOM     16  C   UNL     1      49.603   2.980  17.335  0.00  0.00    +0.000 A 
ATOM     17  C   UNL     1      49.794   4.267  17.810  0.00  0.00    +0.000 A 
ENDBRANCH  11  12
ENDBRANCH   9  11
ENDBRANCH   8   9
ENDBRANCH   5   8
ENDBRANCH   1   2
BRANCH   1  18
ATOM     18  C   UNL     1      45.409   6.860  11.308  0.00  0.00    +0.000 C 
BRANCH  18  19
ATOM     19  C   UNL     1      44.842   5.461  11.412  0.00  0.00    +0.000 A 
ATOM     20  C   UNL     1      44.199   4.975  12.541  0.00  0.00    +0.000 A 
ATOM     21  S   UNL     1      43.618   3.379  12.347  0.00  0.00    +0.000 S 
ATOM     22  C   UNL     1      44.215   3.287  10.755  0.00  0.00    +0.000 A 
ATOM     23  N   UNL     1      44.035   2.174   9.993  0.00  0.00    +0.000 NA
ATOM     24  C   UNL     1      44.534   2.258   8.805  0.00  0.00    +0.000 A 
ATOM     25  N   UNL     1      45.201   3.348   8.307  0.00  0.00    +0.000 N 
ATOM     26  C   UNL     1      45.452   4.476   9.054  0.00  0.00    +0.000 A 
ATOM     27  O   UNL     1      46.124   5.399   8.604  0.00  0.00    +0.000 OA
ATOM     28  C   UNL     1      44.866   4.447  10.383  0.00  0.00    +0.000 A 
ATOM     29  H   UNL     1      45.587   3.341   7.375  0.00  0.00    +0.000 HD
ENDBRANCH  18  19
BRANCH  18  30
ATOM     30  N   UNL     1      44.709   7.682  12.299  0.00  0.00    +0.000 NA
ATOM     31  H   UNL     1      45.340   8.424  12.602  0.00  0.00    +0.000 HD
ATOM     32  H   UNL     1      44.567   7.108  13.138  0.00  0.00    +0.000 HD
ENDBRANCH  18  30
ENDBRANCH   1  18
TORSDOF 8
ENDMDL
