MODEL 1
REMARK VINA RESULT:    -7.495      0.000      0.000
REMARK INTER + INTRA:         -14.461
REMARK INTER:                 -12.314
REMARK INTRA:                  -2.147
REMARK UNBOUND:                -2.147
REMARK  Name = 
REMARK  12 active torsions:
REMARK  status: ('A' for Active; 'I' for Inactive)
REMARK    1  A    between atoms: C_1  and  C_2
REMARK    2  A    between atoms: C_2  and  N_3
REMARK    3  A    between atoms: C_2  and  C_20
REMARK    4  A    between atoms: N_3  and  C_4
REMARK    5  A    between atoms: C_4  and  C_5
REMARK    6  A    between atoms: C_8  and  C_9
REMARK    7  A    between atoms: C_9  and  N_10
REMARK    8  A    between atoms: N_10  and  C_11
REMARK    9  A    between atoms: C_11  and  C_12
REMARK   10  A    between atoms: C_23  and  C_24
REMARK   11  A    between atoms: N_26  and  C_27
REMARK   12  A    between atoms: C_27  and  C_28
REMARK                            x       y       z     vdW  Elec       q    Type
REMARK                         _______ _______ _______ _____ _____    ______ ____
ROOT
ATOM      1  C   UNL     1      49.127   9.456  13.627  0.00  0.00    +0.000 C 
ATOM      2  C   UNL     1      48.326   8.463  14.485  0.00  0.00    +0.000 C 
ENDROOT
BRANCH   2   3
ATOM      3  C   UNL     1      47.541   7.523  13.582  0.00  0.00    +0.000 A 
ATOM      4  C   UNL     1      46.756   8.063  12.556  0.00  0.00    +0.000 A 
ATOM      5  C   UNL     1      45.993   7.232  11.721  0.00  0.00    +0.000 A 
ATOM      6  C   UNL     1      46.014   5.844  11.905  0.00  0.00    +0.000 A 
ATOM      7  C   UNL     1      46.835   5.302  12.896  0.00  0.00    +0.000 A 
ATOM      8  C   UNL     1      47.586   6.129  13.735  0.00  0.00    +0.000 A 
BRANCH   6   9
ATOM      9  C   UNL     1      45.186   4.951  11.055  0.00  0.00    +0.000 C 
ATOM     10  O   UNL     1      44.357   4.215  11.552  0.00  0.00    +0.000 OA
ATOM     11  N   UNL     1      45.429   5.001   9.683  0.00  0.00    +0.000 N 
ATOM     12  H   UNL     1      46.074   5.672   9.292  0.00  0.00    +0.000 HD
BRANCH  11  13
ATOM     13  C   UNL     1      44.653   4.202   8.766  0.00  0.00    +0.000 C 
BRANCH  13  14
ATOM     14  C   UNL     1      45.498   3.147   8.119  0.00  0.00    +0.000 A 
ATOM     15  C   UNL     1      46.261   3.431   6.982  0.00  0.00    +0.000 A 
ATOM     16  C   UNL     1      47.058   2.439   6.419  0.00  0.00    +0.000 A 
ATOM     17  C   UNL     1      47.073   1.193   7.020  0.00  0.00    +0.000 A 
ATOM     18  N   UNL     1      46.358   0.881   8.124  0.00  0.00    +0.000 NA
ATOM     19  C   UNL     1      45.592   1.866   8.646  0.00  0.00    +0.000 A 
ENDBRANCH  13  14
ENDBRANCH  11  13
ENDBRANCH   6   9
ENDBRANCH   2   3
BRANCH   2  20
ATOM     20  N   UNL     1      47.486   9.183  15.445  0.00  0.00    +0.000 NA
ATOM     21  H   UNL     1      46.835   8.539  15.890  0.00  0.00    +0.000 HD
BRANCH  20  22
ATOM     22  C   UNL     1      48.276   9.838  16.491  0.00  0.00    +0.000 C 
BRANCH  22  23
ATOM     23  C   UNL     1      48.436   8.943  17.690  0.00  0.00    +0.000 A 
ATOM     24  C   UNL     1      47.375   8.757  18.585  0.00  0.00    +0.000 A 
ATOM     25  C   UNL     1      47.518   7.895  19.672  0.00  0.00    +0.000 A 
ATOM     26  C   UNL     1      48.720   7.200  19.882  0.00  0.00    +0.000 A 
ATOM     27  C   UNL     1      49.788   7.411  18.999  0.00  0.00    +0.000 A 
ATOM     28  C   UNL     1      49.649   8.286  17.923  0.00  0.00    +0.000 A 
BRANCH  26  29
ATOM     29  C   UNL     1      48.886   6.246  21.045  0.00  0.00    +0.000 C 
BRANCH  29  30
ATOM     30  N   UNL     1      48.107   5.031  20.823  0.00  0.00    +0.000 NA
ATOM     31  H   UNL     1      47.329   5.257  20.200  0.00  0.00    +0.000 HD
BRANCH  30  32
ATOM     32  C   UNL     1      48.891   3.962  20.195  0.00  0.00    +0.000 C 
BRANCH  32  33
ATOM     33  C   UNL     1      48.469   3.729  18.753  0.00  0.00    +0.000 A 
ATOM     34  C   UNL     1      47.405   4.437  18.192  0.00  0.00    +0.000 A 
ATOM     35  C   UNL     1      47.071   4.215  16.857  0.00  0.00    +0.000 A 
ATOM     36  C   UNL     1      47.792   3.280  16.123  0.00  0.00    +0.000 A 
ATOM     37  C   UNL     1      48.822   2.611  16.757  0.00  0.00    +0.000 A 
ATOM     38  N   UNL     1      49.182   2.815  18.044  0.00  0.00    +0.000 NA
ENDBRANCH  32  33
ENDBRANCH  30  32
ENDBRANCH  29  30
ENDBRANCH  26  29
ENDBRANCH  22  23
ENDBRANCH  20  22
ENDBRANCH   2  20
TORSDOF 11
ENDMDL
MODEL 2
REMARK VINA RESULT:    -7.321      4.707      9.135
REMARK INTER + INTRA:         -14.177
REMARK INTER:                 -12.189
REMARK INTRA:                  -1.987
REMARK UNBOUND:                -2.147
REMARK  Name = 
REMARK  12 active torsions:
REMARK  status: ('A' for Active; 'I' for Inactive)
REMARK    1  A    between atoms: C_1  and  C_2
REMARK    2  A    between atoms: C_2  and  N_3
REMARK    3  A    between atoms: C_2  and  C_20
REMARK    4  A    between atoms: N_3  and  C_4
REMARK    5  A    between atoms: C_4  and  C_5
REMARK    6  A    between atoms: C_8  and  C_9
REMARK    7  A    between atoms: C_9  and  N_10
REMARK    8  A    between atoms: N_10  and  C_11
REMARK    9  A    between atoms: C_11  and  C_12
REMARK   10  A    between atoms: C_23  and  C_24
REMARK   11  A    between atoms: N_26  and  C_27
REMARK   12  A    between atoms: C_27  and  C_28
REMARK                            x       y       z     vdW  Elec       q    Type
REMARK                         _______ _______ _______ _____ _____    ______ ____
ROOT
ATOM      1  C   UNL     1      47.982   9.227  14.149  0.00  0.00    +0.000 C 
ATOM      2  C   UNL     1      48.100   9.381  12.624  0.00  0.00    +0.000 C 
ENDROOT
BRANCH   2   3
ATOM      3  C   UNL     1      46.826  10.002  12.070  0.00  0.00    +0.000 A 
ATOM      4  C   UNL     1      45.589   9.474  12.457  0.00  0.00    +0.000 A 
ATOM      5  C   UNL     1      44.392   9.999  11.945  0.00  0.00    +0.000 A 
ATOM      6  C   UNL     1      44.425  11.068  11.042  0.00  0.00    +0.000 A 
ATOM      7  C   UNL     1      45.657  11.627  10.695  0.00  0.00    +0.000 A 
ATOM      8  C   UNL     1      46.850  11.098  11.195  0.00  0.00    +0.000 A 
BRANCH   6   9
ATOM      9  C   UNL     1      43.171  11.614  10.462  0.00  0.00    +0.000 C 
ATOM     10  O   UNL     1      43.162  12.698   9.914  0.00  0.00    +0.000 OA
ATOM     11  N   UNL     1      42.030  10.825  10.600  0.00  0.00    +0.000 N 
ATOM     12  H   UNL     1      42.081   9.899  10.997  0.00  0.00    +0.000 HD
BRANCH  11  13
ATOM     13  C   UNL     1      40.769  11.246  10.038  0.00  0.00    +0.000 C 
BRANCH  13  14
ATOM     14  C   UNL     1      39.832  11.720  11.107  0.00  0.00    +0.000 A 
ATOM     15  C   UNL     1      40.135  11.547  12.462  0.00  0.00    +0.000 A 
ATOM     16  C   UNL     1      39.259  12.023  13.431  0.00  0.00    +0.000 A 
ATOM     17  C   UNL     1      38.108  12.668  13.013  0.00  0.00    +0.000 A 
ATOM     18  N   UNL     1      37.783  12.864  11.716  0.00  0.00    +0.000 NA
ATOM     19  C   UNL     1      38.654  12.388  10.797  0.00  0.00    +0.000 A 
ENDBRANCH  13  14
ENDBRANCH  11  13
ENDBRANCH   6   9
ENDBRANCH   2   3
BRANCH   2  20
ATOM     20  N   UNL     1      48.434   8.094  12.008  0.00  0.00    +0.000 NA
ATOM     21  H   UNL     1      49.405   8.096  11.701  0.00  0.00    +0.000 HD
BRANCH  20  22
ATOM     22  C   UNL     1      48.245   6.972  12.931  0.00  0.00    +0.000 C 
BRANCH  22  23
ATOM     23  C   UNL     1      47.098   6.100  12.498  0.00  0.00    +0.000 A 
ATOM     24  C   UNL     1      46.474   6.308  11.260  0.00  0.00    +0.000 A 
ATOM     25  C   UNL     1      45.438   5.470  10.849  0.00  0.00    +0.000 A 
ATOM     26  C   UNL     1      45.010   4.407  11.661  0.00  0.00    +0.000 A 
ATOM     27  C   UNL     1      45.619   4.221  12.910  0.00  0.00    +0.000 A 
ATOM     28  C   UNL     1      46.642   5.070  13.328  0.00  0.00    +0.000 A 
BRANCH  26  29
ATOM     29  C   UNL     1      43.900   3.476  11.221  0.00  0.00    +0.000 C 
BRANCH  29  30
ATOM     30  N   UNL     1      43.884   3.355   9.766  0.00  0.00    +0.000 NA
ATOM     31  H   UNL     1      44.506   4.066   9.377  0.00  0.00    +0.000 HD
BRANCH  30  32
ATOM     32  C   UNL     1      44.351   2.044   9.302  0.00  0.00    +0.000 C 
BRANCH  32  33
ATOM     33  C   UNL     1      45.530   2.172   8.350  0.00  0.00    +0.000 A 
ATOM     34  C   UNL     1      45.811   3.382   7.713  0.00  0.00    +0.000 A 
ATOM     35  C   UNL     1      46.919   3.465   6.871  0.00  0.00    +0.000 A 
ATOM     36  C   UNL     1      47.706   2.337   6.673  0.00  0.00    +0.000 A 
ATOM     37  C   UNL     1      47.352   1.172   7.330  0.00  0.00    +0.000 A 
ATOM     38  N   UNL     1      46.294   1.064   8.165  0.00  0.00    +0.000 NA
ENDBRANCH  32  33
ENDBRANCH  30  32
ENDBRANCH  29  30
ENDBRANCH  26  29
ENDBRANCH  22  23
ENDBRANCH  20  22
ENDBRANCH   2  20
TORSDOF 11
ENDMDL
MODEL 3
REMARK VINA RESULT:    -7.126      5.410      8.281
REMARK INTER + INTRA:         -13.855
REMARK INTER:                 -12.169
REMARK INTRA:                  -1.686
REMARK UNBOUND:                -2.147
REMARK  Name = 
REMARK  12 active torsions:
REMARK  status: ('A' for Active; 'I' for Inactive)
REMARK    1  A    between atoms: C_1  and  C_2
REMARK    2  A    between atoms: C_2  and  N_3
REMARK    3  A    between atoms: C_2  and  C_20
REMARK    4  A    between atoms: N_3  and  C_4
REMARK    5  A    between atoms: C_4  and  C_5
REMARK    6  A    between atoms: C_8  and  C_9
REMARK    7  A    between atoms: C_9  and  N_10
REMARK    8  A    between atoms: N_10  and  C_11
REMARK    9  A    between atoms: C_11  and  C_12
REMARK   10  A    between atoms: C_23  and  C_24
REMARK   11  A    between atoms: N_26  and  C_27
REMARK   12  A    between atoms: C_27  and  C_28
REMARK                            x       y       z     vdW  Elec       q    Type
REMARK                         _______ _______ _______ _____ _____    ______ ____
ROOT
ATOM      1  C   UNL     1      45.420  11.271  10.868  0.00  0.00    +0.000 C 
ATOM      2  C   UNL     1      45.879  10.497  12.115  0.00  0.00    +0.000 C 
ENDROOT
BRANCH   2   3
ATOM      3  C   UNL     1      47.346  10.119  11.972  0.00  0.00    +0.000 A 
ATOM      4  C   UNL     1      48.238  11.050  11.426  0.00  0.00    +0.000 A 
ATOM      5  C   UNL     1      49.593  10.728  11.250  0.00  0.00    +0.000 A 
ATOM      6  C   UNL     1      50.068   9.467  11.626  0.00  0.00    +0.000 A 
ATOM      7  C   UNL     1      49.189   8.557  12.216  0.00  0.00    +0.000 A 
ATOM      8  C   UNL     1      47.838   8.871  12.382  0.00  0.00    +0.000 A 
BRANCH   6   9
ATOM      9  C   UNL     1      51.491   9.095  11.414  0.00  0.00    +0.000 C 
ATOM     10  O   UNL     1      52.386   9.804  11.830  0.00  0.00    +0.000 OA
ATOM     11  N   UNL     1      51.725   7.915  10.709  0.00  0.00    +0.000 N 
ATOM     12  H   UNL     1      50.964   7.310  10.438  0.00  0.00    +0.000 HD
BRANCH  11  13
ATOM     13  C   UNL     1      53.069   7.444  10.484  0.00  0.00    +0.000 C 
BRANCH  13  14
ATOM     14  C   UNL     1      53.155   6.636   9.224  0.00  0.00    +0.000 A 
ATOM     15  C   UNL     1      54.065   5.581   9.104  0.00  0.00    +0.000 A 
ATOM     16  C   UNL     1      54.102   4.832   7.932  0.00  0.00    +0.000 A 
ATOM     17  C   UNL     1      53.218   5.158   6.919  0.00  0.00    +0.000 A 
ATOM     18  N   UNL     1      52.318   6.163   6.999  0.00  0.00    +0.000 NA
ATOM     19  C   UNL     1      52.307   6.874   8.149  0.00  0.00    +0.000 A 
ENDBRANCH  13  14
ENDBRANCH  11  13
ENDBRANCH   6   9
ENDBRANCH   2   3
BRANCH   2  20
ATOM     20  N   UNL     1      45.002   9.347  12.349  0.00  0.00    +0.000 NA
ATOM     21  H   UNL     1      44.233   9.614  12.960  0.00  0.00    +0.000 HD
BRANCH  20  22
ATOM     22  C   UNL     1      44.440   8.815  11.106  0.00  0.00    +0.000 C 
BRANCH  22  23
ATOM     23  C   UNL     1      44.231   7.328  11.196  0.00  0.00    +0.000 A 
ATOM     24  C   UNL     1      42.954   6.802  11.431  0.00  0.00    +0.000 A 
ATOM     25  C   UNL     1      42.762   5.421  11.473  0.00  0.00    +0.000 A 
ATOM     26  C   UNL     1      43.839   4.541  11.278  0.00  0.00    +0.000 A 
ATOM     27  C   UNL     1      45.119   5.073  11.070  0.00  0.00    +0.000 A 
ATOM     28  C   UNL     1      45.313   6.452  11.045  0.00  0.00    +0.000 A 
BRANCH  26  29
ATOM     29  C   UNL     1      43.645   3.040  11.300  0.00  0.00    +0.000 C 
BRANCH  29  30
ATOM     30  N   UNL     1      44.773   2.370  10.660  0.00  0.00    +0.000 NA
ATOM     31  H   UNL     1      45.040   1.569  11.235  0.00  0.00    +0.000 HD
BRANCH  30  32
ATOM     32  C   UNL     1      44.448   1.873   9.318  0.00  0.00    +0.000 C 
BRANCH  32  33
ATOM     33  C   UNL     1      45.590   2.106   8.341  0.00  0.00    +0.000 A 
ATOM     34  C   UNL     1      45.802   3.363   7.771  0.00  0.00    +0.000 A 
ATOM     35  C   UNL     1      46.879   3.541   6.904  0.00  0.00    +0.000 A 
ATOM     36  C   UNL     1      47.702   2.460   6.612  0.00  0.00    +0.000 A 
ATOM     37  C   UNL     1      47.415   1.245   7.207  0.00  0.00    +0.000 A 
ATOM     38  N   UNL     1      46.390   1.043   8.065  0.00  0.00    +0.000 NA
ENDBRANCH  32  33
ENDBRANCH  30  32
ENDBRANCH  29  30
ENDBRANCH  26  29
ENDBRANCH  22  23
ENDBRANCH  20  22
ENDBRANCH   2  20
TORSDOF 11
ENDMDL
MODEL 4
REMARK VINA RESULT:    -7.038      2.552      8.844
REMARK INTER + INTRA:         -13.711
REMARK INTER:                 -12.196
REMARK INTRA:                  -1.515
REMARK UNBOUND:                -2.147
REMARK  Name = 
REMARK  12 active torsions:
REMARK  status: ('A' for Active; 'I' for Inactive)
REMARK    1  A    between atoms: C_1  and  C_2
REMARK    2  A    between atoms: C_2  and  N_3
REMARK    3  A    between atoms: C_2  and  C_20
REMARK    4  A    between atoms: N_3  and  C_4
REMARK    5  A    between atoms: C_4  and  C_5
REMARK    6  A    between atoms: C_8  and  C_9
REMARK    7  A    between atoms: C_9  and  N_10
REMARK    8  A    between atoms: N_10  and  C_11
REMARK    9  A    between atoms: C_11  and  C_12
REMARK   10  A    between atoms: C_23  and  C_24
REMARK   11  A    between atoms: N_26  and  C_27
REMARK   12  A    between atoms: C_27  and  C_28
REMARK                            x       y       z     vdW  Elec       q    Type
REMARK                         _______ _______ _______ _____ _____    ______ ____
ROOT
ATOM      1  C   UNL     1      49.310  10.027  12.313  0.00  0.00    +0.000 C 
ATOM      2  C   UNL     1      48.050   9.476  13.000  0.00  0.00    +0.000 C 
ENDROOT
BRANCH   2   3
ATOM      3  C   UNL     1      48.448   8.659  14.221  0.00  0.00    +0.000 A 
ATOM      4  C   UNL     1      48.939   7.361  14.039  0.00  0.00    +0.000 A 
ATOM      5  C   UNL     1      49.288   6.564  15.141  0.00  0.00    +0.000 A 
ATOM      6  C   UNL     1      49.151   7.066  16.440  0.00  0.00    +0.000 A 
ATOM      7  C   UNL     1      48.708   8.378  16.619  0.00  0.00    +0.000 A 
ATOM      8  C   UNL     1      48.350   9.169  15.524  0.00  0.00    +0.000 A 
BRANCH   6   9
ATOM      9  C   UNL     1      49.481   6.226  17.620  0.00  0.00    +0.000 C 
ATOM     10  O   UNL     1      48.655   6.020  18.485  0.00  0.00    +0.000 OA
ATOM     11  N   UNL     1      50.778   5.716  17.674  0.00  0.00    +0.000 N 
ATOM     12  H   UNL     1      51.422   5.844  16.907  0.00  0.00    +0.000 HD
BRANCH  11  13
ATOM     13  C   UNL     1      51.188   4.856  18.757  0.00  0.00    +0.000 C 
BRANCH  13  14
ATOM     14  C   UNL     1      51.573   3.497  18.253  0.00  0.00    +0.000 A 
ATOM     15  C   UNL     1      52.822   2.944  18.551  0.00  0.00    +0.000 A 
ATOM     16  C   UNL     1      53.140   1.670  18.092  0.00  0.00    +0.000 A 
ATOM     17  C   UNL     1      52.189   0.983  17.357  0.00  0.00    +0.000 A 
ATOM     18  N   UNL     1      50.968   1.477  17.057  0.00  0.00    +0.000 NA
ATOM     19  C   UNL     1      50.690   2.720  17.515  0.00  0.00    +0.000 A 
ENDBRANCH  13  14
ENDBRANCH  11  13
ENDBRANCH   6   9
ENDBRANCH   2   3
BRANCH   2  20
ATOM     20  N   UNL     1      47.234   8.728  12.040  0.00  0.00    +0.000 NA
ATOM     21  H   UNL     1      47.596   7.781  11.940  0.00  0.00    +0.000 HD
BRANCH  20  22
ATOM     22  C   UNL     1      45.831   8.645  12.451  0.00  0.00    +0.000 C 
BRANCH  22  23
ATOM     23  C   UNL     1      45.300   7.247  12.289  0.00  0.00    +0.000 A 
ATOM     24  C   UNL     1      44.018   7.029  11.766  0.00  0.00    +0.000 A 
ATOM     25  C   UNL     1      43.549   5.729  11.581  0.00  0.00    +0.000 A 
ATOM     26  C   UNL     1      44.350   4.624  11.911  0.00  0.00    +0.000 A 
ATOM     27  C   UNL     1      45.620   4.848  12.460  0.00  0.00    +0.000 A 
ATOM     28  C   UNL     1      46.082   6.147  12.660  0.00  0.00    +0.000 A 
BRANCH  26  29
ATOM     29  C   UNL     1      43.863   3.206  11.699  0.00  0.00    +0.000 C 
BRANCH  29  30
ATOM     30  N   UNL     1      44.726   2.508  10.751  0.00  0.00    +0.000 NA
ATOM     31  H   UNL     1      44.634   1.503  10.911  0.00  0.00    +0.000 HD
BRANCH  30  32
ATOM     32  C   UNL     1      44.366   2.775   9.353  0.00  0.00    +0.000 C 
BRANCH  32  33
ATOM     33  C   UNL     1      45.511   2.454   8.407  0.00  0.00    +0.000 A 
ATOM     34  C   UNL     1      46.064   3.439   7.587  0.00  0.00    +0.000 A 
ATOM     35  C   UNL     1      47.134   3.109   6.755  0.00  0.00    +0.000 A 
ATOM     36  C   UNL     1      47.610   1.803   6.748  0.00  0.00    +0.000 A 
ATOM     37  C   UNL     1      46.997   0.883   7.579  0.00  0.00    +0.000 A 
ATOM     38  N   UNL     1      45.970   1.175   8.409  0.00  0.00    +0.000 NA
ENDBRANCH  32  33
ENDBRANCH  30  32
ENDBRANCH  29  30
ENDBRANCH  26  29
ENDBRANCH  22  23
ENDBRANCH  20  22
ENDBRANCH   2  20
TORSDOF 11
ENDMDL
MODEL 5
REMARK VINA RESULT:    -6.905      3.612      7.815
REMARK INTER + INTRA:         -13.493
REMARK INTER:                 -11.745
REMARK INTRA:                  -1.748
REMARK UNBOUND:                -2.147
REMARK  Name = 
REMARK  12 active torsions:
REMARK  status: ('A' for Active; 'I' for Inactive)
REMARK    1  A    between atoms: C_1  and  C_2
REMARK    2  A    between atoms: C_2  and  N_3
REMARK    3  A    between atoms: C_2  and  C_20
REMARK    4  A    between atoms: N_3  and  C_4
REMARK    5  A    between atoms: C_4  and  C_5
REMARK    6  A    between atoms: C_8  and  C_9
REMARK    7  A    between atoms: C_9  and  N_10
REMARK    8  A    between atoms: N_10  and  C_11
REMARK    9  A    between atoms: C_11  and  C_12
REMARK   10  A    between atoms: C_23  and  C_24
REMARK   11  A    between atoms: N_26  and  C_27
REMARK   12  A    between atoms: C_27  and  C_28
REMARK                            x       y       z     vdW  Elec       q    Type
REMARK                         _______ _______ _______ _____ _____    ______ ____
ROOT
ATOM      1  C   UNL     1      49.634   7.940  14.717  0.00  0.00    +0.000 C 
ATOM      2  C   UNL     1      48.173   8.410  14.634  0.00  0.00    +0.000 C 
ENDROOT
BRANCH   2   3
ATOM      3  C   UNL     1      47.375   7.454  13.759  0.00  0.00    +0.000 A 
ATOM      4  C   UNL     1      47.614   6.078  13.863  0.00  0.00    +0.000 A 
ATOM      5  C   UNL     1      46.921   5.165  13.053  0.00  0.00    +0.000 A 
ATOM      6  C   UNL     1      45.974   5.626  12.130  0.00  0.00    +0.000 A 
ATOM      7  C   UNL     1      45.700   6.993  12.062  0.00  0.00    +0.000 A 
ATOM      8  C   UNL     1      46.397   7.904  12.860  0.00  0.00    +0.000 A 
BRANCH   6   9
ATOM      9  C   UNL     1      45.256   4.678  11.239  0.00  0.00    +0.000 C 
ATOM     10  O   UNL     1      44.774   3.655  11.681  0.00  0.00    +0.000 OA
ATOM     11  N   UNL     1      45.190   5.027   9.890  0.00  0.00    +0.000 N 
ATOM     12  H   UNL     1      45.537   5.917   9.563  0.00  0.00    +0.000 HD
BRANCH  11  13
ATOM     13  C   UNL     1      44.482   4.196   8.947  0.00  0.00    +0.000 C 
BRANCH  13  14
ATOM     14  C   UNL     1      45.399   3.193   8.315  0.00  0.00    +0.000 A 
ATOM     15  C   UNL     1      46.311   3.572   7.325  0.00  0.00    +0.000 A 
ATOM     16  C   UNL     1      47.169   2.624   6.777  0.00  0.00    +0.000 A 
ATOM     17  C   UNL     1      47.093   1.324   7.246  0.00  0.00    +0.000 A 
ATOM     18  N   UNL     1      46.234   0.919   8.208  0.00  0.00    +0.000 NA
ATOM     19  C   UNL     1      45.411   1.864   8.719  0.00  0.00    +0.000 A 
ENDBRANCH  13  14
ENDBRANCH  11  13
ENDBRANCH   6   9
ENDBRANCH   2   3
BRANCH   2  20
ATOM     20  N   UNL     1      48.112   9.802  14.178  0.00  0.00    +0.000 NA
ATOM     21  H   UNL     1      48.316  10.430  14.952  0.00  0.00    +0.000 HD
BRANCH  20  22
ATOM     22  C   UNL     1      49.065  10.073  13.099  0.00  0.00    +0.000 C 
BRANCH  22  23
ATOM     23  C   UNL     1      48.402  10.800  11.961  0.00  0.00    +0.000 A 
ATOM     24  C   UNL     1      49.150  11.215  10.851  0.00  0.00    +0.000 A 
ATOM     25  C   UNL     1      48.521  11.852   9.781  0.00  0.00    +0.000 A 
ATOM     26  C   UNL     1      47.136  12.083   9.798  0.00  0.00    +0.000 A 
ATOM     27  C   UNL     1      46.398  11.691  10.923  0.00  0.00    +0.000 A 
ATOM     28  C   UNL     1      47.029  11.070  11.998  0.00  0.00    +0.000 A 
BRANCH  26  29
ATOM     29  C   UNL     1      46.435  12.756   8.637  0.00  0.00    +0.000 C 
BRANCH  29  30
ATOM     30  N   UNL     1      45.272  11.977   8.223  0.00  0.00    +0.000 NA
ATOM     31  H   UNL     1      45.245  11.119   8.778  0.00  0.00    +0.000 HD
BRANCH  30  32
ATOM     32  C   UNL     1      44.007  12.690   8.436  0.00  0.00    +0.000 C 
BRANCH  32  33
ATOM     33  C   UNL     1      42.998  11.833   9.184  0.00  0.00    +0.000 A 
ATOM     34  C   UNL     1      43.386  10.645   9.807  0.00  0.00    +0.000 A 
ATOM     35  C   UNL     1      42.434   9.905  10.508  0.00  0.00    +0.000 A 
ATOM     36  C   UNL     1      41.120  10.357  10.552  0.00  0.00    +0.000 A 
ATOM     37  C   UNL     1      40.815  11.535   9.896  0.00  0.00    +0.000 A 
ATOM     38  N   UNL     1      41.718  12.285   9.223  0.00  0.00    +0.000 NA
ENDBRANCH  32  33
ENDBRANCH  30  32
ENDBRANCH  29  30
ENDBRANCH  26  29
ENDBRANCH  22  23
ENDBRANCH  20  22
ENDBRANCH   2  20
TORSDOF 11
ENDMDL
MODEL 6
REMARK VINA RESULT:    -6.823      4.311     10.134
REMARK INTER + INTRA:         -13.357
REMARK INTER:                 -12.515
REMARK INTRA:                  -0.842
REMARK UNBOUND:                -2.147
REMARK  Name = 
REMARK  12 active torsions:
REMARK  status: ('A' for Active; 'I' for Inactive)
REMARK    1  A    between atoms: C_1  and  C_2
REMARK    2  A    between atoms: C_2  and  N_3
REMARK    3  A    between atoms: C_2  and  C_20
REMARK    4  A    between atoms: N_3  and  C_4
REMARK    5  A    between atoms: C_4  and  C_5
REMARK    6  A    between atoms: C_8  and  C_9
REMARK    7  A    between atoms: C_9  and  N_10
REMARK    8  A    between atoms: N_10  and  C_11
REMARK    9  A    between atoms: C_11  and  C_12
REMARK   10  A    between atoms: C_23  and  C_24
REMARK   11  A    between atoms: N_26  and  C_27
REMARK   12  A    between atoms: C_27  and  C_28
REMARK                            x       y       z     vdW  Elec       q    Type
REMARK                         _______ _______ _______ _____ _____    ______ ____
ROOT
ATOM      1  C   UNL     1      46.721   3.890  17.376  0.00  0.00    +0.000 C 
ATOM      2  C   UNL     1      47.775   4.157  16.289  0.00  0.00    +0.000 C 
ENDROOT
BRANCH   2   3
ATOM      3  C   UNL     1      49.143   3.705  16.780  0.00  0.00    +0.000 A 
ATOM      4  C   UNL     1      49.459   2.342  16.753  0.00  0.00    +0.000 A 
ATOM      5  C   UNL     1      50.698   1.881  17.224  0.00  0.00    +0.000 A 
ATOM      6  C   UNL     1      51.638   2.789  17.725  0.00  0.00    +0.000 A 
ATOM      7  C   UNL     1      51.343   4.154  17.706  0.00  0.00    +0.000 A 
ATOM      8  C   UNL     1      50.106   4.613  17.247  0.00  0.00    +0.000 A 
BRANCH   6   9
ATOM      9  C   UNL     1      52.941   2.318  18.262  0.00  0.00    +0.000 C 
ATOM     10  O   UNL     1      53.291   2.612  19.387  0.00  0.00    +0.000 OA
ATOM     11  N   UNL     1      53.724   1.549  17.401  0.00  0.00    +0.000 N 
ATOM     12  H   UNL     1      53.377   1.262  16.497  0.00  0.00    +0.000 HD
BRANCH  11  13
ATOM     13  C   UNL     1      54.988   1.009  17.838  0.00  0.00    +0.000 C 
BRANCH  13  14
ATOM     14  C   UNL     1      54.943  -0.487  17.906  0.00  0.00    +0.000 A 
ATOM     15  C   UNL     1      54.736  -1.148  19.121  0.00  0.00    +0.000 A 
ATOM     16  C   UNL     1      54.671  -2.537  19.149  0.00  0.00    +0.000 A 
ATOM     17  C   UNL     1      54.805  -3.223  17.954  0.00  0.00    +0.000 A 
ATOM     18  N   UNL     1      54.995  -2.622  16.759  0.00  0.00    +0.000 NA
ATOM     19  C   UNL     1      55.057  -1.271  16.765  0.00  0.00    +0.000 A 
ENDBRANCH  13  14
ENDBRANCH  11  13
ENDBRANCH   6   9
ENDBRANCH   2   3
BRANCH   2  20
ATOM     20  N   UNL     1      47.739   5.565  15.883  0.00  0.00    +0.000 NA
ATOM     21  H   UNL     1      48.342   6.117  16.490  0.00  0.00    +0.000 HD
BRANCH  20  22
ATOM     22  C   UNL     1      48.180   5.754  14.499  0.00  0.00    +0.000 C 
BRANCH  22  23
ATOM     23  C   UNL     1      47.049   5.525  13.533  0.00  0.00    +0.000 A 
ATOM     24  C   UNL     1      46.009   4.642  13.852  0.00  0.00    +0.000 A 
ATOM     25  C   UNL     1      44.944   4.467  12.969  0.00  0.00    +0.000 A 
ATOM     26  C   UNL     1      44.896   5.171  11.755  0.00  0.00    +0.000 A 
ATOM     27  C   UNL     1      45.953   6.031  11.429  0.00  0.00    +0.000 A 
ATOM     28  C   UNL     1      47.025   6.193  12.304  0.00  0.00    +0.000 A 
BRANCH  26  29
ATOM     29  C   UNL     1      43.738   5.006  10.794  0.00  0.00    +0.000 C 
BRANCH  29  30
ATOM     30  N   UNL     1      44.203   4.454   9.525  0.00  0.00    +0.000 NA
ATOM     31  H   UNL     1      45.026   4.980   9.227  0.00  0.00    +0.000 HD
BRANCH  30  32
ATOM     32  C   UNL     1      44.585   3.041   9.629  0.00  0.00    +0.000 C 
BRANCH  32  33
ATOM     33  C   UNL     1      45.543   2.635   8.520  0.00  0.00    +0.000 A 
ATOM     34  C   UNL     1      45.980   3.563   7.573  0.00  0.00    +0.000 A 
ATOM     35  C   UNL     1      46.882   3.156   6.590  0.00  0.00    +0.000 A 
ATOM     36  C   UNL     1      47.309   1.834   6.567  0.00  0.00    +0.000 A 
ATOM     37  C   UNL     1      46.817   0.974   7.532  0.00  0.00    +0.000 A 
ATOM     38  N   UNL     1      45.955   1.341   8.507  0.00  0.00    +0.000 NA
ENDBRANCH  32  33
ENDBRANCH  30  32
ENDBRANCH  29  30
ENDBRANCH  26  29
ENDBRANCH  22  23
ENDBRANCH  20  22
ENDBRANCH   2  20
TORSDOF 11
ENDMDL
MODEL 7
REMARK VINA RESULT:    -6.487      2.501      8.193
REMARK INTER + INTRA:         -12.806
REMARK INTER:                 -10.758
REMARK INTRA:                  -2.048
REMARK UNBOUND:                -2.147
REMARK  Name = 
REMARK  12 active torsions:
REMARK  status: ('A' for Active; 'I' for Inactive)
REMARK    1  A    between atoms: C_1  and  C_2
REMARK    2  A    between atoms: C_2  and  N_3
REMARK    3  A    between atoms: C_2  and  C_20
REMARK    4  A    between atoms: N_3  and  C_4
REMARK    5  A    between atoms: C_4  and  C_5
REMARK    6  A    between atoms: C_8  and  C_9
REMARK    7  A    between atoms: C_9  and  N_10
REMARK    8  A    between atoms: N_10  and  C_11
REMARK    9  A    between atoms: C_11  and  C_12
REMARK   10  A    between atoms: C_23  and  C_24
REMARK   11  A    between atoms: N_26  and  C_27
REMARK   12  A    between atoms: C_27  and  C_28
REMARK                            x       y       z     vdW  Elec       q    Type
REMARK                         _______ _______ _______ _____ _____    ______ ____
ROOT
ATOM      1  C   UNL     1      50.685  11.599  14.406  0.00  0.00    +0.000 C 
ATOM      2  C   UNL     1      49.305  10.952  14.209  0.00  0.00    +0.000 C 
ENDROOT
BRANCH   2   3
ATOM      3  C   UNL     1      49.190   9.713  15.085  0.00  0.00    +0.000 A 
ATOM      4  C   UNL     1      49.921   8.569  14.743  0.00  0.00    +0.000 A 
ATOM      5  C   UNL     1      49.819   7.396  15.509  0.00  0.00    +0.000 A 
ATOM      6  C   UNL     1      48.983   7.363  16.631  0.00  0.00    +0.000 A 
ATOM      7  C   UNL     1      48.293   8.519  17.000  0.00  0.00    +0.000 A 
ATOM      8  C   UNL     1      48.385   9.683  16.233  0.00  0.00    +0.000 A 
BRANCH   6   9
ATOM      9  C   UNL     1      48.835   6.120  17.433  0.00  0.00    +0.000 C 
ATOM     10  O   UNL     1      48.319   6.150  18.532  0.00  0.00    +0.000 OA
ATOM     11  N   UNL     1      49.330   4.950  16.859  0.00  0.00    +0.000 N 
ATOM     12  H   UNL     1      49.689   4.943  15.915  0.00  0.00    +0.000 HD
BRANCH  11  13
ATOM     13  C   UNL     1      49.200   3.683  17.537  0.00  0.00    +0.000 C 
BRANCH  13  14
ATOM     14  C   UNL     1      50.515   2.967  17.599  0.00  0.00    +0.000 A 
ATOM     15  C   UNL     1      51.669   3.613  18.053  0.00  0.00    +0.000 A 
ATOM     16  C   UNL     1      52.869   2.914  18.126  0.00  0.00    +0.000 A 
ATOM     17  C   UNL     1      52.874   1.582  17.752  0.00  0.00    +0.000 A 
ATOM     18  N   UNL     1      51.779   0.917  17.318  0.00  0.00    +0.000 NA
ATOM     19  C   UNL     1      50.628   1.625  17.255  0.00  0.00    +0.000 A 
ENDBRANCH  13  14
ENDBRANCH  11  13
ENDBRANCH   6   9
ENDBRANCH   2   3
BRANCH   2  20
ATOM     20  N   UNL     1      49.069  10.683  12.788  0.00  0.00    +0.000 NA
ATOM     21  H   UNL     1      49.493   9.795  12.527  0.00  0.00    +0.000 HD
BRANCH  20  22
ATOM     22  C   UNL     1      47.642  10.626  12.464  0.00  0.00    +0.000 C 
BRANCH  22  23
ATOM     23  C   UNL     1      47.157   9.203  12.397  0.00  0.00    +0.000 A 
ATOM     24  C   UNL     1      47.953   8.207  11.816  0.00  0.00    +0.000 A 
ATOM     25  C   UNL     1      47.514   6.884  11.794  0.00  0.00    +0.000 A 
ATOM     26  C   UNL     1      46.275   6.529  12.355  0.00  0.00    +0.000 A 
ATOM     27  C   UNL     1      45.471   7.534  12.909  0.00  0.00    +0.000 A 
ATOM     28  C   UNL     1      45.903   8.859  12.916  0.00  0.00    +0.000 A 
BRANCH  26  29
ATOM     29  C   UNL     1      45.792   5.095  12.357  0.00  0.00    +0.000 C 
BRANCH  29  30
ATOM     30  N   UNL     1      44.340   5.046  12.223  0.00  0.00    +0.000 NA
ATOM     31  H   UNL     1      43.937   5.786  12.802  0.00  0.00    +0.000 HD
BRANCH  30  32
ATOM     32  C   UNL     1      43.890   5.261  10.843  0.00  0.00    +0.000 C 
BRANCH  32  33
ATOM     33  C   UNL     1      44.516   4.260   9.885  0.00  0.00    +0.000 A 
ATOM     34  C   UNL     1      45.405   4.674   8.891  0.00  0.00    +0.000 A 
ATOM     35  C   UNL     1      45.980   3.719   8.054  0.00  0.00    +0.000 A 
ATOM     36  C   UNL     1      45.638   2.381   8.215  0.00  0.00    +0.000 A 
ATOM     37  C   UNL     1      44.739   2.055   9.214  0.00  0.00    +0.000 A 
ATOM     38  N   UNL     1      44.178   2.955  10.053  0.00  0.00    +0.000 NA
ENDBRANCH  32  33
ENDBRANCH  30  32
ENDBRANCH  29  30
ENDBRANCH  26  29
ENDBRANCH  22  23
ENDBRANCH  20  22
ENDBRANCH   2  20
TORSDOF 11
ENDMDL
MODEL 8
REMARK VINA RESULT:    -6.468      1.749      2.524
REMARK INTER + INTRA:         -12.774
REMARK INTER:                 -10.095
REMARK INTRA:                  -2.679
REMARK UNBOUND:                -2.147
REMARK  Name = 
REMARK  12 active torsions:
REMARK  status: ('A' for Active; 'I' for Inactive)
REMARK    1  A    between atoms: C_1  and  C_2
REMARK    2  A    between atoms: C_2  and  N_3
REMARK    3  A    between atoms: C_2  and  C_20
REMARK    4  A    between atoms: N_3  and  C_4
REMARK    5  A    between atoms: C_4  and  C_5
REMARK    6  A    between atoms: C_8  and  C_9
REMARK    7  A    between atoms: C_9  and  N_10
REMARK    8  A    between atoms: N_10  and  C_11
REMARK    9  A    between atoms: C_11  and  C_12
REMARK   10  A    between atoms: C_23  and  C_24
REMARK   11  A    between atoms: N_26  and  C_27
REMARK   12  A    between atoms: C_27  and  C_28
REMARK                            x       y       z     vdW  Elec       q    Type
REMARK                         _______ _______ _______ _____ _____    ______ ____
ROOT
ATOM      1  C   UNL     1      50.582  10.482  14.217  0.00  0.00    +0.000 C 
ATOM      2  C   UNL     1      51.060   9.056  14.534  0.00  0.00    +0.000 C 
ENDROOT
BRANCH   2   3
ATOM      3  C   UNL     1      49.970   8.057  14.173  0.00  0.00    +0.000 A 
ATOM      4  C   UNL     1      49.480   8.030  12.862  0.00  0.00    +0.000 A 
ATOM      5  C   UNL     1      48.454   7.145  12.497  0.00  0.00    +0.000 A 
ATOM      6  C   UNL     1      47.912   6.271  13.446  0.00  0.00    +0.000 A 
ATOM      7  C   UNL     1      48.434   6.264  14.741  0.00  0.00    +0.000 A 
ATOM      8  C   UNL     1      49.448   7.152  15.109  0.00  0.00    +0.000 A 
BRANCH   6   9
ATOM      9  C   UNL     1      46.801   5.351  13.088  0.00  0.00    +0.000 C 
ATOM     10  O   UNL     1      46.771   4.217  13.519  0.00  0.00    +0.000 OA
ATOM     11  N   UNL     1      45.827   5.862  12.230  0.00  0.00    +0.000 N 
ATOM     12  H   UNL     1      45.839   6.830  11.944  0.00  0.00    +0.000 HD
BRANCH  11  13
ATOM     13  C   UNL     1      44.686   5.064  11.852  0.00  0.00    +0.000 C 
BRANCH  13  14
ATOM     14  C   UNL     1      44.901   4.409  10.522  0.00  0.00    +0.000 A 
ATOM     15  C   UNL     1      44.463   3.103  10.281  0.00  0.00    +0.000 A 
ATOM     16  C   UNL     1      44.652   2.530   9.028  0.00  0.00    +0.000 A 
ATOM     17  C   UNL     1      45.268   3.290   8.048  0.00  0.00    +0.000 A 
ATOM     18  N   UNL     1      45.697   4.558   8.236  0.00  0.00    +0.000 NA
ATOM     19  C   UNL     1      45.500   5.085   9.467  0.00  0.00    +0.000 A 
ENDBRANCH  13  14
ENDBRANCH  11  13
ENDBRANCH   6   9
ENDBRANCH   2   3
BRANCH   2  20
ATOM     20  N   UNL     1      51.493   8.965  15.931  0.00  0.00    +0.000 NA
ATOM     21  H   UNL     1      52.496   9.124  15.996  0.00  0.00    +0.000 HD
BRANCH  20  22
ATOM     22  C   UNL     1      50.814   9.941  16.786  0.00  0.00    +0.000 C 
BRANCH  22  23
ATOM     23  C   UNL     1      49.910   9.260  17.777  0.00  0.00    +0.000 A 
ATOM     24  C   UNL     1      48.528   9.488  17.752  0.00  0.00    +0.000 A 
ATOM     25  C   UNL     1      47.692   8.821  18.647  0.00  0.00    +0.000 A 
ATOM     26  C   UNL     1      48.218   7.912  19.580  0.00  0.00    +0.000 A 
ATOM     27  C   UNL     1      49.605   7.709  19.618  0.00  0.00    +0.000 A 
ATOM     28  C   UNL     1      50.441   8.388  18.735  0.00  0.00    +0.000 A 
BRANCH  26  29
ATOM     29  C   UNL     1      47.323   7.166  20.546  0.00  0.00    +0.000 C 
BRANCH  29  30
ATOM     30  N   UNL     1      47.266   5.750  20.197  0.00  0.00    +0.000 NA
ATOM     31  H   UNL     1      46.617   5.286  20.836  0.00  0.00    +0.000 HD
BRANCH  30  32
ATOM     32  C   UNL     1      46.789   5.522  18.828  0.00  0.00    +0.000 C 
BRANCH  32  33
ATOM     33  C   UNL     1      47.639   4.492  18.101  0.00  0.00    +0.000 A 
ATOM     34  C   UNL     1      49.012   4.397  18.337  0.00  0.00    +0.000 A 
ATOM     35  C   UNL     1      49.749   3.419  17.671  0.00  0.00    +0.000 A 
ATOM     36  C   UNL     1      49.103   2.576  16.774  0.00  0.00    +0.000 A 
ATOM     37  C   UNL     1      47.744   2.745  16.585  0.00  0.00    +0.000 A 
ATOM     38  N   UNL     1      46.998   3.672  17.228  0.00  0.00    +0.000 NA
ENDBRANCH  32  33
ENDBRANCH  30  32
ENDBRANCH  29  30
ENDBRANCH  26  29
ENDBRANCH  22  23
ENDBRANCH  20  22
ENDBRANCH   2  20
TORSDOF 11
ENDMDL
MODEL 9
REMARK VINA RESULT:    -6.452      2.772      9.744
REMARK INTER + INTRA:         -12.748
REMARK INTER:                 -11.441
REMARK INTRA:                  -1.307
REMARK UNBOUND:                -2.147
REMARK  Name = 
REMARK  12 active torsions:
REMARK  status: ('A' for Active; 'I' for Inactive)
REMARK    1  A    between atoms: C_1  and  C_2
REMARK    2  A    between atoms: C_2  and  N_3
REMARK    3  A    between atoms: C_2  and  C_20
REMARK    4  A    between atoms: N_3  and  C_4
REMARK    5  A    between atoms: C_4  and  C_5
REMARK    6  A    between atoms: C_8  and  C_9
REMARK    7  A    between atoms: C_9  and  N_10
REMARK    8  A    between atoms: N_10  and  C_11
REMARK    9  A    between atoms: C_11  and  C_12
REMARK   10  A    between atoms: C_23  and  C_24
REMARK   11  A    between atoms: N_26  and  C_27
REMARK   12  A    between atoms: C_27  and  C_28
REMARK                            x       y       z     vdW  Elec       q    Type
REMARK                         _______ _______ _______ _____ _____    ______ ____
ROOT
ATOM      1  C   UNL     1      48.570   7.496  11.392  0.00  0.00    +0.000 C 
ATOM      2  C   UNL     1      48.310   8.737  12.261  0.00  0.00    +0.000 C 
ENDROOT
BRANCH   2   3
ATOM      3  C   UNL     1      48.855   8.504  13.663  0.00  0.00    +0.000 A 
ATOM      4  C   UNL     1      48.932   9.583  14.551  0.00  0.00    +0.000 A 
ATOM      5  C   UNL     1      49.457   9.416  15.842  0.00  0.00    +0.000 A 
ATOM      6  C   UNL     1      49.908   8.157  16.257  0.00  0.00    +0.000 A 
ATOM      7  C   UNL     1      49.786   7.071  15.389  0.00  0.00    +0.000 A 
ATOM      8  C   UNL     1      49.273   7.238  14.100  0.00  0.00    +0.000 A 
BRANCH   6   9
ATOM      9  C   UNL     1      50.500   7.968  17.607  0.00  0.00    +0.000 C 
ATOM     10  O   UNL     1      51.316   8.755  18.042  0.00  0.00    +0.000 OA
ATOM     11  N   UNL     1      50.077   6.844  18.315  0.00  0.00    +0.000 N 
ATOM     12  H   UNL     1      49.346   6.246  17.959  0.00  0.00    +0.000 HD
BRANCH  11  13
ATOM     13  C   UNL     1      50.561   6.589  19.650  0.00  0.00    +0.000 C 
BRANCH  13  14
ATOM     14  C   UNL     1      49.432   6.275  20.584  0.00  0.00    +0.000 A 
ATOM     15  C   UNL     1      48.521   7.262  20.974  0.00  0.00    +0.000 A 
ATOM     16  C   UNL     1      47.467   6.934  21.820  0.00  0.00    +0.000 A 
ATOM     17  C   UNL     1      47.351   5.622  22.242  0.00  0.00    +0.000 A 
ATOM     18  N   UNL     1      48.202   4.636  21.881  0.00  0.00    +0.000 NA
ATOM     19  C   UNL     1      49.218   4.987  21.060  0.00  0.00    +0.000 A 
ENDBRANCH  13  14
ENDBRANCH  11  13
ENDBRANCH   6   9
ENDBRANCH   2   3
BRANCH   2  20
ATOM     20  N   UNL     1      46.886   9.081  12.242  0.00  0.00    +0.000 NA
ATOM     21  H   UNL     1      46.478   8.827  11.344  0.00  0.00    +0.000 HD
BRANCH  20  22
ATOM     22  C   UNL     1      46.136   8.400  13.299  0.00  0.00    +0.000 C 
BRANCH  22  23
ATOM     23  C   UNL     1      45.424   7.187  12.764  0.00  0.00    +0.000 A 
ATOM     24  C   UNL     1      44.474   7.312  11.743  0.00  0.00    +0.000 A 
ATOM     25  C   UNL     1      43.848   6.179  11.225  0.00  0.00    +0.000 A 
ATOM     26  C   UNL     1      44.163   4.900  11.713  0.00  0.00    +0.000 A 
ATOM     27  C   UNL     1      45.094   4.783  12.754  0.00  0.00    +0.000 A 
ATOM     28  C   UNL     1      45.706   5.917  13.282  0.00  0.00    +0.000 A 
BRANCH  26  29
ATOM     29  C   UNL     1      43.508   3.658  11.149  0.00  0.00    +0.000 C 
BRANCH  29  30
ATOM     30  N   UNL     1      43.903   3.460   9.757  0.00  0.00    +0.000 NA
ATOM     31  H   UNL     1      44.583   4.182   9.510  0.00  0.00    +0.000 HD
BRANCH  30  32
ATOM     32  C   UNL     1      44.529   2.154   9.526  0.00  0.00    +0.000 C 
BRANCH  32  33
ATOM     33  C   UNL     1      45.560   2.214   8.411  0.00  0.00    +0.000 A 
ATOM     34  C   UNL     1      45.738   3.377   7.659  0.00  0.00    +0.000 A 
ATOM     35  C   UNL     1      46.716   3.400   6.665  0.00  0.00    +0.000 A 
ATOM     36  C   UNL     1      47.475   2.259   6.434  0.00  0.00    +0.000 A 
ATOM     37  C   UNL     1      47.227   1.143   7.213  0.00  0.00    +0.000 A 
ATOM     38  N   UNL     1      46.299   1.095   8.195  0.00  0.00    +0.000 NA
ENDBRANCH  32  33
ENDBRANCH  30  32
ENDBRANCH  29  30
ENDBRANCH  26  29
ENDBRANCH  22  23
ENDBRANCH  20  22
ENDBRANCH   2  20
TORSDOF 11
ENDMDL
