MODEL 1
REMARK VINA RESULT:    -6.834      0.000      0.000
REMARK INTER + INTRA:          -9.808
REMARK INTER:                  -9.031
REMARK INTRA:                  -0.777
REMARK UNBOUND:                -0.777
REMARK  Name = 
REMARK  6 active torsions:
REMARK  status: ('A' for Active; 'I' for Inactive)
REMARK    1  A    between atoms: N_1  and  C_2
REMARK    2  A    between atoms: C_3  and  C_4
REMARK    3  A    between atoms: C_8  and  O_9
REMARK    4  A    between atoms: O_9  and  C_10
REMARK    5  A    between atoms: C_10  and  C_11
REMARK    6  A    between atoms: C_15  and  C_16
REMARK                            x       y       z     vdW  Elec       q    Type
REMARK                         _______ _______ _______ _____ _____    ______ ____
ROOT
ATOM      1  C   UNL     1      43.855   5.118  11.199  0.00  0.00    +0.000 C 
ATOM      2  C   UNL     1      42.486   5.183  11.878  0.00  0.00    +0.000 C 
ATOM      3  C   UNL     1      42.989   6.354  11.112  0.00  0.00    +0.000 C 
ENDROOT
BRANCH   1   4
ATOM      4  C   UNL     1      45.097   5.171  12.067  0.00  0.00    +0.000 A 
ATOM      5  C   UNL     1      45.537   4.106  12.861  0.00  0.00    +0.000 A 
ATOM      6  C   UNL     1      46.679   4.224  13.655  0.00  0.00    +0.000 A 
ATOM      7  C   UNL     1      47.371   5.439  13.720  0.00  0.00    +0.000 A 
ATOM      8  C   UNL     1      46.944   6.539  12.968  0.00  0.00    +0.000 A 
ATOM      9  C   UNL     1      45.847   6.352  12.118  0.00  0.00    +0.000 A 
BRANCH   8  10
ATOM     10  C   UNL     1      47.610   7.900  13.121  0.00  0.00    +0.000 C 
ATOM     11  C   UNL     1      48.461   8.294  11.897  0.00  0.00    +0.000 C 
ATOM     12  C   UNL     1      49.838   7.628  11.859  0.00  0.00    +0.000 C 
ATOM     13  N   UNL     1      50.582   7.759  13.113  0.00  0.00    +0.000 NA
ATOM     14  C   UNL     1      49.820   7.377  14.304  0.00  0.00    +0.000 C 
ATOM     15  C   UNL     1      48.452   8.051  14.396  0.00  0.00    +0.000 C 
ATOM     16  H   UNL     1      50.881   8.727  13.212  0.00  0.00    +0.000 HD
ENDBRANCH   8  10
ENDBRANCH   1   4
BRANCH   1  17
ATOM     17  O   UNL     1      43.809   4.053  10.212  0.00  0.00    +0.000 OA
BRANCH  17  22
ATOM     18  C   UNL     1      46.172   2.169   8.220  0.00  0.00    +0.000 A 
ATOM     19  C   UNL     1      46.722   3.189   7.468  0.00  0.00    +0.000 A 
ATOM     20  N   UNL     1      46.403   4.500   7.619  0.00  0.00    +0.000 NA
ATOM     21  C   UNL     1      45.444   4.792   8.540  0.00  0.00    +0.000 A 
ATOM     22  C   UNL     1      44.831   3.840   9.333  0.00  0.00    +0.000 A 
ATOM     23  C   UNL     1      45.239   2.506   9.192  0.00  0.00    +0.000 A 
BRANCH  18  25
ATOM     24  C   UNL     1      46.612  -0.356   7.624  0.00  0.00    +0.000 C 
ATOM     25  C   UNL     1      46.480   0.809   7.908  0.00  0.00    +0.000 C 
BRANCH  24  26
ATOM     26  N   UNL     1      46.671  -1.759   7.259  0.00  0.00    +0.000 N 
ATOM     27  H   UNL     1      46.541  -2.395   8.031  0.00  0.00    +0.000 HD
ATOM     28  H   UNL     1      47.447  -2.004   6.664  0.00  0.00    +0.000 HD
ENDBRANCH  24  26
ENDBRANCH  18  25
ENDBRANCH  17  22
ENDBRANCH   1  17
TORSDOF 6
ENDMDL
MODEL 2
REMARK VINA RESULT:    -6.653      1.975      2.907
REMARK INTER + INTRA:          -9.569
REMARK INTER:                  -9.392
REMARK INTRA:                  -0.178
REMARK UNBOUND:                -0.777
REMARK  Name = 
REMARK  6 active torsions:
REMARK  status: ('A' for Active; 'I' for Inactive)
REMARK    1  A    between atoms: N_1  and  C_2
REMARK    2  A    between atoms: C_3  and  C_4
REMARK    3  A    between atoms: C_8  and  O_9
REMARK    4  A    between atoms: O_9  and  C_10
REMARK    5  A    between atoms: C_10  and  C_11
REMARK    6  A    between atoms: C_15  and  C_16
REMARK                            x       y       z     vdW  Elec       q    Type
REMARK                         _______ _______ _______ _____ _____    ______ ____
ROOT
ATOM      1  C   UNL     1      44.047   6.027  11.684  0.00  0.00    +0.000 C 
ATOM      2  C   UNL     1      43.145   5.537  12.818  0.00  0.00    +0.000 C 
ATOM      3  C   UNL     1      42.565   5.815  11.477  0.00  0.00    +0.000 C 
ENDROOT
BRANCH   1   4
ATOM      4  C   UNL     1      44.570   7.449  11.737  0.00  0.00    +0.000 A 
ATOM      5  C   UNL     1      43.945   8.531  11.107  0.00  0.00    +0.000 A 
ATOM      6  C   UNL     1      44.487   9.816  11.176  0.00  0.00    +0.000 A 
ATOM      7  C   UNL     1      45.707  10.033  11.828  0.00  0.00    +0.000 A 
ATOM      8  C   UNL     1      46.381   8.972  12.442  0.00  0.00    +0.000 A 
ATOM      9  C   UNL     1      45.759   7.717  12.425  0.00  0.00    +0.000 A 
BRANCH   8  10
ATOM     10  C   UNL     1      47.766   9.167  13.046  0.00  0.00    +0.000 C 
ATOM     11  C   UNL     1      48.897   9.053  12.006  0.00  0.00    +0.000 C 
ATOM     12  C   UNL     1      49.262   7.613  11.641  0.00  0.00    +0.000 C 
ATOM     13  N   UNL     1      49.498   6.760  12.807  0.00  0.00    +0.000 NA
ATOM     14  C   UNL     1      48.438   6.819  13.816  0.00  0.00    +0.000 C 
ATOM     15  C   UNL     1      48.071   8.242  14.233  0.00  0.00    +0.000 C 
ATOM     16  H   UNL     1      50.377   7.038  13.239  0.00  0.00    +0.000 HD
ENDBRANCH   8  10
ENDBRANCH   1   4
BRANCH   1  17
ATOM     17  O   UNL     1      45.034   4.992  11.425  0.00  0.00    +0.000 OA
BRANCH  17  22
ATOM     18  C   UNL     1      45.431   3.089   8.372  0.00  0.00    +0.000 A 
ATOM     19  C   UNL     1      44.653   1.987   8.671  0.00  0.00    +0.000 A 
ATOM     20  N   UNL     1      43.938   1.852   9.817  0.00  0.00    +0.000 NA
ATOM     21  C   UNL     1      44.052   2.856  10.729  0.00  0.00    +0.000 A 
ATOM     22  C   UNL     1      44.811   3.992  10.524  0.00  0.00    +0.000 A 
ATOM     23  C   UNL     1      45.480   4.123   9.298  0.00  0.00    +0.000 A 
BRANCH  18  25
ATOM     24  C   UNL     1      47.014   3.020   6.272  0.00  0.00    +0.000 C 
ATOM     25  C   UNL     1      46.242   3.090   7.196  0.00  0.00    +0.000 C 
BRANCH  24  26
ATOM     26  N   UNL     1      48.001   2.874   5.219  0.00  0.00    +0.000 N 
ATOM     27  H   UNL     1      48.908   2.569   5.538  0.00  0.00    +0.000 HD
ATOM     28  H   UNL     1      48.043   3.649   4.575  0.00  0.00    +0.000 HD
ENDBRANCH  24  26
ENDBRANCH  18  25
ENDBRANCH  17  22
ENDBRANCH   1  17
TORSDOF 6
ENDMDL
MODEL 3
REMARK VINA RESULT:    -6.428      3.267      7.952
REMARK INTER + INTRA:          -9.272
REMARK INTER:                  -8.331
REMARK INTRA:                  -0.941
REMARK UNBOUND:                -0.777
REMARK  Name = 
REMARK  6 active torsions:
REMARK  status: ('A' for Active; 'I' for Inactive)
REMARK    1  A    between atoms: N_1  and  C_2
REMARK    2  A    between atoms: C_3  and  C_4
REMARK    3  A    between atoms: C_8  and  O_9
REMARK    4  A    between atoms: O_9  and  C_10
REMARK    5  A    between atoms: C_10  and  C_11
REMARK    6  A    between atoms: C_15  and  C_16
REMARK                            x       y       z     vdW  Elec       q    Type
REMARK                         _______ _______ _______ _____ _____    ______ ____
ROOT
ATOM      1  C   UNL     1      48.988   7.626  12.705  0.00  0.00    +0.000 C 
ATOM      2  C   UNL     1      49.889   7.368  11.496  0.00  0.00    +0.000 C 
ATOM      3  C   UNL     1      49.724   8.752  12.015  0.00  0.00    +0.000 C 
ENDROOT
BRANCH   1   4
ATOM      4  C   UNL     1      47.485   7.532  12.522  0.00  0.00    +0.000 A 
ATOM      5  C   UNL     1      46.676   8.616  12.162  0.00  0.00    +0.000 A 
ATOM      6  C   UNL     1      45.294   8.470  12.029  0.00  0.00    +0.000 A 
ATOM      7  C   UNL     1      44.683   7.243  12.316  0.00  0.00    +0.000 A 
ATOM      8  C   UNL     1      45.453   6.144  12.711  0.00  0.00    +0.000 A 
ATOM      9  C   UNL     1      46.843   6.309  12.747  0.00  0.00    +0.000 A 
BRANCH   8  10
ATOM     10  C   UNL     1      44.794   4.840  13.146  0.00  0.00    +0.000 C 
ATOM     11  C   UNL     1      45.379   3.605  12.433  0.00  0.00    +0.000 C 
ATOM     12  C   UNL     1      44.847   3.397  11.014  0.00  0.00    +0.000 C 
ATOM     13  N   UNL     1      43.386   3.443  10.929  0.00  0.00    +0.000 NA
ATOM     14  C   UNL     1      42.785   4.611  11.575  0.00  0.00    +0.000 C 
ATOM     15  C   UNL     1      43.265   4.831  13.009  0.00  0.00    +0.000 C 
ATOM     16  H   UNL     1      43.010   2.601  11.360  0.00  0.00    +0.000 HD
ENDBRANCH   8  10
ENDBRANCH   1   4
BRANCH   1  17
ATOM     17  O   UNL     1      49.542   6.897  13.833  0.00  0.00    +0.000 OA
BRANCH  17  22
ATOM     18  C   UNL     1      48.700   6.397  17.318  0.00  0.00    +0.000 A 
ATOM     19  C   UNL     1      48.836   7.689  17.788  0.00  0.00    +0.000 A 
ATOM     20  N   UNL     1      49.135   8.754  17.001  0.00  0.00    +0.000 NA
ATOM     21  C   UNL     1      49.357   8.496  15.683  0.00  0.00    +0.000 A 
ATOM     22  C   UNL     1      49.253   7.238  15.123  0.00  0.00    +0.000 A 
ATOM     23  C   UNL     1      48.876   6.176  15.958  0.00  0.00    +0.000 A 
BRANCH  18  25
ATOM     24  C   UNL     1      48.421   4.346  18.943  0.00  0.00    +0.000 C 
ATOM     25  C   UNL     1      48.503   5.322  18.239  0.00  0.00    +0.000 C 
BRANCH  24  26
ATOM     26  N   UNL     1      48.398   3.130  19.733  0.00  0.00    +0.000 N 
ATOM     27  H   UNL     1      48.962   3.166  20.569  0.00  0.00    +0.000 HD
ATOM     28  H   UNL     1      48.524   2.283  19.201  0.00  0.00    +0.000 HD
ENDBRANCH  24  26
ENDBRANCH  18  25
ENDBRANCH  17  22
ENDBRANCH   1  17
TORSDOF 6
ENDMDL
MODEL 4
REMARK VINA RESULT:    -6.398      3.475      7.417
REMARK INTER + INTRA:          -9.232
REMARK INTER:                  -8.953
REMARK INTRA:                  -0.279
REMARK UNBOUND:                -0.777
REMARK  Name = 
REMARK  6 active torsions:
REMARK  status: ('A' for Active; 'I' for Inactive)
REMARK    1  A    between atoms: N_1  and  C_2
REMARK    2  A    between atoms: C_3  and  C_4
REMARK    3  A    between atoms: C_8  and  O_9
REMARK    4  A    between atoms: O_9  and  C_10
REMARK    5  A    between atoms: C_10  and  C_11
REMARK    6  A    between atoms: C_15  and  C_16
REMARK                            x       y       z     vdW  Elec       q    Type
REMARK                         _______ _______ _______ _____ _____    ______ ____
ROOT
ATOM      1  C   UNL     1      47.986   8.054  12.421  0.00  0.00    +0.000 C 
ATOM      2  C   UNL     1      49.454   8.054  12.851  0.00  0.00    +0.000 C 
ATOM      3  C   UNL     1      49.105   8.002  11.407  0.00  0.00    +0.000 C 
ENDROOT
BRANCH   1   4
ATOM      4  C   UNL     1      47.165   6.799  12.649  0.00  0.00    +0.000 A 
ATOM      5  C   UNL     1      47.454   5.849  13.635  0.00  0.00    +0.000 A 
ATOM      6  C   UNL     1      46.671   4.703  13.782  0.00  0.00    +0.000 A 
ATOM      7  C   UNL     1      45.615   4.451  12.898  0.00  0.00    +0.000 A 
ATOM      8  C   UNL     1      45.314   5.359  11.877  0.00  0.00    +0.000 A 
ATOM      9  C   UNL     1      46.068   6.538  11.820  0.00  0.00    +0.000 A 
BRANCH   8  10
ATOM     10  C   UNL     1      44.250   5.042  10.834  0.00  0.00    +0.000 C 
ATOM     11  C   UNL     1      43.052   4.266  11.414  0.00  0.00    +0.000 C 
ATOM     12  C   UNL     1      43.313   2.770  11.598  0.00  0.00    +0.000 C 
ATOM     13  N   UNL     1      43.863   2.124  10.404  0.00  0.00    +0.000 NA
ATOM     14  C   UNL     1      45.017   2.816   9.828  0.00  0.00    +0.000 C 
ATOM     15  C   UNL     1      44.782   4.308   9.595  0.00  0.00    +0.000 C 
ATOM     16  H   UNL     1      43.129   2.068   9.700  0.00  0.00    +0.000 HD
ENDBRANCH   8  10
ENDBRANCH   1   4
BRANCH   1  17
ATOM     17  O   UNL     1      47.391   9.299  12.876  0.00  0.00    +0.000 OA
BRANCH  17  22
ATOM     18  C   UNL     1      44.533  10.635  11.103  0.00  0.00    +0.000 A 
ATOM     19  C   UNL     1      45.102  11.759  10.538  0.00  0.00    +0.000 A 
ATOM     20  N   UNL     1      46.415  12.084  10.653  0.00  0.00    +0.000 NA
ATOM     21  C   UNL     1      47.182  11.260  11.419  0.00  0.00    +0.000 A 
ATOM     22  C   UNL     1      46.701  10.119  12.031  0.00  0.00    +0.000 A 
ATOM     23  C   UNL     1      45.354   9.783  11.830  0.00  0.00    +0.000 A 
BRANCH  18  25
ATOM     24  C   UNL     1      41.942  10.174  11.049  0.00  0.00    +0.000 C 
ATOM     25  C   UNL     1      43.119  10.439  11.028  0.00  0.00    +0.000 C 
BRANCH  24  26
ATOM     26  N   UNL     1      40.548   9.788  11.149  0.00  0.00    +0.000 N 
ATOM     27  H   UNL     1      40.342   9.166  11.917  0.00  0.00    +0.000 HD
ATOM     28  H   UNL     1      40.131   9.499  10.278  0.00  0.00    +0.000 HD
ENDBRANCH  24  26
ENDBRANCH  18  25
ENDBRANCH  17  22
ENDBRANCH   1  17
TORSDOF 6
ENDMDL
MODEL 5
REMARK VINA RESULT:    -6.134      2.990      5.237
REMARK INTER + INTRA:          -8.883
REMARK INTER:                  -7.981
REMARK INTRA:                  -0.902
REMARK UNBOUND:                -0.777
REMARK  Name = 
REMARK  6 active torsions:
REMARK  status: ('A' for Active; 'I' for Inactive)
REMARK    1  A    between atoms: N_1  and  C_2
REMARK    2  A    between atoms: C_3  and  C_4
REMARK    3  A    between atoms: C_8  and  O_9
REMARK    4  A    between atoms: O_9  and  C_10
REMARK    5  A    between atoms: C_10  and  C_11
REMARK    6  A    between atoms: C_15  and  C_16
REMARK                            x       y       z     vdW  Elec       q    Type
REMARK                         _______ _______ _______ _____ _____    ______ ____
ROOT
ATOM      1  C   UNL     1      48.090   7.780  12.604  0.00  0.00    +0.000 C 
ATOM      2  C   UNL     1      49.025   8.505  11.634  0.00  0.00    +0.000 C 
ATOM      3  C   UNL     1      49.182   7.044  11.864  0.00  0.00    +0.000 C 
ENDROOT
BRANCH   1   4
ATOM      4  C   UNL     1      48.264   8.017  14.091  0.00  0.00    +0.000 A 
ATOM      5  C   UNL     1      48.260   9.286  14.683  0.00  0.00    +0.000 A 
ATOM      6  C   UNL     1      48.446   9.439  16.058  0.00  0.00    +0.000 A 
ATOM      7  C   UNL     1      48.706   8.325  16.864  0.00  0.00    +0.000 A 
ATOM      8  C   UNL     1      48.752   7.043  16.307  0.00  0.00    +0.000 A 
ATOM      9  C   UNL     1      48.473   6.923  14.940  0.00  0.00    +0.000 A 
BRANCH   8  10
ATOM     10  C   UNL     1      49.154   5.836  17.146  0.00  0.00    +0.000 C 
ATOM     11  C   UNL     1      48.596   4.509  16.596  0.00  0.00    +0.000 C 
ATOM     12  C   UNL     1      47.128   4.261  16.949  0.00  0.00    +0.000 C 
ATOM     13  N   UNL     1      46.834   4.436  18.372  0.00  0.00    +0.000 NA
ATOM     14  C   UNL     1      47.329   5.693  18.936  0.00  0.00    +0.000 C 
ATOM     15  C   UNL     1      48.803   5.959  18.635  0.00  0.00    +0.000 C 
ATOM     16  H   UNL     1      47.250   3.661  18.886  0.00  0.00    +0.000 HD
ENDBRANCH   8  10
ENDBRANCH   1   4
BRANCH   1  17
ATOM     17  O   UNL     1      46.736   7.906  12.090  0.00  0.00    +0.000 OA
BRANCH  17  22
ATOM     18  C   UNL     1      45.206   5.061  10.457  0.00  0.00    +0.000 A 
ATOM     19  C   UNL     1      44.496   4.527  11.516  0.00  0.00    +0.000 A 
ATOM     20  N   UNL     1      44.437   5.090  12.750  0.00  0.00    +0.000 NA
ATOM     21  C   UNL     1      45.170   6.222  12.940  0.00  0.00    +0.000 A 
ATOM     22  C   UNL     1      45.917   6.824  11.946  0.00  0.00    +0.000 A 
ATOM     23  C   UNL     1      45.896   6.248  10.668  0.00  0.00    +0.000 A 
BRANCH  18  25
ATOM     24  C   UNL     1      45.491   3.803   8.164  0.00  0.00    +0.000 C 
ATOM     25  C   UNL     1      45.307   4.336   9.230  0.00  0.00    +0.000 C 
BRANCH  24  26
ATOM     26  N   UNL     1      45.796   3.223   6.870  0.00  0.00    +0.000 N 
ATOM     27  H   UNL     1      45.511   3.787   6.083  0.00  0.00    +0.000 HD
ATOM     28  H   UNL     1      45.545   2.251   6.778  0.00  0.00    +0.000 HD
ENDBRANCH  24  26
ENDBRANCH  18  25
ENDBRANCH  17  22
ENDBRANCH   1  17
TORSDOF 6
ENDMDL
MODEL 6
REMARK VINA RESULT:    -6.079      3.875      8.649
REMARK INTER + INTRA:          -8.811
REMARK INTER:                  -8.126
REMARK INTRA:                  -0.685
REMARK UNBOUND:                -0.777
REMARK  Name = 
REMARK  6 active torsions:
REMARK  status: ('A' for Active; 'I' for Inactive)
REMARK    1  A    between atoms: N_1  and  C_2
REMARK    2  A    between atoms: C_3  and  C_4
REMARK    3  A    between atoms: C_8  and  O_9
REMARK    4  A    between atoms: O_9  and  C_10
REMARK    5  A    between atoms: C_10  and  C_11
REMARK    6  A    between atoms: C_15  and  C_16
REMARK                            x       y       z     vdW  Elec       q    Type
REMARK                         _______ _______ _______ _____ _____    ______ ____
ROOT
ATOM      1  C   UNL     1      48.957   7.400  14.512  0.00  0.00    +0.000 C 
ATOM      2  C   UNL     1      50.251   7.905  13.872  0.00  0.00    +0.000 C 
ATOM      3  C   UNL     1      49.569   8.723  14.910  0.00  0.00    +0.000 C 
ENDROOT
BRANCH   1   4
ATOM      4  C   UNL     1      47.686   7.416  13.685  0.00  0.00    +0.000 A 
ATOM      5  C   UNL     1      46.809   8.506  13.628  0.00  0.00    +0.000 A 
ATOM      6  C   UNL     1      45.643   8.451  12.863  0.00  0.00    +0.000 A 
ATOM      7  C   UNL     1      45.296   7.276  12.186  0.00  0.00    +0.000 A 
ATOM      8  C   UNL     1      46.129   6.153  12.245  0.00  0.00    +0.000 A 
ATOM      9  C   UNL     1      47.332   6.279  12.950  0.00  0.00    +0.000 A 
BRANCH   8  10
ATOM     10  C   UNL     1      45.708   4.830  11.618  0.00  0.00    +0.000 C 
ATOM     11  C   UNL     1      44.720   5.007  10.448  0.00  0.00    +0.000 C 
ATOM     12  C   UNL     1      43.275   5.255  10.887  0.00  0.00    +0.000 C 
ATOM     13  N   UNL     1      42.794   4.287  11.874  0.00  0.00    +0.000 NA
ATOM     14  C   UNL     1      43.691   4.099  13.016  0.00  0.00    +0.000 C 
ATOM     15  C   UNL     1      45.138   3.813  12.616  0.00  0.00    +0.000 C 
ATOM     16  H   UNL     1      42.662   3.390  11.410  0.00  0.00    +0.000 HD
ENDBRANCH   8  10
ENDBRANCH   1   4
BRANCH   1  17
ATOM     17  O   UNL     1      49.259   6.155  15.197  0.00  0.00    +0.000 OA
BRANCH  17  22
ATOM     18  C   UNL     1      47.839   6.300  18.523  0.00  0.00    +0.000 A 
ATOM     19  C   UNL     1      47.026   5.183  18.489  0.00  0.00    +0.000 A 
ATOM     20  N   UNL     1      46.958   4.327  17.437  0.00  0.00    +0.000 NA
ATOM     21  C   UNL     1      47.710   4.640  16.346  0.00  0.00    +0.000 A 
ATOM     22  C   UNL     1      48.545   5.739  16.284  0.00  0.00    +0.000 A 
ATOM     23  C   UNL     1      48.637   6.560  17.417  0.00  0.00    +0.000 A 
BRANCH  18  25
ATOM     24  C   UNL     1      47.714   7.872  20.630  0.00  0.00    +0.000 C 
ATOM     25  C   UNL     1      47.754   7.208  19.624  0.00  0.00    +0.000 C 
BRANCH  24  26
ATOM     26  N   UNL     1      47.700   8.588  21.891  0.00  0.00    +0.000 N 
ATOM     27  H   UNL     1      48.561   8.528  22.413  0.00  0.00    +0.000 HD
ATOM     28  H   UNL     1      46.879   8.428  22.453  0.00  0.00    +0.000 HD
ENDBRANCH  24  26
ENDBRANCH  18  25
ENDBRANCH  17  22
ENDBRANCH   1  17
TORSDOF 6
ENDMDL
MODEL 7
REMARK VINA RESULT:    -6.036      2.432      3.891
REMARK INTER + INTRA:          -8.753
REMARK INTER:                  -8.622
REMARK INTRA:                  -0.131
REMARK UNBOUND:                -0.777
REMARK  Name = 
REMARK  6 active torsions:
REMARK  status: ('A' for Active; 'I' for Inactive)
REMARK    1  A    between atoms: N_1  and  C_2
REMARK    2  A    between atoms: C_3  and  C_4
REMARK    3  A    between atoms: C_8  and  O_9
REMARK    4  A    between atoms: O_9  and  C_10
REMARK    5  A    between atoms: C_10  and  C_11
REMARK    6  A    between atoms: C_15  and  C_16
REMARK                            x       y       z     vdW  Elec       q    Type
REMARK                         _______ _______ _______ _____ _____    ______ ____
ROOT
ATOM      1  C   UNL     1      46.452   6.446  12.424  0.00  0.00    +0.000 C 
ATOM      2  C   UNL     1      46.700   7.930  12.153  0.00  0.00    +0.000 C 
ATOM      3  C   UNL     1      47.433   6.902  11.369  0.00  0.00    +0.000 C 
ENDROOT
BRANCH   1   4
ATOM      4  C   UNL     1      47.002   5.842  13.702  0.00  0.00    +0.000 A 
ATOM      5  C   UNL     1      46.534   4.647  14.261  0.00  0.00    +0.000 A 
ATOM      6  C   UNL     1      47.067   4.153  15.453  0.00  0.00    +0.000 A 
ATOM      7  C   UNL     1      48.041   4.881  16.146  0.00  0.00    +0.000 A 
ATOM      8  C   UNL     1      48.512   6.097  15.639  0.00  0.00    +0.000 A 
ATOM      9  C   UNL     1      48.014   6.513  14.397  0.00  0.00    +0.000 A 
BRANCH   8  10
ATOM     10  C   UNL     1      49.478   6.961  16.440  0.00  0.00    +0.000 C 
ATOM     11  C   UNL     1      49.331   6.773  17.962  0.00  0.00    +0.000 C 
ATOM     12  C   UNL     1      48.151   7.533  18.571  0.00  0.00    +0.000 C 
ATOM     13  N   UNL     1      48.107   8.945  18.182  0.00  0.00    +0.000 NA
ATOM     14  C   UNL     1      48.223   9.173  16.741  0.00  0.00    +0.000 C 
ATOM     15  C   UNL     1      49.413   8.457  16.103  0.00  0.00    +0.000 C 
ATOM     16  H   UNL     1      48.866   9.434  18.654  0.00  0.00    +0.000 HD
ENDBRANCH   8  10
ENDBRANCH   1   4
BRANCH   1  17
ATOM     17  O   UNL     1      45.055   6.171  12.135  0.00  0.00    +0.000 OA
BRANCH  17  22
ATOM     18  C   UNL     1      45.047   3.880   9.333  0.00  0.00    +0.000 A 
ATOM     19  C   UNL     1      44.190   2.910   9.816  0.00  0.00    +0.000 A 
ATOM     20  N   UNL     1      43.548   2.991  11.010  0.00  0.00    +0.000 NA
ATOM     21  C   UNL     1      43.824   4.081  11.778  0.00  0.00    +0.000 A 
ATOM     22  C   UNL     1      44.672   5.097  11.384  0.00  0.00    +0.000 A 
ATOM     23  C   UNL     1      45.262   5.007  10.115  0.00  0.00    +0.000 A 
BRANCH  18  25
ATOM     24  C   UNL     1      46.350   3.584   7.066  0.00  0.00    +0.000 C 
ATOM     25  C   UNL     1      45.768   3.652   8.121  0.00  0.00    +0.000 C 
BRANCH  24  26
ATOM     26  N   UNL     1      47.032   3.604   5.786  0.00  0.00    +0.000 N 
ATOM     27  H   UNL     1      46.536   3.135   5.043  0.00  0.00    +0.000 HD
ATOM     28  H   UNL     1      48.009   3.360   5.830  0.00  0.00    +0.000 HD
ENDBRANCH  24  26
ENDBRANCH  18  25
ENDBRANCH  17  22
ENDBRANCH   1  17
TORSDOF 6
ENDMDL
MODEL 8
REMARK VINA RESULT:    -5.834      3.796      6.213
REMARK INTER + INTRA:          -8.487
REMARK INTER:                  -7.857
REMARK INTRA:                  -0.630
REMARK UNBOUND:                -0.777
REMARK  Name = 
REMARK  6 active torsions:
REMARK  status: ('A' for Active; 'I' for Inactive)
REMARK    1  A    between atoms: N_1  and  C_2
REMARK    2  A    between atoms: C_3  and  C_4
REMARK    3  A    between atoms: C_8  and  O_9
REMARK    4  A    between atoms: O_9  and  C_10
REMARK    5  A    between atoms: C_10  and  C_11
REMARK    6  A    between atoms: C_15  and  C_16
REMARK                            x       y       z     vdW  Elec       q    Type
REMARK                         _______ _______ _______ _____ _____    ______ ____
ROOT
ATOM      1  C   UNL     1      48.874   8.046  13.790  0.00  0.00    +0.000 C 
ATOM      2  C   UNL     1      49.526   9.276  13.158  0.00  0.00    +0.000 C 
ATOM      3  C   UNL     1      49.489   7.991  12.411  0.00  0.00    +0.000 C 
ENDROOT
BRANCH   1   4
ATOM      4  C   UNL     1      49.596   7.348  14.927  0.00  0.00    +0.000 A 
ATOM      5  C   UNL     1      50.960   7.506  15.195  0.00  0.00    +0.000 A 
ATOM      6  C   UNL     1      51.572   6.818  16.245  0.00  0.00    +0.000 A 
ATOM      7  C   UNL     1      50.839   5.906  17.013  0.00  0.00    +0.000 A 
ATOM      8  C   UNL     1      49.480   5.694  16.756  0.00  0.00    +0.000 A 
ATOM      9  C   UNL     1      48.886   6.468  15.752  0.00  0.00    +0.000 A 
BRANCH   8  10
ATOM     10  C   UNL     1      48.700   4.618  17.500  0.00  0.00    +0.000 C 
ATOM     11  C   UNL     1      49.601   3.498  18.056  0.00  0.00    +0.000 C 
ATOM     12  C   UNL     1      50.024   2.465  17.009  0.00  0.00    +0.000 C 
ATOM     13  N   UNL     1      48.903   1.935  16.230  0.00  0.00    +0.000 NA
ATOM     14  C   UNL     1      48.029   2.964  15.663  0.00  0.00    +0.000 C 
ATOM     15  C   UNL     1      47.556   3.995  16.687  0.00  0.00    +0.000 C 
ATOM     16  H   UNL     1      48.349   1.328  16.831  0.00  0.00    +0.000 HD
ENDBRANCH   8  10
ENDBRANCH   1   4
BRANCH   1  17
ATOM     17  O   UNL     1      47.472   8.355  14.017  0.00  0.00    +0.000 OA
BRANCH  17  22
ATOM     18  C   UNL     1      45.157   6.273  12.171  0.00  0.00    +0.000 A 
ATOM     19  C   UNL     1      44.466   7.243  11.470  0.00  0.00    +0.000 A 
ATOM     20  N   UNL     1      44.759   8.567  11.518  0.00  0.00    +0.000 NA
ATOM     21  C   UNL     1      45.767   8.939  12.354  0.00  0.00    +0.000 A 
ATOM     22  C   UNL     1      46.509   8.044  13.101  0.00  0.00    +0.000 A 
ATOM     23  C   UNL     1      46.218   6.679  12.970  0.00  0.00    +0.000 A 
BRANCH  18  25
ATOM     24  C   UNL     1      44.319   3.781  12.265  0.00  0.00    +0.000 C 
ATOM     25  C   UNL     1      44.701   4.919  12.150  0.00  0.00    +0.000 C 
BRANCH  24  26
ATOM     26  N   UNL     1      43.857   2.427  12.503  0.00  0.00    +0.000 N 
ATOM     27  H   UNL     1      44.531   1.711  12.276  0.00  0.00    +0.000 HD
ATOM     28  H   UNL     1      42.933   2.232  12.151  0.00  0.00    +0.000 HD
ENDBRANCH  24  26
ENDBRANCH  18  25
ENDBRANCH  17  22
ENDBRANCH   1  17
TORSDOF 6
ENDMDL
MODEL 9
REMARK VINA RESULT:    -5.832      3.483      6.412
REMARK INTER + INTRA:          -8.484
REMARK INTER:                  -7.472
REMARK INTRA:                  -1.012
REMARK UNBOUND:                -0.777
REMARK  Name = 
REMARK  6 active torsions:
REMARK  status: ('A' for Active; 'I' for Inactive)
REMARK    1  A    between atoms: N_1  and  C_2
REMARK    2  A    between atoms: C_3  and  C_4
REMARK    3  A    between atoms: C_8  and  O_9
REMARK    4  A    between atoms: O_9  and  C_10
REMARK    5  A    between atoms: C_10  and  C_11
REMARK    6  A    between atoms: C_15  and  C_16
REMARK                            x       y       z     vdW  Elec       q    Type
REMARK                         _______ _______ _______ _____ _____    ______ ____
ROOT
ATOM      1  C   UNL     1      48.553   8.733  13.355  0.00  0.00    +0.000 C 
ATOM      2  C   UNL     1      49.740   9.025  14.273  0.00  0.00    +0.000 C 
ATOM      3  C   UNL     1      48.354   9.098  14.808  0.00  0.00    +0.000 C 
ENDROOT
BRANCH   1   4
ATOM      4  C   UNL     1      48.184   9.757  12.300  0.00  0.00    +0.000 A 
ATOM      5  C   UNL     1      49.117  10.390  11.471  0.00  0.00    +0.000 A 
ATOM      6  C   UNL     1      48.716  11.342  10.531  0.00  0.00    +0.000 A 
ATOM      7  C   UNL     1      47.373  11.727  10.445  0.00  0.00    +0.000 A 
ATOM      8  C   UNL     1      46.414  11.143  11.279  0.00  0.00    +0.000 A 
ATOM      9  C   UNL     1      46.844  10.131  12.146  0.00  0.00    +0.000 A 
BRANCH   8  10
ATOM     10  C   UNL     1      44.973  11.638  11.285  0.00  0.00    +0.000 C 
ATOM     11  C   UNL     1      43.968  10.557  11.730  0.00  0.00    +0.000 C 
ATOM     12  C   UNL     1      43.615   9.550  10.634  0.00  0.00    +0.000 C 
ATOM     13  N   UNL     1      43.225  10.179   9.370  0.00  0.00    +0.000 NA
ATOM     14  C   UNL     1      44.161  11.200   8.896  0.00  0.00    +0.000 C 
ATOM     15  C   UNL     1      44.510  12.246   9.954  0.00  0.00    +0.000 C 
ATOM     16  H   UNL     1      42.308  10.605   9.490  0.00  0.00    +0.000 HD
ENDBRANCH   8  10
ENDBRANCH   1   4
BRANCH   1  17
ATOM     17  O   UNL     1      48.675   7.359  12.898  0.00  0.00    +0.000 OA
BRANCH  17  22
ATOM     18  C   UNL     1      45.874   5.346  11.802  0.00  0.00    +0.000 A 
ATOM     19  C   UNL     1      45.660   4.590  12.938  0.00  0.00    +0.000 A 
ATOM     20  N   UNL     1      46.355   4.745  14.094  0.00  0.00    +0.000 NA
ATOM     21  C   UNL     1      47.350   5.674  14.088  0.00  0.00    +0.000 A 
ATOM     22  C   UNL     1      47.644   6.471  12.998  0.00  0.00    +0.000 A 
ATOM     23  C   UNL     1      46.857   6.326  11.847  0.00  0.00    +0.000 A 
BRANCH  18  25
ATOM     24  C   UNL     1      44.649   4.649   9.580  0.00  0.00    +0.000 C 
ATOM     25  C   UNL     1      45.176   5.030  10.596  0.00  0.00    +0.000 C 
BRANCH  24  26
ATOM     26  N   UNL     1      44.062   4.100   8.373  0.00  0.00    +0.000 N 
ATOM     27  H   UNL     1      44.169   3.101   8.275  0.00  0.00    +0.000 HD
ATOM     28  H   UNL     1      44.282   4.609   7.531  0.00  0.00    +0.000 HD
ENDBRANCH  24  26
ENDBRANCH  18  25
ENDBRANCH  17  22
ENDBRANCH   1  17
TORSDOF 6
ENDMDL
