MODEL 1
REMARK VINA RESULT:    -8.318      0.000      0.000
REMARK INTER + INTRA:         -13.216
REMARK INTER:                 -11.722
REMARK INTRA:                  -1.494
REMARK UNBOUND:                -1.494
REMARK  Name = 
REMARK  7 active torsions:
REMARK  status: ('A' for Active; 'I' for Inactive)
REMARK    1  A    between atoms: C_2  and  C_4
REMARK    2  A    between atoms: C_4  and  N_5
REMARK    3  A    between atoms: C_4  and  C_18
REMARK    4  A    between atoms: C_6  and  C_8
REMARK    5  A    between atoms: C_21  and  C_22
REMARK    6  A    between atoms: C_22  and  N_23
REMARK    7  A    between atoms: C_24  and  C_26
REMARK                            x       y       z     vdW  Elec       q    Type
REMARK                         _______ _______ _______ _____ _____    ______ ____
ROOT
ATOM      1  C   UNL     1      48.221   6.854  14.387  0.00  0.00    +0.000 C 
ENDROOT
BRANCH   1   2
ATOM      2  C   UNL     1      47.211   5.985  13.641  0.00  0.00    +0.000 A 
ATOM      3  C   UNL     1      46.966   4.670  14.065  0.00  0.00    +0.000 A 
ATOM      4  C   UNL     1      46.096   3.831  13.356  0.00  0.00    +0.000 A 
ATOM      5  C   UNL     1      45.450   4.283  12.198  0.00  0.00    +0.000 A 
ATOM      6  C   UNL     1      45.644   5.612  11.802  0.00  0.00    +0.000 A 
ATOM      7  C   UNL     1      46.513   6.452  12.514  0.00  0.00    +0.000 A 
BRANCH   5   8
ATOM      8  C   UNL     1      44.595   3.350  11.376  0.00  0.00    +0.000 C 
BRANCH   8   9
ATOM      9  N   UNL     1      45.308   2.798  10.246  0.00  0.00    +0.000 N 
ATOM     10  C   UNL     1      45.099   3.307   8.977  0.00  0.00    +0.000 C 
ATOM     11  O   UNL     1      44.324   4.223   8.732  0.00  0.00    +0.000 OA
ATOM     12  H   UNL     1      46.122   2.232  10.432  0.00  0.00    +0.000 HD
BRANCH  10  13
ATOM     13  C   UNL     1      45.895   2.695   7.888  0.00  0.00    +0.000 A 
ATOM     14  C   UNL     1      46.209   3.380   6.711  0.00  0.00    +0.000 A 
ATOM     15  C   UNL     1      46.970   2.745   5.732  0.00  0.00    +0.000 A 
ATOM     16  C   UNL     1      47.396   1.447   5.966  0.00  0.00    +0.000 A 
ATOM     17  N   UNL     1      47.125   0.762   7.097  0.00  0.00    +0.000 NA
ATOM     18  C   UNL     1      46.389   1.408   8.042  0.00  0.00    +0.000 A 
ENDBRANCH  10  13
ENDBRANCH   8   9
ENDBRANCH   5   8
ENDBRANCH   1   2
BRANCH   1  20
ATOM     19  N   UNL     1      47.268   9.082  14.890  0.00  0.00    +0.000 N 
ATOM     20  C   UNL     1      48.069   8.365  14.032  0.00  0.00    +0.000 C 
ATOM     21  O   UNL     1      48.519   8.913  13.029  0.00  0.00    +0.000 OA
ATOM     22  H   UNL     1      47.024  10.004  14.550  0.00  0.00    +0.000 HD
ATOM     23  H   UNL     1      46.490   8.569  15.305  0.00  0.00    +0.000 HD
ENDBRANCH   1  20
BRANCH   1  24
ATOM     24  N   UNL     1      48.111   6.652  15.828  0.00  0.00    +0.000 N 
ATOM     25  C   UNL     1      49.182   6.225  16.581  0.00  0.00    +0.000 C 
ATOM     26  O   UNL     1      50.307   6.100  16.104  0.00  0.00    +0.000 OA
ATOM     27  H   UNL     1      47.186   6.400  16.156  0.00  0.00    +0.000 HD
BRANCH  25  28
ATOM     28  C   UNL     1      48.918   5.984  18.005  0.00  0.00    +0.000 A 
ATOM     29  C   UNL     1      49.185   4.742  18.566  0.00  0.00    +0.000 A 
ATOM     30  S   UNL     1      48.815   4.650  20.231  0.00  0.00    +0.000 S 
ATOM     31  C   UNL     1      48.247   6.254  20.250  0.00  0.00    +0.000 A 
ATOM     32  N   UNL     1      47.733   6.805  21.383  0.00  0.00    +0.000 NA
ATOM     33  C   UNL     1      47.319   8.020  21.244  0.00  0.00    +0.000 A 
ATOM     34  N   UNL     1      47.385   8.740  20.080  0.00  0.00    +0.000 N 
ATOM     35  C   UNL     1      47.922   8.235  18.921  0.00  0.00    +0.000 A 
ATOM     36  O   UNL     1      48.015   8.916  17.906  0.00  0.00    +0.000 OA
ATOM     37  C   UNL     1      48.374   6.861  19.014  0.00  0.00    +0.000 A 
ATOM     38  H   UNL     1      47.061   9.694  20.044  0.00  0.00    +0.000 HD
ENDBRANCH  25  28
ENDBRANCH   1  24
TORSDOF 7
ENDMDL
MODEL 2
REMARK VINA RESULT:    -7.949      2.829      4.141
REMARK INTER + INTRA:         -12.696
REMARK INTER:                 -11.170
REMARK INTRA:                  -1.527
REMARK UNBOUND:                -1.494
REMARK  Name = 
REMARK  7 active torsions:
REMARK  status: ('A' for Active; 'I' for Inactive)
REMARK    1  A    between atoms: C_2  and  C_4
REMARK    2  A    between atoms: C_4  and  N_5
REMARK    3  A    between atoms: C_4  and  C_18
REMARK    4  A    between atoms: C_6  and  C_8
REMARK    5  A    between atoms: C_21  and  C_22
REMARK    6  A    between atoms: C_22  and  N_23
REMARK    7  A    between atoms: C_24  and  C_26
REMARK                            x       y       z     vdW  Elec       q    Type
REMARK                         _______ _______ _______ _____ _____    ______ ____
ROOT
ATOM      1  C   UNL     1      46.966   5.187  14.933  0.00  0.00    +0.000 C 
ENDROOT
BRANCH   1   2
ATOM      2  C   UNL     1      46.144   5.135  13.646  0.00  0.00    +0.000 A 
ATOM      3  C   UNL     1      45.012   4.310  13.567  0.00  0.00    +0.000 A 
ATOM      4  C   UNL     1      44.284   4.194  12.376  0.00  0.00    +0.000 A 
ATOM      5  C   UNL     1      44.670   4.897  11.228  0.00  0.00    +0.000 A 
ATOM      6  C   UNL     1      45.763   5.768  11.316  0.00  0.00    +0.000 A 
ATOM      7  C   UNL     1      46.491   5.885  12.510  0.00  0.00    +0.000 A 
BRANCH   5   8
ATOM      8  C   UNL     1      43.949   4.694   9.917  0.00  0.00    +0.000 C 
BRANCH   8   9
ATOM      9  N   UNL     1      44.841   4.295   8.852  0.00  0.00    +0.000 N 
ATOM     10  C   UNL     1      45.236   2.975   8.733  0.00  0.00    +0.000 C 
ATOM     11  O   UNL     1      44.872   2.088   9.495  0.00  0.00    +0.000 OA
ATOM     12  H   UNL     1      44.959   4.926   8.073  0.00  0.00    +0.000 HD
BRANCH  10  13
ATOM     13  C   UNL     1      46.129   2.659   7.596  0.00  0.00    +0.000 A 
ATOM     14  C   UNL     1      46.230   3.479   6.470  0.00  0.00    +0.000 A 
ATOM     15  C   UNL     1      47.098   3.124   5.440  0.00  0.00    +0.000 A 
ATOM     16  C   UNL     1      47.841   1.961   5.573  0.00  0.00    +0.000 A 
ATOM     17  N   UNL     1      47.779   1.154   6.653  0.00  0.00    +0.000 NA
ATOM     18  C   UNL     1      46.931   1.528   7.650  0.00  0.00    +0.000 A 
ENDBRANCH  10  13
ENDBRANCH   8   9
ENDBRANCH   5   8
ENDBRANCH   1   2
BRANCH   1  20
ATOM     19  N   UNL     1      46.957   3.595  16.828  0.00  0.00    +0.000 N 
ATOM     20  C   UNL     1      47.261   3.763  15.497  0.00  0.00    +0.000 C 
ATOM     21  O   UNL     1      47.809   2.851  14.884  0.00  0.00    +0.000 OA
ATOM     22  H   UNL     1      47.324   2.740  17.228  0.00  0.00    +0.000 HD
ATOM     23  H   UNL     1      47.077   4.418  17.419  0.00  0.00    +0.000 HD
ENDBRANCH   1  20
BRANCH   1  24
ATOM     24  N   UNL     1      48.209   5.922  14.722  0.00  0.00    +0.000 N 
ATOM     25  C   UNL     1      48.862   6.548  15.760  0.00  0.00    +0.000 C 
ATOM     26  O   UNL     1      48.499   6.427  16.928  0.00  0.00    +0.000 OA
ATOM     27  H   UNL     1      48.317   6.325  13.799  0.00  0.00    +0.000 HD
BRANCH  25  28
ATOM     28  C   UNL     1      50.058   7.320  15.402  0.00  0.00    +0.000 A 
ATOM     29  C   UNL     1      51.296   6.981  15.932  0.00  0.00    +0.000 A 
ATOM     30  S   UNL     1      52.567   7.991  15.402  0.00  0.00    +0.000 S 
ATOM     31  C   UNL     1      51.500   8.943  14.480  0.00  0.00    +0.000 A 
ATOM     32  N   UNL     1      51.942  10.030  13.792  0.00  0.00    +0.000 NA
ATOM     33  C   UNL     1      51.018  10.672  13.157  0.00  0.00    +0.000 A 
ATOM     34  N   UNL     1      49.695  10.317  13.135  0.00  0.00    +0.000 N 
ATOM     35  C   UNL     1      49.209   9.212  13.790  0.00  0.00    +0.000 A 
ATOM     36  O   UNL     1      48.029   8.887  13.714  0.00  0.00    +0.000 OA
ATOM     37  C   UNL     1      50.201   8.473  14.545  0.00  0.00    +0.000 A 
ATOM     38  H   UNL     1      49.025  10.851  12.602  0.00  0.00    +0.000 HD
ENDBRANCH  25  28
ENDBRANCH   1  24
TORSDOF 7
ENDMDL
MODEL 3
REMARK VINA RESULT:    -7.702      1.570      2.179
REMARK INTER + INTRA:         -12.349
REMARK INTER:                 -11.559
REMARK INTRA:                  -0.789
REMARK UNBOUND:                -1.494
REMARK  Name = 
REMARK  7 active torsions:
REMARK  status: ('A' for Active; 'I' for Inactive)
REMARK    1  A    between atoms: C_2  and  C_4
REMARK    2  A    between atoms: C_4  and  N_5
REMARK    3  A    between atoms: C_4  and  C_18
REMARK    4  A    between atoms: C_6  and  C_8
REMARK    5  A    between atoms: C_21  and  C_22
REMARK    6  A    between atoms: C_22  and  N_23
REMARK    7  A    between atoms: C_24  and  C_26
REMARK                            x       y       z     vdW  Elec       q    Type
REMARK                         _______ _______ _______ _____ _____    ______ ____
ROOT
ATOM      1  C   UNL     1      48.293   7.660  13.623  0.00  0.00    +0.000 C 
ENDROOT
BRANCH   1   2
ATOM      2  C   UNL     1      47.118   6.995  12.909  0.00  0.00    +0.000 A 
ATOM      3  C   UNL     1      46.881   5.622  13.074  0.00  0.00    +0.000 A 
ATOM      4  C   UNL     1      45.853   4.976  12.375  0.00  0.00    +0.000 A 
ATOM      5  C   UNL     1      45.035   5.685  11.486  0.00  0.00    +0.000 A 
ATOM      6  C   UNL     1      45.228   7.066  11.361  0.00  0.00    +0.000 A 
ATOM      7  C   UNL     1      46.256   7.713  12.063  0.00  0.00    +0.000 A 
BRANCH   5   8
ATOM      8  C   UNL     1      43.996   4.973  10.655  0.00  0.00    +0.000 C 
BRANCH   8   9
ATOM      9  N   UNL     1      44.558   3.898   9.869  0.00  0.00    +0.000 N 
ATOM     10  C   UNL     1      45.413   4.178   8.820  0.00  0.00    +0.000 C 
ATOM     11  O   UNL     1      45.739   5.313   8.495  0.00  0.00    +0.000 OA
ATOM     12  H   UNL     1      44.520   2.964  10.251  0.00  0.00    +0.000 HD
BRANCH  10  13
ATOM     13  C   UNL     1      45.959   3.011   8.091  0.00  0.00    +0.000 A 
ATOM     14  C   UNL     1      46.654   3.136   6.885  0.00  0.00    +0.000 A 
ATOM     15  C   UNL     1      47.148   1.994   6.259  0.00  0.00    +0.000 A 
ATOM     16  C   UNL     1      46.935   0.764   6.862  0.00  0.00    +0.000 A 
ATOM     17  N   UNL     1      46.282   0.609   8.034  0.00  0.00    +0.000 NA
ATOM     18  C   UNL     1      45.818   1.741   8.631  0.00  0.00    +0.000 A 
ENDBRANCH  10  13
ENDBRANCH   8   9
ENDBRANCH   5   8
ENDBRANCH   1   2
BRANCH   1  20
ATOM     19  N   UNL     1      47.724  10.064  13.778  0.00  0.00    +0.000 N 
ATOM     20  C   UNL     1      48.512   9.129  13.149  0.00  0.00    +0.000 C 
ATOM     21  O   UNL     1      49.241   9.480  12.224  0.00  0.00    +0.000 OA
ATOM     22  H   UNL     1      47.735  10.975  13.337  0.00  0.00    +0.000 HD
ATOM     23  H   UNL     1      46.796   9.746  14.059  0.00  0.00    +0.000 HD
ENDBRANCH   1  20
BRANCH   1  24
ATOM     24  N   UNL     1      48.111   7.611  15.071  0.00  0.00    +0.000 N 
ATOM     25  C   UNL     1      49.092   7.124  15.905  0.00  0.00    +0.000 C 
ATOM     26  O   UNL     1      50.206   6.813  15.492  0.00  0.00    +0.000 OA
ATOM     27  H   UNL     1      47.151   7.511  15.379  0.00  0.00    +0.000 HD
BRANCH  25  28
ATOM     28  C   UNL     1      48.754   7.054  17.332  0.00  0.00    +0.000 A 
ATOM     29  C   UNL     1      48.410   8.206  18.028  0.00  0.00    +0.000 A 
ATOM     30  S   UNL     1      48.049   7.929  19.674  0.00  0.00    +0.000 S 
ATOM     31  C   UNL     1      48.380   6.267  19.524  0.00  0.00    +0.000 A 
ATOM     32  N   UNL     1      48.305   5.434  20.597  0.00  0.00    +0.000 NA
ATOM     33  C   UNL     1      48.606   4.205  20.341  0.00  0.00    +0.000 A 
ATOM     34  N   UNL     1      48.961   3.729  19.106  0.00  0.00    +0.000 N 
ATOM     35  C   UNL     1      49.022   4.526  17.989  0.00  0.00    +0.000 A 
ATOM     36  O   UNL     1      49.293   4.066  16.886  0.00  0.00    +0.000 OA
ATOM     37  C   UNL     1      48.722   5.924  18.229  0.00  0.00    +0.000 A 
ATOM     38  H   UNL     1      49.165   2.750  18.969  0.00  0.00    +0.000 HD
ENDBRANCH  25  28
ENDBRANCH   1  24
TORSDOF 7
ENDMDL
MODEL 4
REMARK VINA RESULT:    -7.571      2.945      4.101
REMARK INTER + INTRA:         -12.163
REMARK INTER:                 -11.045
REMARK INTRA:                  -1.118
REMARK UNBOUND:                -1.494
REMARK  Name = 
REMARK  7 active torsions:
REMARK  status: ('A' for Active; 'I' for Inactive)
REMARK    1  A    between atoms: C_2  and  C_4
REMARK    2  A    between atoms: C_4  and  N_5
REMARK    3  A    between atoms: C_4  and  C_18
REMARK    4  A    between atoms: C_6  and  C_8
REMARK    5  A    between atoms: C_21  and  C_22
REMARK    6  A    between atoms: C_22  and  N_23
REMARK    7  A    between atoms: C_24  and  C_26
REMARK                            x       y       z     vdW  Elec       q    Type
REMARK                         _______ _______ _______ _____ _____    ______ ____
ROOT
ATOM      1  C   UNL     1      47.007   5.090  15.115  0.00  0.00    +0.000 C 
ENDROOT
BRANCH   1   2
ATOM      2  C   UNL     1      46.184   5.014  13.830  0.00  0.00    +0.000 A 
ATOM      3  C   UNL     1      45.422   3.869  13.550  0.00  0.00    +0.000 A 
ATOM      4  C   UNL     1      44.715   3.748  12.347  0.00  0.00    +0.000 A 
ATOM      5  C   UNL     1      44.754   4.767  11.387  0.00  0.00    +0.000 A 
ATOM      6  C   UNL     1      45.464   5.936  11.685  0.00  0.00    +0.000 A 
ATOM      7  C   UNL     1      46.170   6.058  12.891  0.00  0.00    +0.000 A 
BRANCH   5   8
ATOM      8  C   UNL     1      44.078   4.594  10.048  0.00  0.00    +0.000 C 
BRANCH   8   9
ATOM      9  N   UNL     1      45.006   4.218   9.005  0.00  0.00    +0.000 N 
ATOM     10  C   UNL     1      45.164   2.888   8.662  0.00  0.00    +0.000 C 
ATOM     11  O   UNL     1      44.554   1.972   9.199  0.00  0.00    +0.000 OA
ATOM     12  H   UNL     1      45.331   4.940   8.379  0.00  0.00    +0.000 HD
BRANCH  10  13
ATOM     13  C   UNL     1      46.116   2.604   7.564  0.00  0.00    +0.000 A 
ATOM     14  C   UNL     1      46.221   3.416   6.432  0.00  0.00    +0.000 A 
ATOM     15  C   UNL     1      47.147   3.093   5.442  0.00  0.00    +0.000 A 
ATOM     16  C   UNL     1      47.941   1.971   5.621  0.00  0.00    +0.000 A 
ATOM     17  N   UNL     1      47.877   1.174   6.709  0.00  0.00    +0.000 NA
ATOM     18  C   UNL     1      46.972   1.516   7.666  0.00  0.00    +0.000 A 
ENDBRANCH  10  13
ENDBRANCH   8   9
ENDBRANCH   5   8
ENDBRANCH   1   2
BRANCH   1  20
ATOM     19  N   UNL     1      46.962   3.413  16.935  0.00  0.00    +0.000 N 
ATOM     20  C   UNL     1      47.386   3.677  15.653  0.00  0.00    +0.000 C 
ATOM     21  O   UNL     1      48.088   2.855  15.070  0.00  0.00    +0.000 OA
ATOM     22  H   UNL     1      47.371   2.580  17.339  0.00  0.00    +0.000 HD
ATOM     23  H   UNL     1      46.932   4.214  17.566  0.00  0.00    +0.000 HD
ENDBRANCH   1  20
BRANCH   1  24
ATOM     24  N   UNL     1      48.204   5.900  14.913  0.00  0.00    +0.000 N 
ATOM     25  C   UNL     1      48.818   6.554  15.958  0.00  0.00    +0.000 C 
ATOM     26  O   UNL     1      48.461   6.402  17.123  0.00  0.00    +0.000 OA
ATOM     27  H   UNL     1      48.290   6.317  13.993  0.00  0.00    +0.000 HD
BRANCH  25  28
ATOM     28  C   UNL     1      49.966   7.399  15.609  0.00  0.00    +0.000 A 
ATOM     29  C   UNL     1      49.778   8.581  14.904  0.00  0.00    +0.000 A 
ATOM     30  S   UNL     1      51.226   9.429  14.591  0.00  0.00    +0.000 S 
ATOM     31  C   UNL     1      52.160   8.226  15.348  0.00  0.00    +0.000 A 
ATOM     32  N   UNL     1      53.517   8.312  15.393  0.00  0.00    +0.000 NA
ATOM     33  C   UNL     1      54.096   7.316  15.978  0.00  0.00    +0.000 A 
ATOM     34  N   UNL     1      53.441   6.249  16.535  0.00  0.00    +0.000 N 
ATOM     35  C   UNL     1      52.072   6.135  16.539  0.00  0.00    +0.000 A 
ATOM     36  O   UNL     1      51.508   5.195  17.088  0.00  0.00    +0.000 OA
ATOM     37  C   UNL     1      51.374   7.213  15.867  0.00  0.00    +0.000 A 
ATOM     38  H   UNL     1      53.952   5.512  16.996  0.00  0.00    +0.000 HD
ENDBRANCH  25  28
ENDBRANCH   1  24
TORSDOF 7
ENDMDL
MODEL 5
REMARK VINA RESULT:    -7.128      3.797      5.851
REMARK INTER + INTRA:         -11.539
REMARK INTER:                 -10.062
REMARK INTRA:                  -1.477
REMARK UNBOUND:                -1.494
REMARK  Name = 
REMARK  7 active torsions:
REMARK  status: ('A' for Active; 'I' for Inactive)
REMARK    1  A    between atoms: C_2  and  C_4
REMARK    2  A    between atoms: C_4  and  N_5
REMARK    3  A    between atoms: C_4  and  C_18
REMARK    4  A    between atoms: C_6  and  C_8
REMARK    5  A    between atoms: C_21  and  C_22
REMARK    6  A    between atoms: C_22  and  N_23
REMARK    7  A    between atoms: C_24  and  C_26
REMARK                            x       y       z     vdW  Elec       q    Type
REMARK                         _______ _______ _______ _____ _____    ______ ____
ROOT
ATOM      1  C   UNL     1      48.905   7.533  14.693  0.00  0.00    +0.000 C 
ENDROOT
BRANCH   1   2
ATOM      2  C   UNL     1      47.786   7.127  13.737  0.00  0.00    +0.000 A 
ATOM      3  C   UNL     1      47.372   5.788  13.666  0.00  0.00    +0.000 A 
ATOM      4  C   UNL     1      46.396   5.380  12.748  0.00  0.00    +0.000 A 
ATOM      5  C   UNL     1      45.809   6.300  11.870  0.00  0.00    +0.000 A 
ATOM      6  C   UNL     1      46.173   7.648  11.975  0.00  0.00    +0.000 A 
ATOM      7  C   UNL     1      47.149   8.056  12.897  0.00  0.00    +0.000 A 
BRANCH   5   8
ATOM      8  C   UNL     1      44.834   5.845  10.811  0.00  0.00    +0.000 C 
BRANCH   8   9
ATOM      9  N   UNL     1      45.473   5.085   9.761  0.00  0.00    +0.000 N 
ATOM     10  C   UNL     1      45.065   3.792   9.492  0.00  0.00    +0.000 C 
ATOM     11  O   UNL     1      44.170   3.222  10.103  0.00  0.00    +0.000 OA
ATOM     12  H   UNL     1      46.025   5.589   9.082  0.00  0.00    +0.000 HD
BRANCH  10  13
ATOM     13  C   UNL     1      45.761   3.104   8.381  0.00  0.00    +0.000 A 
ATOM     14  C   UNL     1      46.202   3.777   7.240  0.00  0.00    +0.000 A 
ATOM     15  C   UNL     1      46.859   3.067   6.237  0.00  0.00    +0.000 A 
ATOM     16  C   UNL     1      47.057   1.706   6.412  0.00  0.00    +0.000 A 
ATOM     17  N   UNL     1      46.657   1.027   7.509  0.00  0.00    +0.000 NA
ATOM     18  C   UNL     1      46.028   1.745   8.479  0.00  0.00    +0.000 A 
ENDBRANCH  10  13
ENDBRANCH   8   9
ENDBRANCH   5   8
ENDBRANCH   1   2
BRANCH   1  20
ATOM     19  N   UNL     1      48.158   7.041  17.000  0.00  0.00    +0.000 N 
ATOM     20  C   UNL     1      48.953   6.624  15.959  0.00  0.00    +0.000 C 
ATOM     21  O   UNL     1      49.693   5.657  16.116  0.00  0.00    +0.000 OA
ATOM     22  H   UNL     1      48.338   6.560  17.873  0.00  0.00    +0.000 HD
ATOM     23  H   UNL     1      48.042   8.051  17.095  0.00  0.00    +0.000 HD
ENDBRANCH   1  20
BRANCH   1  24
ATOM     24  N   UNL     1      50.195   7.528  14.010  0.00  0.00    +0.000 N 
ATOM     25  C   UNL     1      50.940   8.677  13.865  0.00  0.00    +0.000 C 
ATOM     26  O   UNL     1      50.616   9.736  14.396  0.00  0.00    +0.000 OA
ATOM     27  H   UNL     1      50.298   6.818  13.294  0.00  0.00    +0.000 HD
BRANCH  25  28
ATOM     28  C   UNL     1      52.179   8.553  13.088  0.00  0.00    +0.000 A 
ATOM     29  C   UNL     1      53.394   8.940  13.640  0.00  0.00    +0.000 A 
ATOM     30  S   UNL     1      54.722   8.722  12.590  0.00  0.00    +0.000 S 
ATOM     31  C   UNL     1      53.716   8.143  11.346  0.00  0.00    +0.000 A 
ATOM     32  N   UNL     1      54.222   7.809  10.128  0.00  0.00    +0.000 NA
ATOM     33  C   UNL     1      53.340   7.408   9.275  0.00  0.00    +0.000 A 
ATOM     34  N   UNL     1      51.998   7.297   9.533  0.00  0.00    +0.000 N 
ATOM     35  C   UNL     1      51.447   7.596  10.755  0.00  0.00    +0.000 A 
ATOM     36  O   UNL     1      50.251   7.440  10.975  0.00  0.00    +0.000 OA
ATOM     37  C   UNL     1      52.392   8.080  11.741  0.00  0.00    +0.000 A 
ATOM     38  H   UNL     1      51.363   6.958   8.826  0.00  0.00    +0.000 HD
ENDBRANCH  25  28
ENDBRANCH   1  24
TORSDOF 7
ENDMDL
MODEL 6
REMARK VINA RESULT:    -7.115      3.688      8.841
REMARK INTER + INTRA:         -11.520
REMARK INTER:                 -10.195
REMARK INTRA:                  -1.326
REMARK UNBOUND:                -1.494
REMARK  Name = 
REMARK  7 active torsions:
REMARK  status: ('A' for Active; 'I' for Inactive)
REMARK    1  A    between atoms: C_2  and  C_4
REMARK    2  A    between atoms: C_4  and  N_5
REMARK    3  A    between atoms: C_4  and  C_18
REMARK    4  A    between atoms: C_6  and  C_8
REMARK    5  A    between atoms: C_21  and  C_22
REMARK    6  A    between atoms: C_22  and  N_23
REMARK    7  A    between atoms: C_24  and  C_26
REMARK                            x       y       z     vdW  Elec       q    Type
REMARK                         _______ _______ _______ _____ _____    ______ ____
ROOT
ATOM      1  C   UNL     1      47.994   7.989  12.486  0.00  0.00    +0.000 C 
ENDROOT
BRANCH   1   2
ATOM      2  C   UNL     1      48.301   7.583  13.926  0.00  0.00    +0.000 A 
ATOM      3  C   UNL     1      48.847   8.517  14.819  0.00  0.00    +0.000 A 
ATOM      4  C   UNL     1      49.201   8.150  16.124  0.00  0.00    +0.000 A 
ATOM      5  C   UNL     1      49.023   6.834  16.571  0.00  0.00    +0.000 A 
ATOM      6  C   UNL     1      48.425   5.911  15.705  0.00  0.00    +0.000 A 
ATOM      7  C   UNL     1      48.068   6.280  14.399  0.00  0.00    +0.000 A 
BRANCH   5   8
ATOM      8  C   UNL     1      49.499   6.411  17.940  0.00  0.00    +0.000 C 
BRANCH   8   9
ATOM      9  N   UNL     1      50.000   5.056  17.957  0.00  0.00    +0.000 N 
ATOM     10  C   UNL     1      51.312   4.795  17.606  0.00  0.00    +0.000 C 
ATOM     11  O   UNL     1      52.108   5.662  17.269  0.00  0.00    +0.000 OA
ATOM     12  H   UNL     1      49.467   4.362  18.460  0.00  0.00    +0.000 HD
BRANCH  10  13
ATOM     13  C   UNL     1      51.740   3.380  17.680  0.00  0.00    +0.000 A 
ATOM     14  C   UNL     1      53.011   3.001  18.118  0.00  0.00    +0.000 A 
ATOM     15  C   UNL     1      53.343   1.649  18.170  0.00  0.00    +0.000 A 
ATOM     16  C   UNL     1      52.389   0.720  17.787  0.00  0.00    +0.000 A 
ATOM     17  N   UNL     1      51.146   1.049  17.374  0.00  0.00    +0.000 NA
ATOM     18  C   UNL     1      50.843   2.376  17.342  0.00  0.00    +0.000 A 
ENDBRANCH  10  13
ENDBRANCH   8   9
ENDBRANCH   5   8
ENDBRANCH   1   2
BRANCH   1  20
ATOM     19  N   UNL     1      50.272   7.569  11.613  0.00  0.00    +0.000 N 
ATOM     20  C   UNL     1      49.264   8.497  11.737  0.00  0.00    +0.000 C 
ATOM     21  O   UNL     1      49.453   9.647  11.350  0.00  0.00    +0.000 OA
ATOM     22  H   UNL     1      51.152   7.959  11.300  0.00  0.00    +0.000 HD
ATOM     23  H   UNL     1      50.359   6.902  12.381  0.00  0.00    +0.000 HD
ENDBRANCH   1  20
BRANCH   1  24
ATOM     24  N   UNL     1      47.378   6.884  11.758  0.00  0.00    +0.000 N 
ATOM     25  C   UNL     1      46.035   6.880  11.454  0.00  0.00    +0.000 C 
ATOM     26  O   UNL     1      45.312   7.848  11.676  0.00  0.00    +0.000 OA
ATOM     27  H   UNL     1      47.825   5.983  11.887  0.00  0.00    +0.000 HD
BRANCH  25  28
ATOM     28  C   UNL     1      45.524   5.674  10.790  0.00  0.00    +0.000 A 
ATOM     29  C   UNL     1      45.721   5.487   9.428  0.00  0.00    +0.000 A 
ATOM     30  S   UNL     1      45.058   4.029   8.835  0.00  0.00    +0.000 S 
ATOM     31  C   UNL     1      44.448   3.617  10.370  0.00  0.00    +0.000 A 
ATOM     32  N   UNL     1      43.720   2.483  10.557  0.00  0.00    +0.000 NA
ATOM     33  C   UNL     1      43.302   2.311  11.767  0.00  0.00    +0.000 A 
ATOM     34  N   UNL     1      43.558   3.163  12.810  0.00  0.00    +0.000 N 
ATOM     35  C   UNL     1      44.311   4.303  12.674  0.00  0.00    +0.000 A 
ATOM     36  O   UNL     1      44.568   5.022  13.634  0.00  0.00    +0.000 OA
ATOM     37  C   UNL     1      44.780   4.559  11.327  0.00  0.00    +0.000 A 
ATOM     38  H   UNL     1      43.218   2.960  13.738  0.00  0.00    +0.000 HD
ENDBRANCH  25  28
ENDBRANCH   1  24
TORSDOF 7
ENDMDL
MODEL 7
REMARK VINA RESULT:    -6.777      5.359      9.422
REMARK INTER + INTRA:         -11.045
REMARK INTER:                 -10.157
REMARK INTRA:                  -0.888
REMARK UNBOUND:                -1.494
REMARK  Name = 
REMARK  7 active torsions:
REMARK  status: ('A' for Active; 'I' for Inactive)
REMARK    1  A    between atoms: C_2  and  C_4
REMARK    2  A    between atoms: C_4  and  N_5
REMARK    3  A    between atoms: C_4  and  C_18
REMARK    4  A    between atoms: C_6  and  C_8
REMARK    5  A    between atoms: C_21  and  C_22
REMARK    6  A    between atoms: C_22  and  N_23
REMARK    7  A    between atoms: C_24  and  C_26
REMARK                            x       y       z     vdW  Elec       q    Type
REMARK                         _______ _______ _______ _____ _____    ______ ____
ROOT
ATOM      1  C   UNL     1      47.756   4.225  17.304  0.00  0.00    +0.000 C 
ENDROOT
BRANCH   1   2
ATOM      2  C   UNL     1      49.249   3.905  17.364  0.00  0.00    +0.000 A 
ATOM      3  C   UNL     1      49.682   2.571  17.381  0.00  0.00    +0.000 A 
ATOM      4  C   UNL     1      51.041   2.253  17.505  0.00  0.00    +0.000 A 
ATOM      5  C   UNL     1      52.005   3.263  17.622  0.00  0.00    +0.000 A 
ATOM      6  C   UNL     1      51.586   4.596  17.547  0.00  0.00    +0.000 A 
ATOM      7  C   UNL     1      50.225   4.914  17.420  0.00  0.00    +0.000 A 
BRANCH   5   8
ATOM      8  C   UNL     1      53.456   2.922  17.860  0.00  0.00    +0.000 C 
BRANCH   8   9
ATOM      9  N   UNL     1      53.793   1.592  17.406  0.00  0.00    +0.000 N 
ATOM     10  C   UNL     1      54.291   0.659  18.298  0.00  0.00    +0.000 C 
ATOM     11  O   UNL     1      54.474   0.888  19.486  0.00  0.00    +0.000 OA
ATOM     12  H   UNL     1      53.428   1.290  16.515  0.00  0.00    +0.000 HD
BRANCH  10  13
ATOM     13  C   UNL     1      54.581  -0.684  17.745  0.00  0.00    +0.000 A 
ATOM     14  C   UNL     1      54.914  -0.888  16.404  0.00  0.00    +0.000 A 
ATOM     15  C   UNL     1      55.184  -2.179  15.955  0.00  0.00    +0.000 A 
ATOM     16  C   UNL     1      55.118  -3.222  16.865  0.00  0.00    +0.000 A 
ATOM     17  N   UNL     1      54.815  -3.059  18.171  0.00  0.00    +0.000 NA
ATOM     18  C   UNL     1      54.565  -1.787  18.587  0.00  0.00    +0.000 A 
ENDBRANCH  10  13
ENDBRANCH   8   9
ENDBRANCH   5   8
ENDBRANCH   1   2
BRANCH   1  20
ATOM     19  N   UNL     1      47.987   4.666  19.728  0.00  0.00    +0.000 N 
ATOM     20  C   UNL     1      47.258   4.943  18.596  0.00  0.00    +0.000 C 
ATOM     21  O   UNL     1      46.246   5.633  18.684  0.00  0.00    +0.000 OA
ATOM     22  H   UNL     1      47.548   4.979  20.585  0.00  0.00    +0.000 HD
ATOM     23  H   UNL     1      48.387   3.729  19.782  0.00  0.00    +0.000 HD
ENDBRANCH   1  20
BRANCH   1  24
ATOM     24  N   UNL     1      47.446   5.023  16.122  0.00  0.00    +0.000 N 
ATOM     25  C   UNL     1      47.319   4.450  14.877  0.00  0.00    +0.000 C 
ATOM     26  O   UNL     1      47.348   3.233  14.712  0.00  0.00    +0.000 OA
ATOM     27  H   UNL     1      47.767   5.984  16.158  0.00  0.00    +0.000 HD
BRANCH  25  28
ATOM     28  C   UNL     1      47.086   5.373  13.759  0.00  0.00    +0.000 A 
ATOM     29  C   UNL     1      48.066   6.283  13.386  0.00  0.00    +0.000 A 
ATOM     30  S   UNL     1      47.616   7.270  12.067  0.00  0.00    +0.000 S 
ATOM     31  C   UNL     1      46.080   6.545  11.976  0.00  0.00    +0.000 A 
ATOM     32  N   UNL     1      45.156   6.964  11.070  0.00  0.00    +0.000 NA
ATOM     33  C   UNL     1      44.027   6.340  11.132  0.00  0.00    +0.000 A 
ATOM     34  N   UNL     1      43.742   5.325  12.007  0.00  0.00    +0.000 N 
ATOM     35  C   UNL     1      44.653   4.850  12.919  0.00  0.00    +0.000 A 
ATOM     36  O   UNL     1      44.390   3.907  13.658  0.00  0.00    +0.000 OA
ATOM     37  C   UNL     1      45.928   5.538  12.913  0.00  0.00    +0.000 A 
ATOM     38  H   UNL     1      42.845   4.864  11.990  0.00  0.00    +0.000 HD
ENDBRANCH  25  28
ENDBRANCH   1  24
TORSDOF 7
ENDMDL
MODEL 8
REMARK VINA RESULT:    -6.394      6.653     10.067
REMARK INTER + INTRA:         -10.505
REMARK INTER:                  -9.935
REMARK INTRA:                  -0.571
REMARK UNBOUND:                -1.494
REMARK  Name = 
REMARK  7 active torsions:
REMARK  status: ('A' for Active; 'I' for Inactive)
REMARK    1  A    between atoms: C_2  and  C_4
REMARK    2  A    between atoms: C_4  and  N_5
REMARK    3  A    between atoms: C_4  and  C_18
REMARK    4  A    between atoms: C_6  and  C_8
REMARK    5  A    between atoms: C_21  and  C_22
REMARK    6  A    between atoms: C_22  and  N_23
REMARK    7  A    between atoms: C_24  and  C_26
REMARK                            x       y       z     vdW  Elec       q    Type
REMARK                         _______ _______ _______ _____ _____    ______ ____
ROOT
ATOM      1  C   UNL     1      45.150   9.028  11.175  0.00  0.00    +0.000 C 
ENDROOT
BRANCH   1   2
ATOM      2  C   UNL     1      43.965   9.990  11.106  0.00  0.00    +0.000 A 
ATOM      3  C   UNL     1      42.703   9.523  10.706  0.00  0.00    +0.000 A 
ATOM      4  C   UNL     1      41.619  10.399  10.569  0.00  0.00    +0.000 A 
ATOM      5  C   UNL     1      41.766  11.768  10.822  0.00  0.00    +0.000 A 
ATOM      6  C   UNL     1      43.006  12.231  11.278  0.00  0.00    +0.000 A 
ATOM      7  C   UNL     1      44.092  11.354  11.418  0.00  0.00    +0.000 A 
BRANCH   5   8
ATOM      8  C   UNL     1      40.628  12.728  10.575  0.00  0.00    +0.000 C 
BRANCH   8   9
ATOM      9  N   UNL     1      39.351  12.058  10.478  0.00  0.00    +0.000 N 
ATOM     10  C   UNL     1      38.655  11.719  11.625  0.00  0.00    +0.000 C 
ATOM     11  O   UNL     1      39.060  11.953  12.757  0.00  0.00    +0.000 OA
ATOM     12  H   UNL     1      38.874  12.075   9.589  0.00  0.00    +0.000 HD
BRANCH  10  13
ATOM     13  C   UNL     1      37.345  11.060  11.424  0.00  0.00    +0.000 A 
ATOM     14  C   UNL     1      36.233  11.340  12.222  0.00  0.00    +0.000 A 
ATOM     15  C   UNL     1      35.028  10.688  11.970  0.00  0.00    +0.000 A 
ATOM     16  C   UNL     1      34.974   9.780  10.924  0.00  0.00    +0.000 A 
ATOM     17  N   UNL     1      36.025   9.497  10.125  0.00  0.00    +0.000 NA
ATOM     18  C   UNL     1      37.187  10.154  10.384  0.00  0.00    +0.000 A 
ENDBRANCH  10  13
ENDBRANCH   8   9
ENDBRANCH   5   8
ENDBRANCH   1   2
BRANCH   1  20
ATOM     19  N   UNL     1      45.747   8.794  13.565  0.00  0.00    +0.000 N 
ATOM     20  C   UNL     1      46.104   9.359  12.364  0.00  0.00    +0.000 C 
ATOM     21  O   UNL     1      47.057  10.132  12.321  0.00  0.00    +0.000 OA
ATOM     22  H   UNL     1      46.255   9.163  14.360  0.00  0.00    +0.000 HD
ATOM     23  H   UNL     1      44.745   8.683  13.725  0.00  0.00    +0.000 HD
ENDBRANCH   1  20
BRANCH   1  24
ATOM     24  N   UNL     1      44.689   7.646  11.257  0.00  0.00    +0.000 N 
ATOM     25  C   UNL     1      45.568   6.588  11.209  0.00  0.00    +0.000 C 
ATOM     26  O   UNL     1      46.786   6.750  11.207  0.00  0.00    +0.000 OA
ATOM     27  H   UNL     1      43.752   7.485  10.905  0.00  0.00    +0.000 HD
BRANCH  25  28
ATOM     28  C   UNL     1      44.971   5.247  11.220  0.00  0.00    +0.000 A 
ATOM     29  C   UNL     1      44.338   4.771  12.361  0.00  0.00    +0.000 A 
ATOM     30  S   UNL     1      43.705   3.195  12.186  0.00  0.00    +0.000 S 
ATOM     31  C   UNL     1      44.291   3.077  10.592  0.00  0.00    +0.000 A 
ATOM     32  N   UNL     1      44.126   1.939   9.864  0.00  0.00    +0.000 NA
ATOM     33  C   UNL     1      44.643   1.984   8.682  0.00  0.00    +0.000 A 
ATOM     34  N   UNL     1      45.297   3.067   8.155  0.00  0.00    +0.000 N 
ATOM     35  C   UNL     1      45.461   4.245   8.842  0.00  0.00    +0.000 A 
ATOM     36  O   UNL     1      46.006   5.217   8.330  0.00  0.00    +0.000 OA
ATOM     37  C   UNL     1      44.925   4.238  10.189  0.00  0.00    +0.000 A 
ATOM     38  H   UNL     1      45.660   3.044   7.214  0.00  0.00    +0.000 HD
ENDBRANCH  25  28
ENDBRANCH   1  24
TORSDOF 7
ENDMDL
MODEL 9
REMARK VINA RESULT:    -6.313      3.263      9.654
REMARK INTER + INTRA:         -10.391
REMARK INTER:                  -9.243
REMARK INTRA:                  -1.148
REMARK UNBOUND:                -1.494
REMARK  Name = 
REMARK  7 active torsions:
REMARK  status: ('A' for Active; 'I' for Inactive)
REMARK    1  A    between atoms: C_2  and  C_4
REMARK    2  A    between atoms: C_4  and  N_5
REMARK    3  A    between atoms: C_4  and  C_18
REMARK    4  A    between atoms: C_6  and  C_8
REMARK    5  A    between atoms: C_21  and  C_22
REMARK    6  A    between atoms: C_22  and  N_23
REMARK    7  A    between atoms: C_24  and  C_26
REMARK                            x       y       z     vdW  Elec       q    Type
REMARK                         _______ _______ _______ _____ _____    ______ ____
ROOT
ATOM      1  C   UNL     1      47.639   7.663  12.945  0.00  0.00    +0.000 C 
ENDROOT
BRANCH   1   2
ATOM      2  C   UNL     1      48.123   7.545  14.389  0.00  0.00    +0.000 A 
ATOM      3  C   UNL     1      48.427   8.701  15.125  0.00  0.00    +0.000 A 
ATOM      4  C   UNL     1      48.938   8.615  16.427  0.00  0.00    +0.000 A 
ATOM      5  C   UNL     1      49.164   7.370  17.028  0.00  0.00    +0.000 A 
ATOM      6  C   UNL     1      48.808   6.215  16.321  0.00  0.00    +0.000 A 
ATOM      7  C   UNL     1      48.294   6.301  15.018  0.00  0.00    +0.000 A 
BRANCH   5   8
ATOM      8  C   UNL     1      49.811   7.274  18.388  0.00  0.00    +0.000 C 
BRANCH   8   9
ATOM      9  N   UNL     1      50.870   6.291  18.428  0.00  0.00    +0.000 N 
ATOM     10  C   UNL     1      50.709   5.124  19.153  0.00  0.00    +0.000 C 
ATOM     11  O   UNL     1      49.698   4.855  19.789  0.00  0.00    +0.000 OA
ATOM     12  H   UNL     1      51.599   6.353  17.732  0.00  0.00    +0.000 HD
BRANCH  10  13
ATOM     13  C   UNL     1      51.838   4.167  19.112  0.00  0.00    +0.000 A 
ATOM     14  C   UNL     1      52.005   3.248  18.074  0.00  0.00    +0.000 A 
ATOM     15  C   UNL     1      53.097   2.382  18.096  0.00  0.00    +0.000 A 
ATOM     16  C   UNL     1      53.989   2.470  19.154  0.00  0.00    +0.000 A 
ATOM     17  N   UNL     1      53.866   3.357  20.165  0.00  0.00    +0.000 NA
ATOM     18  C   UNL     1      52.797   4.198  20.115  0.00  0.00    +0.000 A 
ENDBRANCH  10  13
ENDBRANCH   8   9
ENDBRANCH   5   8
ENDBRANCH   1   2
BRANCH   1  20
ATOM     19  N   UNL     1      49.806   7.008  11.946  0.00  0.00    +0.000 N 
ATOM     20  C   UNL     1      48.809   7.955  11.956  0.00  0.00    +0.000 C 
ATOM     21  O   UNL     1      48.939   8.975  11.285  0.00  0.00    +0.000 OA
ATOM     22  H   UNL     1      50.641   7.296  11.451  0.00  0.00    +0.000 HD
ATOM     23  H   UNL     1      49.988   6.544  12.837  0.00  0.00    +0.000 HD
ENDBRANCH   1  20
BRANCH   1  24
ATOM     24  N   UNL     1      46.916   6.461  12.543  0.00  0.00    +0.000 N 
ATOM     25  C   UNL     1      45.649   6.525  12.007  0.00  0.00    +0.000 C 
ATOM     26  O   UNL     1      45.108   7.594  11.736  0.00  0.00    +0.000 OA
ATOM     27  H   UNL     1      47.157   5.623  13.060  0.00  0.00    +0.000 HD
BRANCH  25  28
ATOM     28  C   UNL     1      45.001   5.239  11.720  0.00  0.00    +0.000 A 
ATOM     29  C   UNL     1      44.282   4.581  12.709  0.00  0.00    +0.000 A 
ATOM     30  S   UNL     1      43.600   3.103  12.190  0.00  0.00    +0.000 S 
ATOM     31  C   UNL     1      44.277   3.272  10.638  0.00  0.00    +0.000 A 
ATOM     32  N   UNL     1      44.113   2.310   9.690  0.00  0.00    +0.000 NA
ATOM     33  C   UNL     1      44.702   2.561   8.568  0.00  0.00    +0.000 A 
ATOM     34  N   UNL     1      45.428   3.693   8.303  0.00  0.00    +0.000 N 
ATOM     35  C   UNL     1      45.595   4.702   9.219  0.00  0.00    +0.000 A 
ATOM     36  O   UNL     1      46.207   5.728   8.939  0.00  0.00    +0.000 OA
ATOM     37  C   UNL     1      44.979   4.457  10.507  0.00  0.00    +0.000 A 
ATOM     38  H   UNL     1      45.847   3.837   7.396  0.00  0.00    +0.000 HD
ENDBRANCH  25  28
ENDBRANCH   1  24
TORSDOF 7
ENDMDL
