MODEL 1
REMARK VINA RESULT:    -7.412      0.000      0.000
REMARK INTER + INTRA:         -10.600
REMARK INTER:                 -10.012
REMARK INTRA:                  -0.588
REMARK UNBOUND:                -0.588
REMARK  Name = 
REMARK  7 active torsions:
REMARK  status: ('A' for Active; 'I' for Inactive)
REMARK    1  A    between atoms: C_1  and  S_2
REMARK    2  A    between atoms: S_2  and  C_5
REMARK    3  A    between atoms: C_7  and  C_8
REMARK    4  A    between atoms: C_13  and  O_14
REMARK    5  A    between atoms: O_14  and  C_15
REMARK    6  A    between atoms: C_15  and  C_16
REMARK    7  A    between atoms: C_20  and  C_21
REMARK                            x       y       z     vdW  Elec       q    Type
REMARK                         _______ _______ _______ _____ _____    ______ ____
ROOT
ATOM      1  C   UNL     1      48.008   5.004  17.171  0.00  0.00    +0.000 A 
ATOM      2  C   UNL     1      47.619   5.191  18.523  0.00  0.00    +0.000 A 
ATOM      3  C   UNL     1      47.787   6.416  19.166  0.00  0.00    +0.000 A 
ATOM      4  C   UNL     1      48.323   7.477  18.459  0.00  0.00    +0.000 A 
ATOM      5  C   UNL     1      48.683   7.303  17.128  0.00  0.00    +0.000 A 
ATOM      6  C   UNL     1      48.553   6.066  16.444  0.00  0.00    +0.000 A 
ENDROOT
BRANCH   3   7
ATOM      7  C   UNL     1      47.451   6.647  20.588  0.00  0.00    +0.000 C 
ATOM      8  N   UNL     1      47.098   5.559  21.330  0.00  0.00    +0.000 N 
ATOM      9  O   UNL     1      47.450   7.773  21.069  0.00  0.00    +0.000 OA
ATOM     10  H   UNL     1      46.852   4.671  20.915  0.00  0.00    +0.000 HD
ATOM     11  H   UNL     1      46.770   5.751  22.267  0.00  0.00    +0.000 HD
ENDBRANCH   3   7
BRANCH   1  13
ATOM     12  C   UNL     1      49.114   2.300  16.757  0.00  0.00    +0.000 C 
ATOM     13  S   UNL     1      47.723   3.349  16.606  0.00  0.00    +0.000 S 
ATOM     14  O   UNL     1      47.442   3.480  15.182  0.00  0.00    +0.000 OA
ATOM     15  O   UNL     1      46.693   2.806  17.485  0.00  0.00    +0.000 OA
ENDBRANCH   1  13
BRANCH   6  16
ATOM     16  O   UNL     1      48.964   5.926  15.127  0.00  0.00    +0.000 OA
BRANCH  16  17
ATOM     17  C   UNL     1      48.757   7.138  14.374  0.00  0.00    +0.000 C 
BRANCH  17  18
ATOM     18  C   UNL     1      47.548   7.320  13.501  0.00  0.00    +0.000 A 
ATOM     19  C   UNL     1      46.997   8.538  13.140  0.00  0.00    +0.000 A 
ATOM     20  C   UNL     1      45.861   8.551  12.331  0.00  0.00    +0.000 A 
ATOM     21  C   UNL     1      45.313   7.358  11.833  0.00  0.00    +0.000 A 
ATOM     22  C   UNL     1      45.912   6.124  12.095  0.00  0.00    +0.000 A 
ATOM     23  C   UNL     1      46.978   6.126  13.001  0.00  0.00    +0.000 A 
BRANCH  22  24
ATOM     24  C   UNL     1      45.539   4.811  11.402  0.00  0.00    +0.000 C 
ATOM     25  C   UNL     1      44.418   5.031  10.356  0.00  0.00    +0.000 C 
ATOM     26  C   UNL     1      43.091   5.365  11.042  0.00  0.00    +0.000 C 
ATOM     27  N   UNL     1      42.657   4.287  11.924  0.00  0.00    +0.000 NA
ATOM     28  C   UNL     1      43.669   3.932  12.915  0.00  0.00    +0.000 C 
ATOM     29  C   UNL     1      45.056   3.665  12.311  0.00  0.00    +0.000 C 
ATOM     30  H   UNL     1      42.435   3.471  11.361  0.00  0.00    +0.000 HD
ENDBRANCH  22  24
ENDBRANCH  17  18
ENDBRANCH  16  17
ENDBRANCH   6  16
TORSDOF 6
ENDMDL
MODEL 2
REMARK VINA RESULT:    -7.286      2.617      4.147
REMARK INTER + INTRA:         -10.430
REMARK INTER:                 -10.125
REMARK INTRA:                  -0.305
REMARK UNBOUND:                -0.588
REMARK  Name = 
REMARK  7 active torsions:
REMARK  status: ('A' for Active; 'I' for Inactive)
REMARK    1  A    between atoms: C_1  and  S_2
REMARK    2  A    between atoms: S_2  and  C_5
REMARK    3  A    between atoms: C_7  and  C_8
REMARK    4  A    between atoms: C_13  and  O_14
REMARK    5  A    between atoms: O_14  and  C_15
REMARK    6  A    between atoms: C_15  and  C_16
REMARK    7  A    between atoms: C_20  and  C_21
REMARK                            x       y       z     vdW  Elec       q    Type
REMARK                         _______ _______ _______ _____ _____    ______ ____
ROOT
ATOM      1  C   UNL     1      49.407   4.540  17.378  0.00  0.00    +0.000 A 
ATOM      2  C   UNL     1      50.571   3.799  17.712  0.00  0.00    +0.000 A 
ATOM      3  C   UNL     1      50.714   2.463  17.343  0.00  0.00    +0.000 A 
ATOM      4  C   UNL     1      49.707   1.856  16.615  0.00  0.00    +0.000 A 
ATOM      5  C   UNL     1      48.576   2.586  16.266  0.00  0.00    +0.000 A 
ATOM      6  C   UNL     1      48.380   3.940  16.644  0.00  0.00    +0.000 A 
ENDROOT
BRANCH   3   7
ATOM      7  C   UNL     1      51.880   1.631  17.715  0.00  0.00    +0.000 C 
ATOM      8  N   UNL     1      51.635   0.340  18.076  0.00  0.00    +0.000 N 
ATOM      9  O   UNL     1      53.012   2.096  17.740  0.00  0.00    +0.000 OA
ATOM     10  H   UNL     1      50.710   0.002  18.303  0.00  0.00    +0.000 HD
ATOM     11  H   UNL     1      52.428  -0.178  18.429  0.00  0.00    +0.000 HD
ENDBRANCH   3   7
BRANCH   1  13
ATOM     12  C   UNL     1      48.103   6.620  19.015  0.00  0.00    +0.000 C 
ATOM     13  S   UNL     1      49.461   6.200  17.995  0.00  0.00    +0.000 S 
ATOM     14  O   UNL     1      49.379   7.045  16.809  0.00  0.00    +0.000 OA
ATOM     15  O   UNL     1      50.651   6.270  18.835  0.00  0.00    +0.000 OA
ENDBRANCH   1  13
BRANCH   6  16
ATOM     16  O   UNL     1      47.217   4.618  16.310  0.00  0.00    +0.000 OA
BRANCH  16  17
ATOM     17  C   UNL     1      46.654   4.130  15.076  0.00  0.00    +0.000 C 
BRANCH  17  18
ATOM     18  C   UNL     1      46.601   4.990  13.846  0.00  0.00    +0.000 A 
ATOM     19  C   UNL     1      47.634   5.787  13.382  0.00  0.00    +0.000 A 
ATOM     20  C   UNL     1      47.436   6.544  12.228  0.00  0.00    +0.000 A 
ATOM     21  C   UNL     1      46.235   6.461  11.505  0.00  0.00    +0.000 A 
ATOM     22  C   UNL     1      45.219   5.586  11.892  0.00  0.00    +0.000 A 
ATOM     23  C   UNL     1      45.393   4.926  13.113  0.00  0.00    +0.000 A 
BRANCH  22  24
ATOM     24  C   UNL     1      43.992   5.246  11.042  0.00  0.00    +0.000 C 
ATOM     25  C   UNL     1      42.966   4.413  11.850  0.00  0.00    +0.000 C 
ATOM     26  C   UNL     1      43.506   3.008  12.128  0.00  0.00    +0.000 C 
ATOM     27  N   UNL     1      43.776   2.282  10.890  0.00  0.00    +0.000 NA
ATOM     28  C   UNL     1      44.679   3.009  10.002  0.00  0.00    +0.000 C 
ATOM     29  C   UNL     1      44.251   4.461   9.742  0.00  0.00    +0.000 C 
ATOM     30  H   UNL     1      42.897   2.110  10.412  0.00  0.00    +0.000 HD
ENDBRANCH  22  24
ENDBRANCH  17  18
ENDBRANCH  16  17
ENDBRANCH   6  16
TORSDOF 6
ENDMDL
MODEL 3
REMARK VINA RESULT:    -7.133      4.497      8.325
REMARK INTER + INTRA:         -10.223
REMARK INTER:                  -9.534
REMARK INTRA:                  -0.689
REMARK UNBOUND:                -0.588
REMARK  Name = 
REMARK  7 active torsions:
REMARK  status: ('A' for Active; 'I' for Inactive)
REMARK    1  A    between atoms: C_1  and  S_2
REMARK    2  A    between atoms: S_2  and  C_5
REMARK    3  A    between atoms: C_7  and  C_8
REMARK    4  A    between atoms: C_13  and  O_14
REMARK    5  A    between atoms: O_14  and  C_15
REMARK    6  A    between atoms: C_15  and  C_16
REMARK    7  A    between atoms: C_20  and  C_21
REMARK                            x       y       z     vdW  Elec       q    Type
REMARK                         _______ _______ _______ _____ _____    ______ ____
ROOT
ATOM      1  C   UNL     1      44.769   3.580  10.488  0.00  0.00    +0.000 A 
ATOM      2  C   UNL     1      45.278   2.445   9.805  0.00  0.00    +0.000 A 
ATOM      3  C   UNL     1      45.963   2.570   8.597  0.00  0.00    +0.000 A 
ATOM      4  C   UNL     1      46.168   3.831   8.069  0.00  0.00    +0.000 A 
ATOM      5  C   UNL     1      45.691   4.946   8.749  0.00  0.00    +0.000 A 
ATOM      6  C   UNL     1      44.967   4.861   9.967  0.00  0.00    +0.000 A 
ENDROOT
BRANCH   3   7
ATOM      7  C   UNL     1      46.462   1.416   7.817  0.00  0.00    +0.000 C 
ATOM      8  N   UNL     1      47.239   1.687   6.731  0.00  0.00    +0.000 N 
ATOM      9  O   UNL     1      46.156   0.268   8.110  0.00  0.00    +0.000 OA
ATOM     10  H   UNL     1      47.305   2.609   6.322  0.00  0.00    +0.000 HD
ATOM     11  H   UNL     1      47.480   0.894   6.150  0.00  0.00    +0.000 HD
ENDBRANCH   3   7
BRANCH   1  13
ATOM     12  C   UNL     1      43.009   4.466  12.685  0.00  0.00    +0.000 C 
ATOM     13  S   UNL     1      43.910   3.145  11.977  0.00  0.00    +0.000 S 
ATOM     14  O   UNL     1      44.959   2.790  12.926  0.00  0.00    +0.000 OA
ATOM     15  O   UNL     1      42.934   2.135  11.587  0.00  0.00    +0.000 OA
ENDBRANCH   1  13
BRANCH   6  16
ATOM     16  O   UNL     1      44.473   5.997  10.590  0.00  0.00    +0.000 OA
BRANCH  16  17
ATOM     17  C   UNL     1      45.516   6.958  10.847  0.00  0.00    +0.000 C 
BRANCH  17  18
ATOM     18  C   UNL     1      46.525   6.744  11.939  0.00  0.00    +0.000 A 
ATOM     19  C   UNL     1      46.370   5.887  13.015  0.00  0.00    +0.000 A 
ATOM     20  C   UNL     1      47.390   5.802  13.963  0.00  0.00    +0.000 A 
ATOM     21  C   UNL     1      48.586   6.520  13.805  0.00  0.00    +0.000 A 
ATOM     22  C   UNL     1      48.810   7.309  12.675  0.00  0.00    +0.000 A 
ATOM     23  C   UNL     1      47.731   7.471  11.801  0.00  0.00    +0.000 A 
BRANCH  22  24
ATOM     24  C   UNL     1      50.160   7.924  12.298  0.00  0.00    +0.000 C 
ATOM     25  C   UNL     1      50.959   8.337  13.559  0.00  0.00    +0.000 C 
ATOM     26  C   UNL     1      50.299   9.530  14.254  0.00  0.00    +0.000 C 
ATOM     27  N   UNL     1      50.239  10.695  13.378  0.00  0.00    +0.000 NA
ATOM     28  C   UNL     1      49.572  10.409  12.111  0.00  0.00    +0.000 C 
ATOM     29  C   UNL     1      50.121   9.169  11.391  0.00  0.00    +0.000 C 
ATOM     30  H   UNL     1      51.185  11.018  13.196  0.00  0.00    +0.000 HD
ENDBRANCH  22  24
ENDBRANCH  17  18
ENDBRANCH  16  17
ENDBRANCH   6  16
TORSDOF 6
ENDMDL
MODEL 4
REMARK VINA RESULT:    -6.747      1.848      2.535
REMARK INTER + INTRA:          -9.701
REMARK INTER:                  -9.379
REMARK INTRA:                  -0.322
REMARK UNBOUND:                -0.588
REMARK  Name = 
REMARK  7 active torsions:
REMARK  status: ('A' for Active; 'I' for Inactive)
REMARK    1  A    between atoms: C_1  and  S_2
REMARK    2  A    between atoms: S_2  and  C_5
REMARK    3  A    between atoms: C_7  and  C_8
REMARK    4  A    between atoms: C_13  and  O_14
REMARK    5  A    between atoms: O_14  and  C_15
REMARK    6  A    between atoms: C_15  and  C_16
REMARK    7  A    between atoms: C_20  and  C_21
REMARK                            x       y       z     vdW  Elec       q    Type
REMARK                         _______ _______ _______ _____ _____    ______ ____
ROOT
ATOM      1  C   UNL     1      49.348   4.701  17.952  0.00  0.00    +0.000 A 
ATOM      2  C   UNL     1      49.228   5.138  19.296  0.00  0.00    +0.000 A 
ATOM      3  C   UNL     1      48.007   5.561  19.818  0.00  0.00    +0.000 A 
ATOM      4  C   UNL     1      46.885   5.530  19.010  0.00  0.00    +0.000 A 
ATOM      5  C   UNL     1      46.996   5.079  17.699  0.00  0.00    +0.000 A 
ATOM      6  C   UNL     1      48.225   4.666  17.122  0.00  0.00    +0.000 A 
ENDROOT
BRANCH   3   7
ATOM      7  C   UNL     1      47.840   6.079  21.194  0.00  0.00    +0.000 C 
ATOM      8  N   UNL     1      47.015   5.384  22.026  0.00  0.00    +0.000 N 
ATOM      9  O   UNL     1      48.386   7.113  21.556  0.00  0.00    +0.000 OA
ATOM     10  H   UNL     1      46.367   4.683  21.694  0.00  0.00    +0.000 HD
ATOM     11  H   UNL     1      46.830   5.812  22.924  0.00  0.00    +0.000 HD
ENDBRANCH   3   7
BRANCH   1  13
ATOM     12  C   UNL     1      52.093   4.183  18.902  0.00  0.00    +0.000 C 
ATOM     13  S   UNL     1      51.011   4.254  17.531  0.00  0.00    +0.000 S 
ATOM     14  O   UNL     1      51.485   5.333  16.671  0.00  0.00    +0.000 OA
ATOM     15  O   UNL     1      50.930   2.902  16.992  0.00  0.00    +0.000 OA
ENDBRANCH   1  13
BRANCH   6  16
ATOM     16  O   UNL     1      48.297   4.263  15.797  0.00  0.00    +0.000 OA
BRANCH  16  17
ATOM     17  C   UNL     1      47.016   4.358  15.142  0.00  0.00    +0.000 C 
BRANCH  17  18
ATOM     18  C   UNL     1      46.836   5.163  13.888  0.00  0.00    +0.000 A 
ATOM     19  C   UNL     1      47.834   5.875  13.243  0.00  0.00    +0.000 A 
ATOM     20  C   UNL     1      47.516   6.590  12.090  0.00  0.00    +0.000 A 
ATOM     21  C   UNL     1      46.222   6.547  11.545  0.00  0.00    +0.000 A 
ATOM     22  C   UNL     1      45.225   5.754  12.115  0.00  0.00    +0.000 A 
ATOM     23  C   UNL     1      45.535   5.139  13.333  0.00  0.00    +0.000 A 
BRANCH  22  24
ATOM     24  C   UNL     1      43.874   5.450  11.462  0.00  0.00    +0.000 C 
ATOM     25  C   UNL     1      42.993   4.571  12.384  0.00  0.00    +0.000 C 
ATOM     26  C   UNL     1      43.567   3.157  12.498  0.00  0.00    +0.000 C 
ATOM     27  N   UNL     1      43.628   2.497  11.197  0.00  0.00    +0.000 NA
ATOM     28  C   UNL     1      44.374   3.273  10.211  0.00  0.00    +0.000 C 
ATOM     29  C   UNL     1      43.914   4.734  10.099  0.00  0.00    +0.000 C 
ATOM     30  H   UNL     1      42.681   2.345  10.862  0.00  0.00    +0.000 HD
ENDBRANCH  22  24
ENDBRANCH  17  18
ENDBRANCH  16  17
ENDBRANCH   6  16
TORSDOF 6
ENDMDL
MODEL 5
REMARK VINA RESULT:    -6.606      2.204      2.793
REMARK INTER + INTRA:          -9.512
REMARK INTER:                  -8.852
REMARK INTRA:                  -0.659
REMARK UNBOUND:                -0.588
REMARK  Name = 
REMARK  7 active torsions:
REMARK  status: ('A' for Active; 'I' for Inactive)
REMARK    1  A    between atoms: C_1  and  S_2
REMARK    2  A    between atoms: S_2  and  C_5
REMARK    3  A    between atoms: C_7  and  C_8
REMARK    4  A    between atoms: C_13  and  O_14
REMARK    5  A    between atoms: O_14  and  C_15
REMARK    6  A    between atoms: C_15  and  C_16
REMARK    7  A    between atoms: C_20  and  C_21
REMARK                            x       y       z     vdW  Elec       q    Type
REMARK                         _______ _______ _______ _____ _____    ______ ____
ROOT
ATOM      1  C   UNL     1      49.037   4.853  17.075  0.00  0.00    +0.000 A 
ATOM      2  C   UNL     1      50.002   4.016  17.695  0.00  0.00    +0.000 A 
ATOM      3  C   UNL     1      51.352   4.359  17.721  0.00  0.00    +0.000 A 
ATOM      4  C   UNL     1      51.753   5.553  17.150  0.00  0.00    +0.000 A 
ATOM      5  C   UNL     1      50.807   6.385  16.563  0.00  0.00    +0.000 A 
ATOM      6  C   UNL     1      49.427   6.062  16.492  0.00  0.00    +0.000 A 
ENDROOT
BRANCH   3   7
ATOM      7  C   UNL     1      52.404   3.496  18.303  0.00  0.00    +0.000 C 
ATOM      8  N   UNL     1      52.595   3.567  19.650  0.00  0.00    +0.000 N 
ATOM      9  O   UNL     1      53.103   2.780  17.597  0.00  0.00    +0.000 OA
ATOM     10  H   UNL     1      52.217   4.313  20.217  0.00  0.00    +0.000 HD
ATOM     11  H   UNL     1      53.387   3.053  20.012  0.00  0.00    +0.000 HD
ENDBRANCH   3   7
BRANCH   1  13
ATOM     12  C   UNL     1      47.339   2.555  17.813  0.00  0.00    +0.000 C 
ATOM     13  S   UNL     1      47.403   4.171  17.149  0.00  0.00    +0.000 S 
ATOM     14  O   UNL     1      46.971   4.077  15.759  0.00  0.00    +0.000 OA
ATOM     15  O   UNL     1      46.660   5.029  18.065  0.00  0.00    +0.000 OA
ENDBRANCH   1  13
BRANCH   6  16
ATOM     16  O   UNL     1      48.523   6.903  15.861  0.00  0.00    +0.000 OA
BRANCH  16  17
ATOM     17  C   UNL     1      48.717   6.914  14.432  0.00  0.00    +0.000 C 
BRANCH  17  18
ATOM     18  C   UNL     1      47.575   7.166  13.490  0.00  0.00    +0.000 A 
ATOM     19  C   UNL     1      47.133   8.414  13.083  0.00  0.00    +0.000 A 
ATOM     20  C   UNL     1      46.048   8.494  12.211  0.00  0.00    +0.000 A 
ATOM     21  C   UNL     1      45.445   7.334  11.697  0.00  0.00    +0.000 A 
ATOM     22  C   UNL     1      45.938   6.066  12.009  0.00  0.00    +0.000 A 
ATOM     23  C   UNL     1      46.949   6.007  12.973  0.00  0.00    +0.000 A 
BRANCH  22  24
ATOM     24  C   UNL     1      45.510   4.771  11.313  0.00  0.00    +0.000 C 
ATOM     25  C   UNL     1      44.353   5.029  10.315  0.00  0.00    +0.000 C 
ATOM     26  C   UNL     1      43.062   5.379  11.060  0.00  0.00    +0.000 C 
ATOM     27  N   UNL     1      42.642   4.295  11.943  0.00  0.00    +0.000 NA
ATOM     28  C   UNL     1      43.685   3.906  12.887  0.00  0.00    +0.000 C 
ATOM     29  C   UNL     1      45.042   3.621  12.224  0.00  0.00    +0.000 C 
ATOM     30  H   UNL     1      42.381   3.494  11.377  0.00  0.00    +0.000 HD
ENDBRANCH  22  24
ENDBRANCH  17  18
ENDBRANCH  16  17
ENDBRANCH   6  16
TORSDOF 6
ENDMDL
MODEL 6
REMARK VINA RESULT:    -6.436      1.762      2.163
REMARK INTER + INTRA:          -9.281
REMARK INTER:                  -8.595
REMARK INTRA:                  -0.686
REMARK UNBOUND:                -0.588
REMARK  Name = 
REMARK  7 active torsions:
REMARK  status: ('A' for Active; 'I' for Inactive)
REMARK    1  A    between atoms: C_1  and  S_2
REMARK    2  A    between atoms: S_2  and  C_5
REMARK    3  A    between atoms: C_7  and  C_8
REMARK    4  A    between atoms: C_13  and  O_14
REMARK    5  A    between atoms: O_14  and  C_15
REMARK    6  A    between atoms: C_15  and  C_16
REMARK    7  A    between atoms: C_20  and  C_21
REMARK                            x       y       z     vdW  Elec       q    Type
REMARK                         _______ _______ _______ _____ _____    ______ ____
ROOT
ATOM      1  C   UNL     1      48.714   6.315  17.095  0.00  0.00    +0.000 A 
ATOM      2  C   UNL     1      48.379   7.052  18.260  0.00  0.00    +0.000 A 
ATOM      3  C   UNL     1      48.288   8.443  18.240  0.00  0.00    +0.000 A 
ATOM      4  C   UNL     1      48.508   9.113  17.050  0.00  0.00    +0.000 A 
ATOM      5  C   UNL     1      48.813   8.391  15.902  0.00  0.00    +0.000 A 
ATOM      6  C   UNL     1      48.941   6.977  15.886  0.00  0.00    +0.000 A 
ENDROOT
BRANCH   3   7
ATOM      7  C   UNL     1      47.999   9.261  19.438  0.00  0.00    +0.000 C 
ATOM      8  N   UNL     1      49.060   9.833  20.074  0.00  0.00    +0.000 N 
ATOM      9  O   UNL     1      46.859   9.385  19.865  0.00  0.00    +0.000 OA
ATOM     10  H   UNL     1      50.016   9.554  19.900  0.00  0.00    +0.000 HD
ATOM     11  H   UNL     1      48.854  10.297  20.949  0.00  0.00    +0.000 HD
ENDBRANCH   3   7
BRANCH   1  13
ATOM     12  C   UNL     1      47.711   3.626  16.406  0.00  0.00    +0.000 C 
ATOM     13  S   UNL     1      48.799   4.570  17.398  0.00  0.00    +0.000 S 
ATOM     14  O   UNL     1      48.363   4.407  18.780  0.00  0.00    +0.000 OA
ATOM     15  O   UNL     1      50.152   4.172  17.029  0.00  0.00    +0.000 OA
ENDBRANCH   1  13
BRANCH   6  16
ATOM     16  O   UNL     1      49.288   6.300  14.726  0.00  0.00    +0.000 OA
BRANCH  16  17
ATOM     17  C   UNL     1      48.933   7.050  13.547  0.00  0.00    +0.000 C 
BRANCH  17  18
ATOM     18  C   UNL     1      47.523   7.077  13.032  0.00  0.00    +0.000 A 
ATOM     19  C   UNL     1      46.994   8.046  12.197  0.00  0.00    +0.000 A 
ATOM     20  C   UNL     1      45.657   7.947  11.810  0.00  0.00    +0.000 A 
ATOM     21  C   UNL     1      44.869   6.854  12.204  0.00  0.00    +0.000 A 
ATOM     22  C   UNL     1      45.407   5.810  12.958  0.00  0.00    +0.000 A 
ATOM     23  C   UNL     1      46.712   5.988  13.430  0.00  0.00    +0.000 A 
BRANCH  22  24
ATOM     24  C   UNL     1      44.706   4.475  13.222  0.00  0.00    +0.000 C 
ATOM     25  C   UNL     1      45.289   3.352  12.329  0.00  0.00    +0.000 C 
ATOM     26  C   UNL     1      44.914   3.574  10.862  0.00  0.00    +0.000 C 
ATOM     27  N   UNL     1      43.467   3.571  10.673  0.00  0.00    +0.000 NA
ATOM     28  C   UNL     1      42.790   4.544  11.525  0.00  0.00    +0.000 C 
ATOM     29  C   UNL     1      43.181   4.444  13.007  0.00  0.00    +0.000 C 
ATOM     30  H   UNL     1      43.111   2.641  10.873  0.00  0.00    +0.000 HD
ENDBRANCH  22  24
ENDBRANCH  17  18
ENDBRANCH  16  17
ENDBRANCH   6  16
TORSDOF 6
ENDMDL
MODEL 7
REMARK VINA RESULT:    -6.377      2.630      8.060
REMARK INTER + INTRA:          -9.201
REMARK INTER:                  -8.639
REMARK INTRA:                  -0.562
REMARK UNBOUND:                -0.588
REMARK  Name = 
REMARK  7 active torsions:
REMARK  status: ('A' for Active; 'I' for Inactive)
REMARK    1  A    between atoms: C_1  and  S_2
REMARK    2  A    between atoms: S_2  and  C_5
REMARK    3  A    between atoms: C_7  and  C_8
REMARK    4  A    between atoms: C_13  and  O_14
REMARK    5  A    between atoms: O_14  and  C_15
REMARK    6  A    between atoms: C_15  and  C_16
REMARK    7  A    between atoms: C_20  and  C_21
REMARK                            x       y       z     vdW  Elec       q    Type
REMARK                         _______ _______ _______ _____ _____    ______ ____
ROOT
ATOM      1  C   UNL     1      46.499   6.907  12.740  0.00  0.00    +0.000 A 
ATOM      2  C   UNL     1      45.252   6.865  12.065  0.00  0.00    +0.000 A 
ATOM      3  C   UNL     1      44.512   5.687  11.976  0.00  0.00    +0.000 A 
ATOM      4  C   UNL     1      44.998   4.542  12.580  0.00  0.00    +0.000 A 
ATOM      5  C   UNL     1      46.208   4.587  13.263  0.00  0.00    +0.000 A 
ATOM      6  C   UNL     1      47.004   5.758  13.355  0.00  0.00    +0.000 A 
ENDROOT
BRANCH   3   7
ATOM      7  C   UNL     1      43.236   5.575  11.235  0.00  0.00    +0.000 C 
ATOM      8  N   UNL     1      42.138   6.157  11.794  0.00  0.00    +0.000 N 
ATOM      9  O   UNL     1      43.161   4.951  10.185  0.00  0.00    +0.000 OA
ATOM     10  H   UNL     1      42.110   6.459  12.758  0.00  0.00    +0.000 HD
ATOM     11  H   UNL     1      41.257   5.979  11.328  0.00  0.00    +0.000 HD
ENDBRANCH   3   7
BRANCH   1  13
ATOM     12  C   UNL     1      48.825   8.526  11.919  0.00  0.00    +0.000 C 
ATOM     13  S   UNL     1      47.249   8.511  12.677  0.00  0.00    +0.000 S 
ATOM     14  O   UNL     1      47.445   8.891  14.071  0.00  0.00    +0.000 OA
ATOM     15  O   UNL     1      46.374   9.322  11.837  0.00  0.00    +0.000 OA
ENDBRANCH   1  13
BRANCH   6  16
ATOM     16  O   UNL     1      48.226   5.748  14.011  0.00  0.00    +0.000 OA
BRANCH  16  17
ATOM     17  C   UNL     1      48.084   6.091  15.404  0.00  0.00    +0.000 C 
BRANCH  17  18
ATOM     18  C   UNL     1      48.109   5.038  16.475  0.00  0.00    +0.000 A 
ATOM     19  C   UNL     1      47.686   3.729  16.321  0.00  0.00    +0.000 A 
ATOM     20  C   UNL     1      47.756   2.864  17.413  0.00  0.00    +0.000 A 
ATOM     21  C   UNL     1      48.304   3.285  18.635  0.00  0.00    +0.000 A 
ATOM     22  C   UNL     1      48.834   4.567  18.785  0.00  0.00    +0.000 A 
ATOM     23  C   UNL     1      48.647   5.450  17.717  0.00  0.00    +0.000 A 
BRANCH  22  24
ATOM     24  C   UNL     1      49.666   5.030  19.984  0.00  0.00    +0.000 C 
ATOM     25  C   UNL     1      48.955   4.695  21.319  0.00  0.00    +0.000 C 
ATOM     26  C   UNL     1      47.705   5.558  21.502  0.00  0.00    +0.000 C 
ATOM     27  N   UNL     1      48.035   6.980  21.531  0.00  0.00    +0.000 NA
ATOM     28  C   UNL     1      48.781   7.405  20.350  0.00  0.00    +0.000 C 
ATOM     29  C   UNL     1      50.007   6.531  20.047  0.00  0.00    +0.000 C 
ATOM     30  H   UNL     1      48.582   7.172  22.364  0.00  0.00    +0.000 HD
ENDBRANCH  22  24
ENDBRANCH  17  18
ENDBRANCH  16  17
ENDBRANCH   6  16
TORSDOF 6
ENDMDL
MODEL 8
REMARK VINA RESULT:    -6.294      2.682      7.823
REMARK INTER + INTRA:          -9.090
REMARK INTER:                  -8.434
REMARK INTRA:                  -0.656
REMARK UNBOUND:                -0.588
REMARK  Name = 
REMARK  7 active torsions:
REMARK  status: ('A' for Active; 'I' for Inactive)
REMARK    1  A    between atoms: C_1  and  S_2
REMARK    2  A    between atoms: S_2  and  C_5
REMARK    3  A    between atoms: C_7  and  C_8
REMARK    4  A    between atoms: C_13  and  O_14
REMARK    5  A    between atoms: O_14  and  C_15
REMARK    6  A    between atoms: C_15  and  C_16
REMARK    7  A    between atoms: C_20  and  C_21
REMARK                            x       y       z     vdW  Elec       q    Type
REMARK                         _______ _______ _______ _____ _____    ______ ____
ROOT
ATOM      1  C   UNL     1      45.256   5.897  12.329  0.00  0.00    +0.000 A 
ATOM      2  C   UNL     1      44.549   6.943  11.681  0.00  0.00    +0.000 A 
ATOM      3  C   UNL     1      44.981   8.267  11.753  0.00  0.00    +0.000 A 
ATOM      4  C   UNL     1      46.138   8.559  12.451  0.00  0.00    +0.000 A 
ATOM      5  C   UNL     1      46.845   7.532  13.066  0.00  0.00    +0.000 A 
ATOM      6  C   UNL     1      46.426   6.177  13.040  0.00  0.00    +0.000 A 
ENDROOT
BRANCH   3   7
ATOM      7  C   UNL     1      44.249   9.400  11.145  0.00  0.00    +0.000 C 
ATOM      8  N   UNL     1      42.975   9.164  10.720  0.00  0.00    +0.000 N 
ATOM      9  O   UNL     1      44.779  10.492  10.992  0.00  0.00    +0.000 OA
ATOM     10  H   UNL     1      42.601   8.233  10.605  0.00  0.00    +0.000 HD
ATOM     11  H   UNL     1      42.532   9.918  10.212  0.00  0.00    +0.000 HD
ENDBRANCH   3   7
BRANCH   1  13
ATOM     12  C   UNL     1      42.850   4.413  11.483  0.00  0.00    +0.000 C 
ATOM     13  S   UNL     1      44.479   4.319  12.113  0.00  0.00    +0.000 S 
ATOM     14  O   UNL     1      44.383   3.760  13.456  0.00  0.00    +0.000 OA
ATOM     15  O   UNL     1      45.276   3.623  11.109  0.00  0.00    +0.000 OA
ENDBRANCH   1  13
BRANCH   6  16
ATOM     16  O   UNL     1      47.141   5.190  13.703  0.00  0.00    +0.000 OA
BRANCH  16  17
ATOM     17  C   UNL     1      47.774   5.702  14.893  0.00  0.00    +0.000 C 
BRANCH  17  18
ATOM     18  C   UNL     1      47.910   4.861  16.130  0.00  0.00    +0.000 A 
ATOM     19  C   UNL     1      47.575   3.521  16.227  0.00  0.00    +0.000 A 
ATOM     20  C   UNL     1      47.744   2.870  17.449  0.00  0.00    +0.000 A 
ATOM     21  C   UNL     1      48.301   3.536  18.553  0.00  0.00    +0.000 A 
ATOM     22  C   UNL     1      48.744   4.856  18.451  0.00  0.00    +0.000 A 
ATOM     23  C   UNL     1      48.459   5.521  17.254  0.00  0.00    +0.000 A 
BRANCH  22  24
ATOM     24  C   UNL     1      49.581   5.577  19.511  0.00  0.00    +0.000 C 
ATOM     25  C   UNL     1      49.192   5.117  20.938  0.00  0.00    +0.000 C 
ATOM     26  C   UNL     1      47.793   5.615  21.307  0.00  0.00    +0.000 C 
ATOM     27  N   UNL     1      47.719   7.073  21.286  0.00  0.00    +0.000 NA
ATOM     28  C   UNL     1      48.140   7.635  20.006  0.00  0.00    +0.000 C 
ATOM     29  C   UNL     1      49.502   7.116  19.521  0.00  0.00    +0.000 C 
ATOM     30  H   UNL     1      48.307   7.441  22.027  0.00  0.00    +0.000 HD
ENDBRANCH  22  24
ENDBRANCH  17  18
ENDBRANCH  16  17
ENDBRANCH   6  16
TORSDOF 6
ENDMDL
MODEL 9
REMARK VINA RESULT:    -6.133      2.533      8.242
REMARK INTER + INTRA:          -8.872
REMARK INTER:                  -8.457
REMARK INTRA:                  -0.415
REMARK UNBOUND:                -0.588
REMARK  Name = 
REMARK  7 active torsions:
REMARK  status: ('A' for Active; 'I' for Inactive)
REMARK    1  A    between atoms: C_1  and  S_2
REMARK    2  A    between atoms: S_2  and  C_5
REMARK    3  A    between atoms: C_7  and  C_8
REMARK    4  A    between atoms: C_13  and  O_14
REMARK    5  A    between atoms: O_14  and  C_15
REMARK    6  A    between atoms: C_15  and  C_16
REMARK    7  A    between atoms: C_20  and  C_21
REMARK                            x       y       z     vdW  Elec       q    Type
REMARK                         _______ _______ _______ _____ _____    ______ ____
ROOT
ATOM      1  C   UNL     1      46.614   6.033  12.670  0.00  0.00    +0.000 A 
ATOM      2  C   UNL     1      45.749   5.810  11.567  0.00  0.00    +0.000 A 
ATOM      3  C   UNL     1      45.174   4.562  11.333  0.00  0.00    +0.000 A 
ATOM      4  C   UNL     1      45.437   3.527  12.211  0.00  0.00    +0.000 A 
ATOM      5  C   UNL     1      46.264   3.749  13.306  0.00  0.00    +0.000 A 
ATOM      6  C   UNL     1      46.890   4.996  13.565  0.00  0.00    +0.000 A 
ENDROOT
BRANCH   3   7
ATOM      7  C   UNL     1      44.314   4.263  10.167  0.00  0.00    +0.000 C 
ATOM      8  N   UNL     1      44.755   4.675   8.945  0.00  0.00    +0.000 N 
ATOM      9  O   UNL     1      43.232   3.707  10.299  0.00  0.00    +0.000 OA
ATOM     10  H   UNL     1      45.505   5.342   8.830  0.00  0.00    +0.000 HD
ATOM     11  H   UNL     1      44.105   4.558   8.178  0.00  0.00    +0.000 HD
ENDBRANCH   3   7
BRANCH   1  13
ATOM     12  C   UNL     1      46.033   8.910  12.365  0.00  0.00    +0.000 C 
ATOM     13  S   UNL     1      47.237   7.691  12.718  0.00  0.00    +0.000 S 
ATOM     14  O   UNL     1      48.229   7.752  11.651  0.00  0.00    +0.000 OA
ATOM     15  O   UNL     1      47.663   7.911  14.096  0.00  0.00    +0.000 OA
ENDBRANCH   1  13
BRANCH   6  16
ATOM     16  O   UNL     1      47.742   5.162  14.647  0.00  0.00    +0.000 OA
BRANCH  16  17
ATOM     17  C   UNL     1      47.391   4.288  15.739  0.00  0.00    +0.000 C 
BRANCH  17  18
ATOM     18  C   UNL     1      48.081   4.382  17.069  0.00  0.00    +0.000 A 
ATOM     19  C   UNL     1      49.258   3.736  17.408  0.00  0.00    +0.000 A 
ATOM     20  C   UNL     1      49.776   3.908  18.692  0.00  0.00    +0.000 A 
ATOM     21  C   UNL     1      49.158   4.770  19.613  0.00  0.00    +0.000 A 
ATOM     22  C   UNL     1      48.031   5.514  19.260  0.00  0.00    +0.000 A 
ATOM     23  C   UNL     1      47.464   5.237  18.012  0.00  0.00    +0.000 A 
BRANCH  22  24
ATOM     24  C   UNL     1      47.441   6.650  20.100  0.00  0.00    +0.000 C 
ATOM     25  C   UNL     1      47.389   7.972  19.293  0.00  0.00    +0.000 C 
ATOM     26  C   UNL     1      48.799   8.515  19.049  0.00  0.00    +0.000 C 
ATOM     27  N   UNL     1      49.489   8.798  20.303  0.00  0.00    +0.000 NA
ATOM     28  C   UNL     1      49.536   7.640  21.190  0.00  0.00    +0.000 C 
ATOM     29  C   UNL     1      48.166   6.982  21.418  0.00  0.00    +0.000 C 
ATOM     30  H   UNL     1      49.016   9.565  20.772  0.00  0.00    +0.000 HD
ENDBRANCH  22  24
ENDBRANCH  17  18
ENDBRANCH  16  17
ENDBRANCH   6  16
TORSDOF 6
ENDMDL
