MODEL 1
REMARK VINA RESULT:    -8.036      0.000      0.000
REMARK INTER + INTRA:         -11.176
REMARK INTER:                 -10.385
REMARK INTRA:                  -0.791
REMARK UNBOUND:                -0.791
REMARK  Name = 
REMARK  5 active torsions:
REMARK  status: ('A' for Active; 'I' for Inactive)
REMARK    1  A    between atoms: C_2  and  C_4
REMARK    2  A    between atoms: C_8  and  C_9
REMARK    3  A    between atoms: C_9  and  S_10
REMARK    4  A    between atoms: S_10  and  C_11
REMARK    5  A    between atoms: C_15  and  N_16
REMARK                            x       y       z     vdW  Elec       q    Type
REMARK                         _______ _______ _______ _____ _____    ______ ____
ROOT
ATOM      1  S   UNL     1      43.420   4.582  11.500  0.00  0.00    +0.000 S 
ENDROOT
BRANCH   1   2
ATOM      2  C   UNL     1      44.904   4.738  12.477  0.00  0.00    +0.000 A 
ATOM      3  C   UNL     1      45.549   3.656  13.061  0.00  0.00    +0.000 A 
ATOM      4  N   UNL     1      46.723   3.739  13.725  0.00  0.00    +0.000 NA
ATOM      5  C   UNL     1      47.297   4.970  13.781  0.00  0.00    +0.000 A 
ATOM      6  C   UNL     1      46.764   6.143  13.239  0.00  0.00    +0.000 A 
ATOM      7  C   UNL     1      45.533   5.986  12.582  0.00  0.00    +0.000 A 
BRANCH   6   8
ATOM      8  N   UNL     1      47.397   7.370  13.301  0.00  0.00    +0.000 N 
ATOM      9  C   UNL     1      46.653   8.631  13.337  0.00  0.00    +0.000 C 
ATOM     10  C   UNL     1      46.921   9.444  12.073  0.00  0.00    +0.000 C 
ATOM     11  C   UNL     1      48.421   9.616  11.832  0.00  0.00    +0.000 C 
ATOM     12  C   UNL     1      49.130   8.263  11.827  0.00  0.00    +0.000 C 
ATOM     13  C   UNL     1      48.844   7.478  13.111  0.00  0.00    +0.000 C 
ENDBRANCH   6   8
ENDBRANCH   1   2
BRANCH   1  14
ATOM     14  C   UNL     1      43.700   2.994  10.649  0.00  0.00    +0.000 C 
BRANCH  14  19
ATOM     15  C   UNL     1      46.301   2.263   7.950  0.00  0.00    +0.000 A 
ATOM     16  C   UNL     1      46.484   3.555   7.479  0.00  0.00    +0.000 A 
ATOM     17  N   UNL     1      45.808   4.630   7.952  0.00  0.00    +0.000 NA
ATOM     18  C   UNL     1      44.930   4.406   8.956  0.00  0.00    +0.000 A 
ATOM     19  C   UNL     1      44.674   3.153   9.509  0.00  0.00    +0.000 A 
ATOM     20  C   UNL     1      45.387   2.062   8.990  0.00  0.00    +0.000 A 
BRANCH  15  22
ATOM     21  N   UNL     1      46.725  -0.111   7.646  0.00  0.00    +0.000 N 
ATOM     22  C   UNL     1      47.095   1.171   7.345  0.00  0.00    +0.000 C 
ATOM     23  O   UNL     1      48.016   1.399   6.575  0.00  0.00    +0.000 OA
ATOM     24  H   UNL     1      47.208  -0.843   7.137  0.00  0.00    +0.000 HD
ATOM     25  H   UNL     1      45.830  -0.340   8.053  0.00  0.00    +0.000 HD
ENDBRANCH  15  22
ENDBRANCH  14  19
ENDBRANCH   1  14
TORSDOF 5
ENDMDL
MODEL 2
REMARK VINA RESULT:    -7.429      2.855      7.006
REMARK INTER + INTRA:         -10.391
REMARK INTER:                  -9.669
REMARK INTRA:                  -0.722
REMARK UNBOUND:                -0.791
REMARK  Name = 
REMARK  5 active torsions:
REMARK  status: ('A' for Active; 'I' for Inactive)
REMARK    1  A    between atoms: C_2  and  C_4
REMARK    2  A    between atoms: C_8  and  C_9
REMARK    3  A    between atoms: C_9  and  S_10
REMARK    4  A    between atoms: S_10  and  C_11
REMARK    5  A    between atoms: C_15  and  N_16
REMARK                            x       y       z     vdW  Elec       q    Type
REMARK                         _______ _______ _______ _____ _____    ______ ____
ROOT
ATOM      1  S   UNL     1      45.376   6.842  12.605  0.00  0.00    +0.000 S 
ENDROOT
BRANCH   1   2
ATOM      2  C   UNL     1      44.819   5.207  12.162  0.00  0.00    +0.000 A 
ATOM      3  C   UNL     1      44.074   4.400  13.010  0.00  0.00    +0.000 A 
ATOM      4  N   UNL     1      43.563   3.198  12.661  0.00  0.00    +0.000 NA
ATOM      5  C   UNL     1      43.788   2.796  11.382  0.00  0.00    +0.000 A 
ATOM      6  C   UNL     1      44.517   3.504  10.422  0.00  0.00    +0.000 A 
ATOM      7  C   UNL     1      45.035   4.734  10.860  0.00  0.00    +0.000 A 
BRANCH   6   8
ATOM      8  N   UNL     1      44.699   3.065   9.125  0.00  0.00    +0.000 N 
ATOM      9  C   UNL     1      44.834   1.645   8.793  0.00  0.00    +0.000 C 
ATOM     10  C   UNL     1      46.230   1.354   8.250  0.00  0.00    +0.000 C 
ATOM     11  C   UNL     1      46.585   2.295   7.099  0.00  0.00    +0.000 C 
ATOM     12  C   UNL     1      46.403   3.755   7.513  0.00  0.00    +0.000 C 
ATOM     13  C   UNL     1      44.991   4.012   8.047  0.00  0.00    +0.000 C 
ENDBRANCH   6   8
ENDBRANCH   1   2
BRANCH   1  14
ATOM     14  C   UNL     1      47.187   6.634  12.596  0.00  0.00    +0.000 C 
BRANCH  14  19
ATOM     15  C   UNL     1      47.968   4.622  15.746  0.00  0.00    +0.000 A 
ATOM     16  C   UNL     1      48.595   5.618  16.481  0.00  0.00    +0.000 A 
ATOM     17  N   UNL     1      48.805   6.875  16.019  0.00  0.00    +0.000 NA
ATOM     18  C   UNL     1      48.346   7.153  14.777  0.00  0.00    +0.000 A 
ATOM     19  C   UNL     1      47.696   6.233  13.956  0.00  0.00    +0.000 A 
ATOM     20  C   UNL     1      47.503   4.940  14.467  0.00  0.00    +0.000 A 
BRANCH  15  22
ATOM     21  N   UNL     1      46.870   3.164  17.352  0.00  0.00    +0.000 N 
ATOM     22  C   UNL     1      47.806   3.287  16.361  0.00  0.00    +0.000 C 
ATOM     23  O   UNL     1      48.447   2.320  15.975  0.00  0.00    +0.000 OA
ATOM     24  H   UNL     1      46.694   2.223  17.682  0.00  0.00    +0.000 HD
ATOM     25  H   UNL     1      46.152   3.856  17.513  0.00  0.00    +0.000 HD
ENDBRANCH  15  22
ENDBRANCH  14  19
ENDBRANCH   1  14
TORSDOF 5
ENDMDL
MODEL 3
REMARK VINA RESULT:    -7.198      1.295      2.093
REMARK INTER + INTRA:         -10.093
REMARK INTER:                  -9.412
REMARK INTRA:                  -0.681
REMARK UNBOUND:                -0.791
REMARK  Name = 
REMARK  5 active torsions:
REMARK  status: ('A' for Active; 'I' for Inactive)
REMARK    1  A    between atoms: C_2  and  C_4
REMARK    2  A    between atoms: C_8  and  C_9
REMARK    3  A    between atoms: C_9  and  S_10
REMARK    4  A    between atoms: S_10  and  C_11
REMARK    5  A    between atoms: C_15  and  N_16
REMARK                            x       y       z     vdW  Elec       q    Type
REMARK                         _______ _______ _______ _____ _____    ______ ____
ROOT
ATOM      1  S   UNL     1      43.645   4.603  10.657  0.00  0.00    +0.000 S 
ENDROOT
BRANCH   1   2
ATOM      2  C   UNL     1      44.949   4.834  11.852  0.00  0.00    +0.000 A 
ATOM      3  C   UNL     1      45.226   3.924  12.862  0.00  0.00    +0.000 A 
ATOM      4  N   UNL     1      46.266   4.033  13.720  0.00  0.00    +0.000 NA
ATOM      5  C   UNL     1      47.090   5.098  13.534  0.00  0.00    +0.000 A 
ATOM      6  C   UNL     1      46.934   6.088  12.559  0.00  0.00    +0.000 A 
ATOM      7  C   UNL     1      45.822   5.922  11.719  0.00  0.00    +0.000 A 
BRANCH   6   8
ATOM      8  N   UNL     1      47.813   7.142  12.394  0.00  0.00    +0.000 N 
ATOM      9  C   UNL     1      49.258   6.989  12.573  0.00  0.00    +0.000 C 
ATOM     10  C   UNL     1      49.738   7.808  13.769  0.00  0.00    +0.000 C 
ATOM     11  C   UNL     1      49.278   9.262  13.664  0.00  0.00    +0.000 C 
ATOM     12  C   UNL     1      47.766   9.341  13.460  0.00  0.00    +0.000 C 
ATOM     13  C   UNL     1      47.321   8.513  12.251  0.00  0.00    +0.000 C 
ENDBRANCH   6   8
ENDBRANCH   1   2
BRANCH   1  14
ATOM     14  C   UNL     1      44.529   4.875   9.085  0.00  0.00    +0.000 C 
BRANCH  14  19
ATOM     15  C   UNL     1      46.679   2.411   7.112  0.00  0.00    +0.000 A 
ATOM     16  C   UNL     1      46.367   1.254   7.812  0.00  0.00    +0.000 A 
ATOM     17  N   UNL     1      45.541   1.224   8.886  0.00  0.00    +0.000 NA
ATOM     18  C   UNL     1      44.982   2.398   9.259  0.00  0.00    +0.000 A 
ATOM     19  C   UNL     1      45.217   3.616   8.624  0.00  0.00    +0.000 A 
ATOM     20  C   UNL     1      46.084   3.610   7.521  0.00  0.00    +0.000 A 
BRANCH  15  22
ATOM     21  N   UNL     1      47.444   3.227   4.954  0.00  0.00    +0.000 N 
ATOM     22  C   UNL     1      47.602   2.314   5.961  0.00  0.00    +0.000 C 
ATOM     23  O   UNL     1      48.497   1.484   5.925  0.00  0.00    +0.000 OA
ATOM     24  H   UNL     1      48.151   3.216   4.230  0.00  0.00    +0.000 HD
ATOM     25  H   UNL     1      46.903   4.073   5.065  0.00  0.00    +0.000 HD
ENDBRANCH  15  22
ENDBRANCH  14  19
ENDBRANCH   1  14
TORSDOF 5
ENDMDL
MODEL 4
REMARK VINA RESULT:    -6.755      2.813      6.732
REMARK INTER + INTRA:          -9.520
REMARK INTER:                  -8.865
REMARK INTRA:                  -0.655
REMARK UNBOUND:                -0.791
REMARK  Name = 
REMARK  5 active torsions:
REMARK  status: ('A' for Active; 'I' for Inactive)
REMARK    1  A    between atoms: C_2  and  C_4
REMARK    2  A    between atoms: C_8  and  C_9
REMARK    3  A    between atoms: C_9  and  S_10
REMARK    4  A    between atoms: S_10  and  C_11
REMARK    5  A    between atoms: C_15  and  N_16
REMARK                            x       y       z     vdW  Elec       q    Type
REMARK                         _______ _______ _______ _____ _____    ______ ____
ROOT
ATOM      1  S   UNL     1      45.297   6.554  12.767  0.00  0.00    +0.000 S 
ENDROOT
BRANCH   1   2
ATOM      2  C   UNL     1      44.765   4.942  12.221  0.00  0.00    +0.000 A 
ATOM      3  C   UNL     1      43.998   4.088  13.001  0.00  0.00    +0.000 A 
ATOM      4  N   UNL     1      43.507   2.903  12.574  0.00  0.00    +0.000 NA
ATOM      5  C   UNL     1      43.773   2.571  11.283  0.00  0.00    +0.000 A 
ATOM      6  C   UNL     1      44.527   3.333  10.385  0.00  0.00    +0.000 A 
ATOM      7  C   UNL     1      45.024   4.539  10.904  0.00  0.00    +0.000 A 
BRANCH   6   8
ATOM      8  N   UNL     1      44.753   2.964   9.073  0.00  0.00    +0.000 N 
ATOM      9  C   UNL     1      44.980   1.571   8.682  0.00  0.00    +0.000 C 
ATOM     10  C   UNL     1      46.399   1.391   8.147  0.00  0.00    +0.000 C 
ATOM     11  C   UNL     1      46.707   2.403   7.044  0.00  0.00    +0.000 C 
ATOM     12  C   UNL     1      46.429   3.829   7.518  0.00  0.00    +0.000 C 
ATOM     13  C   UNL     1      44.997   3.973   8.041  0.00  0.00    +0.000 C 
ENDBRANCH   6   8
ENDBRANCH   1   2
BRANCH   1  14
ATOM     14  C   UNL     1      47.071   6.274  13.080  0.00  0.00    +0.000 C 
BRANCH  14  19
ATOM     15  C   UNL     1      50.002   8.274  11.667  0.00  0.00    +0.000 A 
ATOM     16  C   UNL     1      49.371   9.502  11.530  0.00  0.00    +0.000 A 
ATOM     17  N   UNL     1      48.067   9.716  11.833  0.00  0.00    +0.000 NA
ATOM     18  C   UNL     1      47.373   8.661  12.319  0.00  0.00    +0.000 A 
ATOM     19  C   UNL     1      47.908   7.388  12.505  0.00  0.00    +0.000 A 
ATOM     20  C   UNL     1      49.258   7.203  12.173  0.00  0.00    +0.000 A 
BRANCH  15  22
ATOM     21  N   UNL     1      51.824   7.023  10.654  0.00  0.00    +0.000 N 
ATOM     22  C   UNL     1      51.429   8.167  11.293  0.00  0.00    +0.000 C 
ATOM     23  O   UNL     1      52.217   9.076  11.506  0.00  0.00    +0.000 OA
ATOM     24  H   UNL     1      52.776   7.015  10.309  0.00  0.00    +0.000 HD
ATOM     25  H   UNL     1      51.169   6.380  10.234  0.00  0.00    +0.000 HD
ENDBRANCH  15  22
ENDBRANCH  14  19
ENDBRANCH   1  14
TORSDOF 5
ENDMDL
MODEL 5
REMARK VINA RESULT:    -6.676      2.236      3.836
REMARK INTER + INTRA:          -9.418
REMARK INTER:                  -8.829
REMARK INTRA:                  -0.590
REMARK UNBOUND:                -0.791
REMARK  Name = 
REMARK  5 active torsions:
REMARK  status: ('A' for Active; 'I' for Inactive)
REMARK    1  A    between atoms: C_2  and  C_4
REMARK    2  A    between atoms: C_8  and  C_9
REMARK    3  A    between atoms: C_9  and  S_10
REMARK    4  A    between atoms: S_10  and  C_11
REMARK    5  A    between atoms: C_15  and  N_16
REMARK                            x       y       z     vdW  Elec       q    Type
REMARK                         _______ _______ _______ _____ _____    ______ ____
ROOT
ATOM      1  S   UNL     1      44.548   4.931  11.759  0.00  0.00    +0.000 S 
ENDROOT
BRANCH   1   2
ATOM      2  C   UNL     1      46.041   5.440  12.593  0.00  0.00    +0.000 A 
ATOM      3  C   UNL     1      46.914   6.388  12.080  0.00  0.00    +0.000 A 
ATOM      4  N   UNL     1      48.000   6.856  12.736  0.00  0.00    +0.000 NA
ATOM      5  C   UNL     1      48.203   6.367  13.988  0.00  0.00    +0.000 A 
ATOM      6  C   UNL     1      47.407   5.413  14.629  0.00  0.00    +0.000 A 
ATOM      7  C   UNL     1      46.310   4.958  13.881  0.00  0.00    +0.000 A 
BRANCH   6   8
ATOM      8  N   UNL     1      47.641   4.963  15.914  0.00  0.00    +0.000 N 
ATOM      9  C   UNL     1      48.599   5.617  16.809  0.00  0.00    +0.000 C 
ATOM     10  C   UNL     1      49.767   4.683  17.114  0.00  0.00    +0.000 C 
ATOM     11  C   UNL     1      49.275   3.326  17.619  0.00  0.00    +0.000 C 
ATOM     12  C   UNL     1      48.267   2.716  16.646  0.00  0.00    +0.000 C 
ATOM     13  C   UNL     1      47.108   3.677  16.367  0.00  0.00    +0.000 C 
ENDBRANCH   6   8
ENDBRANCH   1   2
BRANCH   1  14
ATOM     14  C   UNL     1      44.964   5.265  10.015  0.00  0.00    +0.000 C 
BRANCH  14  19
ATOM     15  C   UNL     1      46.440   2.751   7.548  0.00  0.00    +0.000 A 
ATOM     16  C   UNL     1      45.729   1.627   7.943  0.00  0.00    +0.000 A 
ATOM     17  N   UNL     1      44.835   1.622   8.963  0.00  0.00    +0.000 NA
ATOM     18  C   UNL     1      44.627   2.799   9.596  0.00  0.00    +0.000 A 
ATOM     19  C   UNL     1      45.278   3.989   9.278  0.00  0.00    +0.000 A 
ATOM     20  C   UNL     1      46.202   3.953   8.222  0.00  0.00    +0.000 A 
BRANCH  15  22
ATOM     21  N   UNL     1      47.093   3.297   5.271  0.00  0.00    +0.000 N 
ATOM     22  C   UNL     1      47.393   2.625   6.425  0.00  0.00    +0.000 C 
ATOM     23  O   UNL     1      48.428   1.984   6.530  0.00  0.00    +0.000 OA
ATOM     24  H   UNL     1      47.808   3.290   4.555  0.00  0.00    +0.000 HD
ATOM     25  H   UNL     1      46.402   4.032   5.233  0.00  0.00    +0.000 HD
ENDBRANCH  15  22
ENDBRANCH  14  19
ENDBRANCH   1  14
TORSDOF 5
ENDMDL
MODEL 6
REMARK VINA RESULT:    -6.472      3.393      4.682
REMARK INTER + INTRA:          -9.154
REMARK INTER:                  -8.467
REMARK INTRA:                  -0.687
REMARK UNBOUND:                -0.791
REMARK  Name = 
REMARK  5 active torsions:
REMARK  status: ('A' for Active; 'I' for Inactive)
REMARK    1  A    between atoms: C_2  and  C_4
REMARK    2  A    between atoms: C_8  and  C_9
REMARK    3  A    between atoms: C_9  and  S_10
REMARK    4  A    between atoms: S_10  and  C_11
REMARK    5  A    between atoms: C_15  and  N_16
REMARK                            x       y       z     vdW  Elec       q    Type
REMARK                         _______ _______ _______ _____ _____    ______ ____
ROOT
ATOM      1  S   UNL     1      47.533   6.819  12.817  0.00  0.00    +0.000 S 
ENDROOT
BRANCH   1   2
ATOM      2  C   UNL     1      47.506   5.534  14.053  0.00  0.00    +0.000 A 
ATOM      3  C   UNL     1      47.262   4.200  13.758  0.00  0.00    +0.000 A 
ATOM      4  N   UNL     1      47.328   3.197  14.663  0.00  0.00    +0.000 NA
ATOM      5  C   UNL     1      47.689   3.549  15.925  0.00  0.00    +0.000 A 
ATOM      6  C   UNL     1      47.965   4.848  16.362  0.00  0.00    +0.000 A 
ATOM      7  C   UNL     1      47.855   5.840  15.374  0.00  0.00    +0.000 A 
BRANCH   6   8
ATOM      8  N   UNL     1      48.350   5.154  17.653  0.00  0.00    +0.000 N 
ATOM      9  C   UNL     1      47.379   5.445  18.710  0.00  0.00    +0.000 C 
ATOM     10  C   UNL     1      47.510   6.895  19.169  0.00  0.00    +0.000 C 
ATOM     11  C   UNL     1      48.953   7.229  19.545  0.00  0.00    +0.000 C 
ATOM     12  C   UNL     1      49.908   6.881  18.405  0.00  0.00    +0.000 C 
ATOM     13  C   UNL     1      49.754   5.420  17.973  0.00  0.00    +0.000 C 
ENDBRANCH   6   8
ENDBRANCH   1   2
BRANCH   1  14
ATOM     14  C   UNL     1      45.761   7.218  12.656  0.00  0.00    +0.000 C 
BRANCH  14  19
ATOM     15  C   UNL     1      44.748   4.731   9.941  0.00  0.00    +0.000 A 
ATOM     16  C   UNL     1      43.587   4.245  10.524  0.00  0.00    +0.000 A 
ATOM     17  N   UNL     1      43.131   4.643  11.737  0.00  0.00    +0.000 NA
ATOM     18  C   UNL     1      43.855   5.586  12.382  0.00  0.00    +0.000 A 
ATOM     19  C   UNL     1      45.030   6.149  11.886  0.00  0.00    +0.000 A 
ATOM     20  C   UNL     1      45.475   5.707  10.631  0.00  0.00    +0.000 A 
BRANCH  15  22
ATOM     21  N   UNL     1      44.380   3.207   8.083  0.00  0.00    +0.000 N 
ATOM     22  C   UNL     1      45.144   4.211   8.614  0.00  0.00    +0.000 C 
ATOM     23  O   UNL     1      46.086   4.683   7.995  0.00  0.00    +0.000 OA
ATOM     24  H   UNL     1      44.598   2.942   7.130  0.00  0.00    +0.000 HD
ATOM     25  H   UNL     1      43.461   2.978   8.433  0.00  0.00    +0.000 HD
ENDBRANCH  15  22
ENDBRANCH  14  19
ENDBRANCH   1  14
TORSDOF 5
ENDMDL
MODEL 7
REMARK VINA RESULT:    -6.449      2.853      5.146
REMARK INTER + INTRA:          -9.124
REMARK INTER:                  -8.390
REMARK INTRA:                  -0.734
REMARK UNBOUND:                -0.791
REMARK  Name = 
REMARK  5 active torsions:
REMARK  status: ('A' for Active; 'I' for Inactive)
REMARK    1  A    between atoms: C_2  and  C_4
REMARK    2  A    between atoms: C_8  and  C_9
REMARK    3  A    between atoms: C_9  and  S_10
REMARK    4  A    between atoms: S_10  and  C_11
REMARK    5  A    between atoms: C_15  and  N_16
REMARK                            x       y       z     vdW  Elec       q    Type
REMARK                         _______ _______ _______ _____ _____    ______ ____
ROOT
ATOM      1  S   UNL     1      47.085   7.090  11.958  0.00  0.00    +0.000 S 
ENDROOT
BRANCH   1   2
ATOM      2  C   UNL     1      48.239   7.043  13.317  0.00  0.00    +0.000 A 
ATOM      3  C   UNL     1      49.319   7.908  13.429  0.00  0.00    +0.000 A 
ATOM      4  N   UNL     1      50.150   7.952  14.495  0.00  0.00    +0.000 NA
ATOM      5  C   UNL     1      49.864   7.103  15.517  0.00  0.00    +0.000 A 
ATOM      6  C   UNL     1      48.812   6.183  15.541  0.00  0.00    +0.000 A 
ATOM      7  C   UNL     1      48.003   6.178  14.393  0.00  0.00    +0.000 A 
BRANCH   6   8
ATOM      8  N   UNL     1      48.546   5.355  16.615  0.00  0.00    +0.000 N 
ATOM      9  C   UNL     1      49.448   5.252  17.764  0.00  0.00    +0.000 C 
ATOM     10  C   UNL     1      50.052   3.852  17.845  0.00  0.00    +0.000 C 
ATOM     11  C   UNL     1      48.965   2.778  17.814  0.00  0.00    +0.000 C 
ATOM     12  C   UNL     1      48.053   2.960  16.601  0.00  0.00    +0.000 C 
ATOM     13  C   UNL     1      47.462   4.372  16.554  0.00  0.00    +0.000 C 
ENDBRANCH   6   8
ENDBRANCH   1   2
BRANCH   1  14
ATOM     14  C   UNL     1      45.505   6.747  12.800  0.00  0.00    +0.000 C 
BRANCH  14  19
ATOM     15  C   UNL     1      44.480   3.769  10.638  0.00  0.00    +0.000 A 
ATOM     16  C   UNL     1      43.748   3.066  11.584  0.00  0.00    +0.000 A 
ATOM     17  N   UNL     1      43.591   3.471  12.868  0.00  0.00    +0.000 NA
ATOM     18  C   UNL     1      44.170   4.645  13.212  0.00  0.00    +0.000 A 
ATOM     19  C   UNL     1      44.919   5.436  12.343  0.00  0.00    +0.000 A 
ATOM     20  C   UNL     1      45.066   4.980  11.024  0.00  0.00    +0.000 A 
BRANCH  15  22
ATOM     21  N   UNL     1      44.275   4.054   8.233  0.00  0.00    +0.000 N 
ATOM     22  C   UNL     1      44.584   3.217   9.271  0.00  0.00    +0.000 C 
ATOM     23  O   UNL     1      44.970   2.075   9.068  0.00  0.00    +0.000 OA
ATOM     24  H   UNL     1      44.458   3.694   7.304  0.00  0.00    +0.000 HD
ATOM     25  H   UNL     1      44.211   5.055   8.341  0.00  0.00    +0.000 HD
ENDBRANCH  15  22
ENDBRANCH  14  19
ENDBRANCH   1  14
TORSDOF 5
ENDMDL
MODEL 8
REMARK VINA RESULT:    -6.286      3.996      7.816
REMARK INTER + INTRA:          -8.915
REMARK INTER:                  -8.135
REMARK INTRA:                  -0.780
REMARK UNBOUND:                -0.791
REMARK  Name = 
REMARK  5 active torsions:
REMARK  status: ('A' for Active; 'I' for Inactive)
REMARK    1  A    between atoms: C_2  and  C_4
REMARK    2  A    between atoms: C_8  and  C_9
REMARK    3  A    between atoms: C_9  and  S_10
REMARK    4  A    between atoms: S_10  and  C_11
REMARK    5  A    between atoms: C_15  and  N_16
REMARK                            x       y       z     vdW  Elec       q    Type
REMARK                         _______ _______ _______ _____ _____    ______ ____
ROOT
ATOM      1  S   UNL     1      49.485   7.750  13.962  0.00  0.00    +0.000 S 
ENDROOT
BRANCH   1   2
ATOM      2  C   UNL     1      47.792   7.566  13.434  0.00  0.00    +0.000 A 
ATOM      3  C   UNL     1      46.886   8.617  13.400  0.00  0.00    +0.000 A 
ATOM      4  N   UNL     1      45.627   8.521  12.917  0.00  0.00    +0.000 NA
ATOM      5  C   UNL     1      45.267   7.311  12.413  0.00  0.00    +0.000 A 
ATOM      6  C   UNL     1      46.073   6.169  12.381  0.00  0.00    +0.000 A 
ATOM      7  C   UNL     1      47.359   6.337  12.918  0.00  0.00    +0.000 A 
BRANCH   6   8
ATOM      8  N   UNL     1      45.670   4.965  11.837  0.00  0.00    +0.000 N 
ATOM      9  C   UNL     1      45.217   4.847  10.449  0.00  0.00    +0.000 C 
ATOM     10  C   UNL     1      43.741   4.461  10.399  0.00  0.00    +0.000 C 
ATOM     11  C   UNL     1      43.464   3.220  11.248  0.00  0.00    +0.000 C 
ATOM     12  C   UNL     1      43.980   3.409  12.674  0.00  0.00    +0.000 C 
ATOM     13  C   UNL     1      45.463   3.790  12.686  0.00  0.00    +0.000 C 
ENDBRANCH   6   8
ENDBRANCH   1   2
BRANCH   1  14
ATOM     14  C   UNL     1      49.305   7.809  15.776  0.00  0.00    +0.000 C 
BRANCH  14  19
ATOM     15  C   UNL     1      48.861   4.387  17.410  0.00  0.00    +0.000 A 
ATOM     16  C   UNL     1      50.199   4.061  17.581  0.00  0.00    +0.000 A 
ATOM     17  N   UNL     1      51.224   4.853  17.180  0.00  0.00    +0.000 NA
ATOM     18  C   UNL     1      50.894   6.033  16.607  0.00  0.00    +0.000 A 
ATOM     19  C   UNL     1      49.586   6.464  16.394  0.00  0.00    +0.000 A 
ATOM     20  C   UNL     1      48.552   5.614  16.816  0.00  0.00    +0.000 A 
BRANCH  15  22
ATOM     21  N   UNL     1      48.027   2.870  19.117  0.00  0.00    +0.000 N 
ATOM     22  C   UNL     1      47.836   3.433  17.885  0.00  0.00    +0.000 C 
ATOM     23  O   UNL     1      46.835   3.187  17.227  0.00  0.00    +0.000 OA
ATOM     24  H   UNL     1      47.263   2.308  19.471  0.00  0.00    +0.000 HD
ATOM     25  H   UNL     1      48.686   3.238  19.788  0.00  0.00    +0.000 HD
ENDBRANCH  15  22
ENDBRANCH  14  19
ENDBRANCH   1  14
TORSDOF 5
ENDMDL
MODEL 9
REMARK VINA RESULT:    -6.113      2.461      3.647
REMARK INTER + INTRA:          -8.690
REMARK INTER:                  -8.027
REMARK INTRA:                  -0.663
REMARK UNBOUND:                -0.791
REMARK  Name = 
REMARK  5 active torsions:
REMARK  status: ('A' for Active; 'I' for Inactive)
REMARK    1  A    between atoms: C_2  and  C_4
REMARK    2  A    between atoms: C_8  and  C_9
REMARK    3  A    between atoms: C_9  and  S_10
REMARK    4  A    between atoms: S_10  and  C_11
REMARK    5  A    between atoms: C_15  and  N_16
REMARK                            x       y       z     vdW  Elec       q    Type
REMARK                         _______ _______ _______ _____ _____    ______ ____
ROOT
ATOM      1  S   UNL     1      45.422   5.620  12.843  0.00  0.00    +0.000 S 
ENDROOT
BRANCH   1   2
ATOM      2  C   UNL     1      46.205   7.221  12.803  0.00  0.00    +0.000 A 
ATOM      3  C   UNL     1      47.554   7.416  13.066  0.00  0.00    +0.000 A 
ATOM      4  N   UNL     1      48.188   8.605  12.951  0.00  0.00    +0.000 NA
ATOM      5  C   UNL     1      47.433   9.649  12.520  0.00  0.00    +0.000 A 
ATOM      6  C   UNL     1      46.069   9.599  12.217  0.00  0.00    +0.000 A 
ATOM      7  C   UNL     1      45.473   8.338  12.379  0.00  0.00    +0.000 A 
BRANCH   6   8
ATOM      8  N   UNL     1      45.348  10.684  11.759  0.00  0.00    +0.000 N 
ATOM      9  C   UNL     1      43.933  10.585  11.394  0.00  0.00    +0.000 C 
ATOM     10  C   UNL     1      43.748  10.833   9.899  0.00  0.00    +0.000 C 
ATOM     11  C   UNL     1      44.408  12.144   9.469  0.00  0.00    +0.000 C 
ATOM     12  C   UNL     1      45.873  12.184   9.901  0.00  0.00    +0.000 C 
ATOM     13  C   UNL     1      46.020  11.936  11.405  0.00  0.00    +0.000 C 
ENDBRANCH   6   8
ENDBRANCH   1   2
BRANCH   1  14
ATOM     14  C   UNL     1      44.342   5.698  11.375  0.00  0.00    +0.000 C 
BRANCH  14  19
ATOM     15  C   UNL     1      45.527   3.385   8.577  0.00  0.00    +0.000 A 
ATOM     16  C   UNL     1      44.771   2.266   8.895  0.00  0.00    +0.000 A 
ATOM     17  N   UNL     1      43.935   2.201   9.960  0.00  0.00    +0.000 NA
ATOM     18  C   UNL     1      43.833   3.313  10.724  0.00  0.00    +0.000 A 
ATOM     19  C   UNL     1      44.538   4.493  10.492  0.00  0.00    +0.000 A 
ATOM     20  C   UNL     1      45.399   4.520   9.384  0.00  0.00    +0.000 A 
BRANCH  15  22
ATOM     21  N   UNL     1      47.072   2.153   7.161  0.00  0.00    +0.000 N 
ATOM     22  C   UNL     1      46.409   3.327   7.391  0.00  0.00    +0.000 C 
ATOM     23  O   UNL     1      46.512   4.271   6.622  0.00  0.00    +0.000 OA
ATOM     24  H   UNL     1      47.582   2.095   6.288  0.00  0.00    +0.000 HD
ATOM     25  H   UNL     1      46.816   1.285   7.610  0.00  0.00    +0.000 HD
ENDBRANCH  15  22
ENDBRANCH  14  19
ENDBRANCH   1  14
TORSDOF 5
ENDMDL
