MODEL 1
REMARK VINA RESULT:    -7.040      0.000      0.000
REMARK INTER + INTRA:          -9.408
REMARK INTER:                  -8.686
REMARK INTRA:                  -0.722
REMARK UNBOUND:                -0.722
REMARK  Name = 
REMARK  4 active torsions:
REMARK  status: ('A' for Active; 'I' for Inactive)
REMARK    1  A    between atoms: C_4  and  O_5
REMARK    2  A    between atoms: O_5  and  C_6
REMARK    3  A    between atoms: C_6  and  C_7
REMARK    4  A    between atoms: C_11  and  C_12
REMARK                            x       y       z     vdW  Elec       q    Type
REMARK                         _______ _______ _______ _____ _____    ______ ____
ROOT
ATOM      1  C   UNL     1      45.099   5.199  12.240  0.00  0.00    +0.000 A 
ATOM      2  C   UNL     1      45.648   4.224  13.091  0.00  0.00    +0.000 A 
ATOM      3  C   UNL     1      46.893   4.386  13.691  0.00  0.00    +0.000 A 
ATOM      4  C   UNL     1      47.642   5.529  13.422  0.00  0.00    +0.000 A 
ATOM      5  C   UNL     1      47.153   6.531  12.574  0.00  0.00    +0.000 A 
ATOM      6  C   UNL     1      45.863   6.365  12.036  0.00  0.00    +0.000 A 
ENDROOT
BRANCH   5   7
ATOM      7  C   UNL     1      48.006   7.673  12.177  0.00  0.00    +0.000 A 
ATOM      8  C   UNL     1      47.492   8.977  12.148  0.00  0.00    +0.000 A 
ATOM      9  C   UNL     1      48.330  10.034  11.823  0.00  0.00    +0.000 A 
ATOM     10  N   UNL     1      49.636   9.888  11.529  0.00  0.00    +0.000 NA
ATOM     11  C   UNL     1      50.124   8.631  11.564  0.00  0.00    +0.000 A 
ATOM     12  C   UNL     1      49.361   7.511  11.868  0.00  0.00    +0.000 A 
ENDBRANCH   5   7
BRANCH   1  13
ATOM     13  C   UNL     1      43.799   4.931  11.484  0.00  0.00    +0.000 C 
ATOM     14  C   UNL     1      42.458   5.344  12.089  0.00  0.00    +0.000 C 
ATOM     15  C   UNL     1      43.053   6.155  10.986  0.00  0.00    +0.000 C 
BRANCH  13  16
ATOM     16  O   UNL     1      43.658   3.671  10.782  0.00  0.00    +0.000 OA
BRANCH  16  20
ATOM     17  C   UNL     1      46.307   2.933   7.735  0.00  0.00    +0.000 A 
ATOM     18  C   UNL     1      45.769   1.871   8.455  0.00  0.00    +0.000 A 
ATOM     19  C   UNL     1      44.845   2.131   9.461  0.00  0.00    +0.000 A 
ATOM     20  C   UNL     1      44.513   3.451   9.719  0.00  0.00    +0.000 A 
ATOM     21  N   UNL     1      44.979   4.498   9.003  0.00  0.00    +0.000 NA
ATOM     22  C   UNL     1      45.872   4.214   8.032  0.00  0.00    +0.000 A 
ENDBRANCH  16  20
ENDBRANCH  13  16
ENDBRANCH   1  13
TORSDOF 4
ENDMDL
MODEL 2
REMARK VINA RESULT:    -6.990      2.442      3.793
REMARK INTER + INTRA:          -9.347
REMARK INTER:                  -8.876
REMARK INTRA:                  -0.470
REMARK UNBOUND:                -0.722
REMARK  Name = 
REMARK  4 active torsions:
REMARK  status: ('A' for Active; 'I' for Inactive)
REMARK    1  A    between atoms: C_4  and  O_5
REMARK    2  A    between atoms: O_5  and  C_6
REMARK    3  A    between atoms: C_6  and  C_7
REMARK    4  A    between atoms: C_11  and  C_12
REMARK                            x       y       z     vdW  Elec       q    Type
REMARK                         _______ _______ _______ _____ _____    ______ ____
ROOT
ATOM      1  C   UNL     1      45.459   5.255  12.245  0.00  0.00    +0.000 A 
ATOM      2  C   UNL     1      46.199   6.278  11.629  0.00  0.00    +0.000 A 
ATOM      3  C   UNL     1      47.389   6.755  12.169  0.00  0.00    +0.000 A 
ATOM      4  C   UNL     1      47.855   6.234  13.373  0.00  0.00    +0.000 A 
ATOM      5  C   UNL     1      47.155   5.220  14.041  0.00  0.00    +0.000 A 
ATOM      6  C   UNL     1      45.990   4.716  13.434  0.00  0.00    +0.000 A 
ENDROOT
BRANCH   5   7
ATOM      7  C   UNL     1      47.573   4.769  15.387  0.00  0.00    +0.000 A 
ATOM      8  C   UNL     1      47.271   3.476  15.837  0.00  0.00    +0.000 A 
ATOM      9  C   UNL     1      47.721   3.064  17.083  0.00  0.00    +0.000 A 
ATOM     10  N   UNL     1      48.449   3.840  17.908  0.00  0.00    +0.000 NA
ATOM     11  C   UNL     1      48.739   5.081  17.466  0.00  0.00    +0.000 A 
ATOM     12  C   UNL     1      48.324   5.585  16.240  0.00  0.00    +0.000 A 
ENDBRANCH   5   7
BRANCH   1  13
ATOM     13  C   UNL     1      44.087   4.853  11.707  0.00  0.00    +0.000 C 
ATOM     14  C   UNL     1      42.824   5.171  12.507  0.00  0.00    +0.000 C 
ATOM     15  C   UNL     1      43.167   5.993  11.310  0.00  0.00    +0.000 C 
BRANCH  13  16
ATOM     16  O   UNL     1      43.952   3.564  11.060  0.00  0.00    +0.000 OA
BRANCH  16  20
ATOM     17  C   UNL     1      46.165   2.941   7.661  0.00  0.00    +0.000 A 
ATOM     18  C   UNL     1      45.796   1.858   8.452  0.00  0.00    +0.000 A 
ATOM     19  C   UNL     1      45.015   2.078   9.582  0.00  0.00    +0.000 A 
ATOM     20  C   UNL     1      44.653   3.381   9.884  0.00  0.00    +0.000 A 
ATOM     21  N   UNL     1      44.952   4.444   9.106  0.00  0.00    +0.000 NA
ATOM     22  C   UNL     1      45.708   4.199   8.016  0.00  0.00    +0.000 A 
ENDBRANCH  16  20
ENDBRANCH  13  16
ENDBRANCH   1  13
TORSDOF 4
ENDMDL
MODEL 3
REMARK VINA RESULT:    -6.710      2.524      6.385
REMARK INTER + INTRA:          -9.001
REMARK INTER:                  -8.174
REMARK INTRA:                  -0.826
REMARK UNBOUND:                -0.722
REMARK  Name = 
REMARK  4 active torsions:
REMARK  status: ('A' for Active; 'I' for Inactive)
REMARK    1  A    between atoms: C_4  and  O_5
REMARK    2  A    between atoms: O_5  and  C_6
REMARK    3  A    between atoms: C_6  and  C_7
REMARK    4  A    between atoms: C_11  and  C_12
REMARK                            x       y       z     vdW  Elec       q    Type
REMARK                         _______ _______ _______ _____ _____    ______ ____
ROOT
ATOM      1  C   UNL     1      45.081   6.254  11.808  0.00  0.00    +0.000 A 
ATOM      2  C   UNL     1      43.719   6.080  12.109  0.00  0.00    +0.000 A 
ATOM      3  C   UNL     1      42.954   5.084  11.511  0.00  0.00    +0.000 A 
ATOM      4  C   UNL     1      43.535   4.249  10.560  0.00  0.00    +0.000 A 
ATOM      5  C   UNL     1      44.886   4.381  10.210  0.00  0.00    +0.000 A 
ATOM      6  C   UNL     1      45.646   5.356  10.881  0.00  0.00    +0.000 A 
ENDROOT
BRANCH   5   7
ATOM      7  C   UNL     1      45.463   3.591   9.100  0.00  0.00    +0.000 A 
ATOM      8  C   UNL     1      46.060   4.226   8.002  0.00  0.00    +0.000 A 
ATOM      9  C   UNL     1      46.639   3.458   7.001  0.00  0.00    +0.000 A 
ATOM     10  N   UNL     1      46.671   2.112   7.017  0.00  0.00    +0.000 NA
ATOM     11  C   UNL     1      46.099   1.509   8.079  0.00  0.00    +0.000 A 
ATOM     12  C   UNL     1      45.486   2.192   9.122  0.00  0.00    +0.000 A 
ENDBRANCH   5   7
BRANCH   1  13
ATOM     13  C   UNL     1      45.857   7.445  12.370  0.00  0.00    +0.000 C 
ATOM     14  C   UNL     1      47.041   7.216  13.309  0.00  0.00    +0.000 C 
ATOM     15  C   UNL     1      47.288   7.594  11.887  0.00  0.00    +0.000 C 
BRANCH  13  16
ATOM     16  O   UNL     1      45.114   8.617  12.785  0.00  0.00    +0.000 OA
BRANCH  16  20
ATOM     17  C   UNL     1      44.736  11.510   9.898  0.00  0.00    +0.000 A 
ATOM     18  C   UNL     1      43.838  10.448   9.933  0.00  0.00    +0.000 A 
ATOM     19  C   UNL     1      43.955   9.493  10.938  0.00  0.00    +0.000 A 
ATOM     20  C   UNL     1      44.982   9.632  11.857  0.00  0.00    +0.000 A 
ATOM     21  N   UNL     1      45.835  10.679  11.879  0.00  0.00    +0.000 NA
ATOM     22  C   UNL     1      45.696  11.590  10.893  0.00  0.00    +0.000 A 
ENDBRANCH  16  20
ENDBRANCH  13  16
ENDBRANCH   1  13
TORSDOF 4
ENDMDL
MODEL 4
REMARK VINA RESULT:    -6.400      2.999      3.979
REMARK INTER + INTRA:          -8.618
REMARK INTER:                  -7.650
REMARK INTRA:                  -0.968
REMARK UNBOUND:                -0.722
REMARK  Name = 
REMARK  4 active torsions:
REMARK  status: ('A' for Active; 'I' for Inactive)
REMARK    1  A    between atoms: C_4  and  O_5
REMARK    2  A    between atoms: O_5  and  C_6
REMARK    3  A    between atoms: C_6  and  C_7
REMARK    4  A    between atoms: C_11  and  C_12
REMARK                            x       y       z     vdW  Elec       q    Type
REMARK                         _______ _______ _______ _____ _____    ______ ____
ROOT
ATOM      1  C   UNL     1      44.656   6.981  12.175  0.00  0.00    +0.000 A 
ATOM      2  C   UNL     1      45.868   7.196  12.852  0.00  0.00    +0.000 A 
ATOM      3  C   UNL     1      46.503   8.434  12.851  0.00  0.00    +0.000 A 
ATOM      4  C   UNL     1      45.948   9.490  12.133  0.00  0.00    +0.000 A 
ATOM      5  C   UNL     1      44.746   9.334  11.429  0.00  0.00    +0.000 A 
ATOM      6  C   UNL     1      44.098   8.087  11.506  0.00  0.00    +0.000 A 
ENDROOT
BRANCH   5   7
ATOM      7  C   UNL     1      44.234  10.410  10.553  0.00  0.00    +0.000 A 
ATOM      8  C   UNL     1      44.981  11.576  10.337  0.00  0.00    +0.000 A 
ATOM      9  C   UNL     1      44.499  12.546   9.469  0.00  0.00    +0.000 A 
ATOM     10  N   UNL     1      43.335  12.437   8.801  0.00  0.00    +0.000 NA
ATOM     11  C   UNL     1      42.624  11.309   9.010  0.00  0.00    +0.000 A 
ATOM     12  C   UNL     1      43.020  10.291   9.867  0.00  0.00    +0.000 A 
ENDBRANCH   5   7
BRANCH   1  13
ATOM     13  C   UNL     1      44.058   5.578  12.075  0.00  0.00    +0.000 C 
ATOM     14  C   UNL     1      42.943   5.147  13.027  0.00  0.00    +0.000 C 
ATOM     15  C   UNL     1      42.614   5.500  11.616  0.00  0.00    +0.000 C 
BRANCH  13  16
ATOM     16  O   UNL     1      44.951   4.465  11.822  0.00  0.00    +0.000 OA
BRANCH  16  20
ATOM     17  C   UNL     1      45.048   3.227   7.910  0.00  0.00    +0.000 A 
ATOM     18  C   UNL     1      45.590   4.460   8.258  0.00  0.00    +0.000 A 
ATOM     19  C   UNL     1      45.584   4.853   9.592  0.00  0.00    +0.000 A 
ATOM     20  C   UNL     1      45.014   4.000  10.523  0.00  0.00    +0.000 A 
ATOM     21  N   UNL     1      44.528   2.775  10.223  0.00  0.00    +0.000 NA
ATOM     22  C   UNL     1      44.550   2.421   8.921  0.00  0.00    +0.000 A 
ENDBRANCH  16  20
ENDBRANCH  13  16
ENDBRANCH   1  13
TORSDOF 4
ENDMDL
MODEL 5
REMARK VINA RESULT:    -6.383      2.450      6.432
REMARK INTER + INTRA:          -8.598
REMARK INTER:                  -7.893
REMARK INTRA:                  -0.705
REMARK UNBOUND:                -0.722
REMARK  Name = 
REMARK  4 active torsions:
REMARK  status: ('A' for Active; 'I' for Inactive)
REMARK    1  A    between atoms: C_4  and  O_5
REMARK    2  A    between atoms: O_5  and  C_6
REMARK    3  A    between atoms: C_6  and  C_7
REMARK    4  A    between atoms: C_11  and  C_12
REMARK                            x       y       z     vdW  Elec       q    Type
REMARK                         _______ _______ _______ _____ _____    ______ ____
ROOT
ATOM      1  C   UNL     1      45.374   6.425  11.674  0.00  0.00    +0.000 A 
ATOM      2  C   UNL     1      43.978   6.523  11.799  0.00  0.00    +0.000 A 
ATOM      3  C   UNL     1      43.116   5.676  11.112  0.00  0.00    +0.000 A 
ATOM      4  C   UNL     1      43.638   4.719  10.246  0.00  0.00    +0.000 A 
ATOM      5  C   UNL     1      45.022   4.580  10.070  0.00  0.00    +0.000 A 
ATOM      6  C   UNL     1      45.866   5.410  10.830  0.00  0.00    +0.000 A 
ENDROOT
BRANCH   5   7
ATOM      7  C   UNL     1      45.569   3.663   9.046  0.00  0.00    +0.000 A 
ATOM      8  C   UNL     1      45.466   2.273   9.198  0.00  0.00    +0.000 A 
ATOM      9  C   UNL     1      45.942   1.440   8.196  0.00  0.00    +0.000 A 
ATOM     10  N   UNL     1      46.506   1.887   7.058  0.00  0.00    +0.000 NA
ATOM     11  C   UNL     1      46.597   3.226   6.917  0.00  0.00    +0.000 A 
ATOM     12  C   UNL     1      46.159   4.137   7.869  0.00  0.00    +0.000 A 
ENDBRANCH   5   7
BRANCH   1  13
ATOM     13  C   UNL     1      46.290   7.460  12.327  0.00  0.00    +0.000 C 
ATOM     14  C   UNL     1      46.300   8.904  11.825  0.00  0.00    +0.000 C 
ATOM     15  C   UNL     1      45.598   8.569  13.099  0.00  0.00    +0.000 C 
BRANCH  13  16
ATOM     16  O   UNL     1      47.630   7.056  12.699  0.00  0.00    +0.000 OA
BRANCH  16  20
ATOM     17  C   UNL     1      48.251   5.277  16.346  0.00  0.00    +0.000 A 
ATOM     18  C   UNL     1      48.851   6.500  16.063  0.00  0.00    +0.000 A 
ATOM     19  C   UNL     1      48.605   7.110  14.838  0.00  0.00    +0.000 A 
ATOM     20  C   UNL     1      47.780   6.458  13.936  0.00  0.00    +0.000 A 
ATOM     21  N   UNL     1      47.142   5.297  14.203  0.00  0.00    +0.000 NA
ATOM     22  C   UNL     1      47.399   4.730  15.400  0.00  0.00    +0.000 A 
ENDBRANCH  16  20
ENDBRANCH  13  16
ENDBRANCH   1  13
TORSDOF 4
ENDMDL
MODEL 6
REMARK VINA RESULT:    -6.306      1.906      2.747
REMARK INTER + INTRA:          -8.503
REMARK INTER:                  -7.915
REMARK INTRA:                  -0.588
REMARK UNBOUND:                -0.722
REMARK  Name = 
REMARK  4 active torsions:
REMARK  status: ('A' for Active; 'I' for Inactive)
REMARK    1  A    between atoms: C_4  and  O_5
REMARK    2  A    between atoms: O_5  and  C_6
REMARK    3  A    between atoms: C_6  and  C_7
REMARK    4  A    between atoms: C_11  and  C_12
REMARK                            x       y       z     vdW  Elec       q    Type
REMARK                         _______ _______ _______ _____ _____    ______ ____
ROOT
ATOM      1  C   UNL     1      45.093   6.356  12.203  0.00  0.00    +0.000 A 
ATOM      2  C   UNL     1      44.813   7.672  11.799  0.00  0.00    +0.000 A 
ATOM      3  C   UNL     1      45.667   8.730  12.091  0.00  0.00    +0.000 A 
ATOM      4  C   UNL     1      46.820   8.497  12.834  0.00  0.00    +0.000 A 
ATOM      5  C   UNL     1      47.149   7.208  13.276  0.00  0.00    +0.000 A 
ATOM      6  C   UNL     1      46.296   6.151  12.908  0.00  0.00    +0.000 A 
ENDROOT
BRANCH   5   7
ATOM      7  C   UNL     1      48.295   6.986  14.185  0.00  0.00    +0.000 A 
ATOM      8  C   UNL     1      49.520   7.630  13.966  0.00  0.00    +0.000 A 
ATOM      9  C   UNL     1      50.561   7.443  14.864  0.00  0.00    +0.000 A 
ATOM     10  N   UNL     1      50.469   6.668  15.961  0.00  0.00    +0.000 NA
ATOM     11  C   UNL     1      49.285   6.056  16.169  0.00  0.00    +0.000 A 
ATOM     12  C   UNL     1      48.192   6.174  15.320  0.00  0.00    +0.000 A 
ENDBRANCH   5   7
BRANCH   1  13
ATOM     13  C   UNL     1      44.069   5.241  11.994  0.00  0.00    +0.000 C 
ATOM     14  C   UNL     1      42.873   5.108  12.936  0.00  0.00    +0.000 C 
ATOM     15  C   UNL     1      42.679   5.683  11.573  0.00  0.00    +0.000 C 
BRANCH  13  16
ATOM     16  O   UNL     1      44.549   3.928  11.615  0.00  0.00    +0.000 OA
BRANCH  16  20
ATOM     17  C   UNL     1      45.549   3.220   7.698  0.00  0.00    +0.000 A 
ATOM     18  C   UNL     1      44.927   2.223   8.442  0.00  0.00    +0.000 A 
ATOM     19  C   UNL     1      44.560   2.487   9.758  0.00  0.00    +0.000 A 
ATOM     20  C   UNL     1      44.852   3.736  10.280  0.00  0.00    +0.000 A 
ATOM     21  N   UNL     1      45.407   4.739   9.566  0.00  0.00    +0.000 NA
ATOM     22  C   UNL     1      45.750   4.454   8.292  0.00  0.00    +0.000 A 
ENDBRANCH  16  20
ENDBRANCH  13  16
ENDBRANCH   1  13
TORSDOF 4
ENDMDL
MODEL 7
REMARK VINA RESULT:    -6.306      1.652      2.379
REMARK INTER + INTRA:          -8.502
REMARK INTER:                  -8.097
REMARK INTRA:                  -0.405
REMARK UNBOUND:                -0.722
REMARK  Name = 
REMARK  4 active torsions:
REMARK  status: ('A' for Active; 'I' for Inactive)
REMARK    1  A    between atoms: C_4  and  O_5
REMARK    2  A    between atoms: O_5  and  C_6
REMARK    3  A    between atoms: C_6  and  C_7
REMARK    4  A    between atoms: C_11  and  C_12
REMARK                            x       y       z     vdW  Elec       q    Type
REMARK                         _______ _______ _______ _____ _____    ______ ____
ROOT
ATOM      1  C   UNL     1      45.255   5.715  12.650  0.00  0.00    +0.000 A 
ATOM      2  C   UNL     1      46.416   5.204  13.254  0.00  0.00    +0.000 A 
ATOM      3  C   UNL     1      47.477   6.024  13.623  0.00  0.00    +0.000 A 
ATOM      4  C   UNL     1      47.413   7.390  13.361  0.00  0.00    +0.000 A 
ATOM      5  C   UNL     1      46.286   7.957  12.751  0.00  0.00    +0.000 A 
ATOM      6  C   UNL     1      45.205   7.108  12.450  0.00  0.00    +0.000 A 
ENDROOT
BRANCH   5   7
ATOM      7  C   UNL     1      46.278   9.380  12.344  0.00  0.00    +0.000 A 
ATOM      8  C   UNL     1      47.475  10.100  12.228  0.00  0.00    +0.000 A 
ATOM      9  C   UNL     1      47.440  11.417  11.794  0.00  0.00    +0.000 A 
ATOM     10  N   UNL     1      46.307  12.065  11.464  0.00  0.00    +0.000 NA
ATOM     11  C   UNL     1      45.159  11.364  11.573  0.00  0.00    +0.000 A 
ATOM     12  C   UNL     1      45.094  10.046  12.009  0.00  0.00    +0.000 A 
ENDBRANCH   5   7
BRANCH   1  13
ATOM     13  C   UNL     1      44.170   4.774  12.126  0.00  0.00    +0.000 C 
ATOM     14  C   UNL     1      42.841   4.645  12.868  0.00  0.00    +0.000 C 
ATOM     15  C   UNL     1      42.908   5.437  11.605  0.00  0.00    +0.000 C 
BRANCH  13  16
ATOM     16  O   UNL     1      44.572   3.485  11.601  0.00  0.00    +0.000 OA
BRANCH  16  20
ATOM     17  C   UNL     1      45.794   3.522   7.683  0.00  0.00    +0.000 A 
ATOM     18  C   UNL     1      45.779   4.706   8.413  0.00  0.00    +0.000 A 
ATOM     19  C   UNL     1      45.397   4.676   9.750  0.00  0.00    +0.000 A 
ATOM     20  C   UNL     1      45.026   3.458  10.296  0.00  0.00    +0.000 A 
ATOM     21  N   UNL     1      45.081   2.285   9.628  0.00  0.00    +0.000 NA
ATOM     22  C   UNL     1      45.457   2.347   8.333  0.00  0.00    +0.000 A 
ENDBRANCH  16  20
ENDBRANCH  13  16
ENDBRANCH   1  13
TORSDOF 4
ENDMDL
MODEL 8
REMARK VINA RESULT:    -6.276      2.266      2.920
REMARK INTER + INTRA:          -8.466
REMARK INTER:                  -8.758
REMARK INTRA:                   0.292
REMARK UNBOUND:                -0.722
REMARK  Name = 
REMARK  4 active torsions:
REMARK  status: ('A' for Active; 'I' for Inactive)
REMARK    1  A    between atoms: C_4  and  O_5
REMARK    2  A    between atoms: O_5  and  C_6
REMARK    3  A    between atoms: C_6  and  C_7
REMARK    4  A    between atoms: C_11  and  C_12
REMARK                            x       y       z     vdW  Elec       q    Type
REMARK                         _______ _______ _______ _____ _____    ______ ____
ROOT
ATOM      1  C   UNL     1      45.067   5.754  11.779  0.00  0.00    +0.000 A 
ATOM      2  C   UNL     1      46.437   5.521  11.986  0.00  0.00    +0.000 A 
ATOM      3  C   UNL     1      47.342   6.561  12.171  0.00  0.00    +0.000 A 
ATOM      4  C   UNL     1      46.895   7.878  12.119  0.00  0.00    +0.000 A 
ATOM      5  C   UNL     1      45.542   8.175  11.905  0.00  0.00    +0.000 A 
ATOM      6  C   UNL     1      44.644   7.098  11.787  0.00  0.00    +0.000 A 
ENDROOT
BRANCH   5   7
ATOM      7  C   UNL     1      45.092   9.570  11.707  0.00  0.00    +0.000 A 
ATOM      8  C   UNL     1      43.748   9.859  11.430  0.00  0.00    +0.000 A 
ATOM      9  C   UNL     1      43.347  11.181  11.301  0.00  0.00    +0.000 A 
ATOM     10  N   UNL     1      44.180  12.231  11.432  0.00  0.00    +0.000 NA
ATOM     11  C   UNL     1      45.470  11.945  11.705  0.00  0.00    +0.000 A 
ATOM     12  C   UNL     1      45.966  10.655  11.840  0.00  0.00    +0.000 A 
ENDBRANCH   5   7
BRANCH   1  13
ATOM     13  C   UNL     1      44.124   4.602  11.436  0.00  0.00    +0.000 C 
ATOM     14  C   UNL     1      44.290   3.243  12.115  0.00  0.00    +0.000 C 
ATOM     15  C   UNL     1      43.189   4.153  12.545  0.00  0.00    +0.000 C 
BRANCH  13  16
ATOM     16  O   UNL     1      43.733   4.420  10.053  0.00  0.00    +0.000 OA
BRANCH  16  20
ATOM     17  C   UNL     1      46.592   2.663   7.690  0.00  0.00    +0.000 A 
ATOM     18  C   UNL     1      45.750   1.868   8.461  0.00  0.00    +0.000 A 
ATOM     19  C   UNL     1      44.762   2.473   9.231  0.00  0.00    +0.000 A 
ATOM     20  C   UNL     1      44.671   3.856   9.210  0.00  0.00    +0.000 A 
ATOM     21  N   UNL     1      45.439   4.648   8.431  0.00  0.00    +0.000 NA
ATOM     22  C   UNL     1      46.387   4.032   7.694  0.00  0.00    +0.000 A 
ENDBRANCH  16  20
ENDBRANCH  13  16
ENDBRANCH   1  13
TORSDOF 4
ENDMDL
MODEL 9
REMARK VINA RESULT:    -6.141      2.894      7.099
REMARK INTER + INTRA:          -8.300
REMARK INTER:                  -7.503
REMARK INTRA:                  -0.796
REMARK UNBOUND:                -0.722
REMARK  Name = 
REMARK  4 active torsions:
REMARK  status: ('A' for Active; 'I' for Inactive)
REMARK    1  A    between atoms: C_4  and  O_5
REMARK    2  A    between atoms: O_5  and  C_6
REMARK    3  A    between atoms: C_6  and  C_7
REMARK    4  A    between atoms: C_11  and  C_12
REMARK                            x       y       z     vdW  Elec       q    Type
REMARK                         _______ _______ _______ _____ _____    ______ ____
ROOT
ATOM      1  C   UNL     1      47.461   7.520  12.428  0.00  0.00    +0.000 A 
ATOM      2  C   UNL     1      46.519   8.519  12.725  0.00  0.00    +0.000 A 
ATOM      3  C   UNL     1      45.172   8.380  12.404  0.00  0.00    +0.000 A 
ATOM      4  C   UNL     1      44.738   7.237  11.739  0.00  0.00    +0.000 A 
ATOM      5  C   UNL     1      45.632   6.210  11.405  0.00  0.00    +0.000 A 
ATOM      6  C   UNL     1      46.974   6.355  11.803  0.00  0.00    +0.000 A 
ENDROOT
BRANCH   5   7
ATOM      7  C   UNL     1      45.199   5.066  10.575  0.00  0.00    +0.000 A 
ATOM      8  C   UNL     1      45.533   4.998   9.215  0.00  0.00    +0.000 A 
ATOM      9  C   UNL     1      45.158   3.887   8.474  0.00  0.00    +0.000 A 
ATOM     10  N   UNL     1      44.480   2.842   8.986  0.00  0.00    +0.000 NA
ATOM     11  C   UNL     1      44.167   2.912  10.297  0.00  0.00    +0.000 A 
ATOM     12  C   UNL     1      44.491   3.986  11.115  0.00  0.00    +0.000 A 
ENDBRANCH   5   7
BRANCH   1  13
ATOM     13  C   UNL     1      48.952   7.760  12.661  0.00  0.00    +0.000 C 
ATOM     14  C   UNL     1      49.868   8.105  11.488  0.00  0.00    +0.000 C 
ATOM     15  C   UNL     1      49.442   9.178  12.433  0.00  0.00    +0.000 C 
BRANCH  13  16
ATOM     16  O   UNL     1      49.649   6.904  13.599  0.00  0.00    +0.000 OA
BRANCH  16  20
ATOM     17  C   UNL     1      48.531   7.079  17.544  0.00  0.00    +0.000 A 
ATOM     18  C   UNL     1      48.885   8.246  16.874  0.00  0.00    +0.000 A 
ATOM     19  C   UNL     1      49.228   8.179  15.528  0.00  0.00    +0.000 A 
ATOM     20  C   UNL     1      49.220   6.938  14.912  0.00  0.00    +0.000 A 
ATOM     21  N   UNL     1      48.830   5.797  15.522  0.00  0.00    +0.000 NA
ATOM     22  C   UNL     1      48.502   5.894  16.827  0.00  0.00    +0.000 A 
ENDBRANCH  16  20
ENDBRANCH  13  16
ENDBRANCH   1  13
TORSDOF 4
ENDMDL
