MODEL 1
REMARK VINA RESULT:    -7.943      0.000      0.000
REMARK INTER + INTRA:         -11.976
REMARK INTER:                 -10.728
REMARK INTRA:                  -1.248
REMARK UNBOUND:                -1.248
REMARK  Name = 
REMARK  9 active torsions:
REMARK  status: ('A' for Active; 'I' for Inactive)
REMARK    1  A    between atoms: C_1  and  C_2
REMARK    2  A    between atoms: C_4  and  C_5
REMARK    3  A    between atoms: C_5  and  C_6
REMARK    4  A    between atoms: C_5  and  C_7
REMARK    5  A    between atoms: C_7  and  N_8
REMARK    6  A    between atoms: C_12  and  C_13
REMARK    7  A    between atoms: C_19  and  C_20
REMARK    8  A    between atoms: C_21  and  O_22
REMARK    9  A    between atoms: O_22  and  C_23
REMARK                            x       y       z     vdW  Elec       q    Type
REMARK                         _______ _______ _______ _____ _____    ______ ____
ROOT
ATOM      1  C   UNL     1      43.645   5.091  11.795  0.00  0.00    +0.000 C 
ATOM      2  C   UNL     1      42.732   6.328  11.898  0.00  0.00    +0.000 C 
ENDROOT
BRANCH   1   6
ATOM      3  C   UNL     1      47.924   7.625  11.385  0.00  0.00    +0.000 C 
ATOM      4  C   UNL     1      47.143   6.652  12.216  0.00  0.00    +0.000 A 
ATOM      5  C   UNL     1      45.847   6.331  11.749  0.00  0.00    +0.000 A 
ATOM      6  C   UNL     1      45.022   5.389  12.381  0.00  0.00    +0.000 A 
ATOM      7  C   UNL     1      45.508   4.790  13.543  0.00  0.00    +0.000 A 
ATOM      8  C   UNL     1      46.774   5.108  14.057  0.00  0.00    +0.000 A 
ATOM      9  C   UNL     1      47.208   4.457  15.345  0.00  0.00    +0.000 C 
ATOM     10  C   UNL     1      47.609   6.025  13.381  0.00  0.00    +0.000 A 
BRANCH  10  11
ATOM     11  O   UNL     1      48.877   6.089  13.910  0.00  0.00    +0.000 OA
BRANCH  11  12
ATOM     12  C   UNL     1      49.404   7.249  14.575  0.00  0.00    +0.000 C 
ATOM     13  C   UNL     1      50.012   6.907  15.960  0.00  0.00    +0.000 C 
ATOM     14  C   UNL     1      49.246   8.074  16.582  0.00  0.00    +0.000 C 
ATOM     15  C   UNL     1      48.420   8.197  15.293  0.00  0.00    +0.000 C 
ENDBRANCH  11  12
ENDBRANCH  10  11
ENDBRANCH   1   6
BRANCH   1  16
ATOM     16  C   UNL     1      43.603   4.614  10.328  0.00  0.00    +0.000 C 
BRANCH  16  17
ATOM     17  N   UNL     1      43.967   3.201  10.177  0.00  0.00    +0.000 N 
ATOM     18  C   UNL     1      44.893   2.984   9.149  0.00  0.00    +0.000 A 
ATOM     19  C   UNL     1      45.384   1.701   8.933  0.00  0.00    +0.000 A 
ATOM     20  C   UNL     1      46.309   1.489   7.907  0.00  0.00    +0.000 A 
ATOM     21  C   UNL     1      46.730   2.563   7.120  0.00  0.00    +0.000 A 
ATOM     22  C   UNL     1      46.214   3.805   7.428  0.00  0.00    +0.000 A 
ATOM     23  N   UNL     1      45.322   4.032   8.416  0.00  0.00    +0.000 NA
ATOM     24  H   UNL     1      43.166   2.587  10.064  0.00  0.00    +0.000 HD
BRANCH  21  25
ATOM     25  C   UNL     1      47.680   2.338   6.008  0.00  0.00    +0.000 C 
ATOM     26  N   UNL     1      47.677   3.203   4.947  0.00  0.00    +0.000 N 
ATOM     27  O   UNL     1      48.450   1.386   6.021  0.00  0.00    +0.000 OA
ATOM     28  H   UNL     1      47.079   4.007   4.829  0.00  0.00    +0.000 HD
ATOM     29  H   UNL     1      48.325   2.997   4.198  0.00  0.00    +0.000 HD
ENDBRANCH  21  25
ENDBRANCH  16  17
ENDBRANCH   1  16
TORSDOF 6
ENDMDL
MODEL 2
REMARK VINA RESULT:    -7.651      1.917      2.994
REMARK INTER + INTRA:         -11.582
REMARK INTER:                 -10.583
REMARK INTRA:                  -0.999
REMARK UNBOUND:                -1.248
REMARK  Name = 
REMARK  9 active torsions:
REMARK  status: ('A' for Active; 'I' for Inactive)
REMARK    1  A    between atoms: C_1  and  C_2
REMARK    2  A    between atoms: C_4  and  C_5
REMARK    3  A    between atoms: C_5  and  C_6
REMARK    4  A    between atoms: C_5  and  C_7
REMARK    5  A    between atoms: C_7  and  N_8
REMARK    6  A    between atoms: C_12  and  C_13
REMARK    7  A    between atoms: C_19  and  C_20
REMARK    8  A    between atoms: C_21  and  O_22
REMARK    9  A    between atoms: O_22  and  C_23
REMARK                            x       y       z     vdW  Elec       q    Type
REMARK                         _______ _______ _______ _____ _____    ______ ____
ROOT
ATOM      1  C   UNL     1      44.112   4.670  12.314  0.00  0.00    +0.000 C 
ATOM      2  C   UNL     1      42.919   4.625  13.288  0.00  0.00    +0.000 C 
ENDROOT
BRANCH   1   6
ATOM      3  C   UNL     1      48.408   6.339  14.228  0.00  0.00    +0.000 C 
ATOM      4  C   UNL     1      47.137   6.724  13.532  0.00  0.00    +0.000 A 
ATOM      5  C   UNL     1      46.258   5.665  13.206  0.00  0.00    +0.000 A 
ATOM      6  C   UNL     1      45.004   5.871  12.613  0.00  0.00    +0.000 A 
ATOM      7  C   UNL     1      44.651   7.185  12.303  0.00  0.00    +0.000 A 
ATOM      8  C   UNL     1      45.511   8.259  12.579  0.00  0.00    +0.000 A 
ATOM      9  C   UNL     1      45.082   9.644  12.167  0.00  0.00    +0.000 C 
ATOM     10  C   UNL     1      46.750   8.036  13.218  0.00  0.00    +0.000 A 
BRANCH  10  11
ATOM     11  O   UNL     1      47.387   9.199  13.579  0.00  0.00    +0.000 OA
BRANCH  11  12
ATOM     12  C   UNL     1      48.606   9.661  12.972  0.00  0.00    +0.000 C 
ATOM     13  C   UNL     1      48.466  11.090  12.387  0.00  0.00    +0.000 C 
ATOM     14  C   UNL     1      49.117  10.618  11.086  0.00  0.00    +0.000 C 
ATOM     15  C   UNL     1      48.956   9.164  11.553  0.00  0.00    +0.000 C 
ENDBRANCH  11  12
ENDBRANCH  10  11
ENDBRANCH   1   6
BRANCH   1  16
ATOM     16  C   UNL     1      43.537   4.571  10.885  0.00  0.00    +0.000 C 
BRANCH  16  17
ATOM     17  N   UNL     1      44.408   5.189   9.877  0.00  0.00    +0.000 N 
ATOM     18  C   UNL     1      45.128   4.247   9.131  0.00  0.00    +0.000 A 
ATOM     19  C   UNL     1      45.944   4.681   8.092  0.00  0.00    +0.000 A 
ATOM     20  C   UNL     1      46.661   3.739   7.350  0.00  0.00    +0.000 A 
ATOM     21  C   UNL     1      46.545   2.381   7.655  0.00  0.00    +0.000 A 
ATOM     22  C   UNL     1      45.687   2.042   8.682  0.00  0.00    +0.000 A 
ATOM     23  N   UNL     1      44.984   2.935   9.409  0.00  0.00    +0.000 NA
ATOM     24  H   UNL     1      45.035   5.889  10.260  0.00  0.00    +0.000 HD
BRANCH  21  25
ATOM     25  C   UNL     1      47.331   1.382   6.897  0.00  0.00    +0.000 C 
ATOM     26  N   UNL     1      48.388   1.806   6.139  0.00  0.00    +0.000 N 
ATOM     27  O   UNL     1      47.037   0.194   6.930  0.00  0.00    +0.000 OA
ATOM     28  H   UNL     1      48.707   2.757   6.031  0.00  0.00    +0.000 HD
ATOM     29  H   UNL     1      48.882   1.093   5.619  0.00  0.00    +0.000 HD
ENDBRANCH  21  25
ENDBRANCH  16  17
ENDBRANCH   1  16
TORSDOF 6
ENDMDL
MODEL 3
REMARK VINA RESULT:    -7.402      1.819      2.268
REMARK INTER + INTRA:         -11.246
REMARK INTER:                 -10.219
REMARK INTRA:                  -1.027
REMARK UNBOUND:                -1.248
REMARK  Name = 
REMARK  9 active torsions:
REMARK  status: ('A' for Active; 'I' for Inactive)
REMARK    1  A    between atoms: C_1  and  C_2
REMARK    2  A    between atoms: C_4  and  C_5
REMARK    3  A    between atoms: C_5  and  C_6
REMARK    4  A    between atoms: C_5  and  C_7
REMARK    5  A    between atoms: C_7  and  N_8
REMARK    6  A    between atoms: C_12  and  C_13
REMARK    7  A    between atoms: C_19  and  C_20
REMARK    8  A    between atoms: C_21  and  O_22
REMARK    9  A    between atoms: O_22  and  C_23
REMARK                            x       y       z     vdW  Elec       q    Type
REMARK                         _______ _______ _______ _____ _____    ______ ____
ROOT
ATOM      1  C   UNL     1      44.198   5.104  12.079  0.00  0.00    +0.000 C 
ATOM      2  C   UNL     1      42.953   5.457  12.915  0.00  0.00    +0.000 C 
ENDROOT
BRANCH   1   6
ATOM      3  C   UNL     1      45.025  10.023  11.924  0.00  0.00    +0.000 C 
ATOM      4  C   UNL     1      45.655   8.672  12.084  0.00  0.00    +0.000 A 
ATOM      5  C   UNL     1      44.774   7.566  12.060  0.00  0.00    +0.000 A 
ATOM      6  C   UNL     1      45.218   6.237  12.132  0.00  0.00    +0.000 A 
ATOM      7  C   UNL     1      46.590   6.028  12.275  0.00  0.00    +0.000 A 
ATOM      8  C   UNL     1      47.492   7.101  12.338  0.00  0.00    +0.000 A 
ATOM      9  C   UNL     1      48.953   6.797  12.546  0.00  0.00    +0.000 C 
ATOM     10  C   UNL     1      47.030   8.430  12.218  0.00  0.00    +0.000 A 
BRANCH  10  11
ATOM     11  O   UNL     1      48.049   9.347  12.117  0.00  0.00    +0.000 OA
BRANCH  11  12
ATOM     12  C   UNL     1      48.305  10.366  13.098  0.00  0.00    +0.000 C 
ATOM     13  C   UNL     1      49.693  11.030  12.910  0.00  0.00    +0.000 C 
ATOM     14  C   UNL     1      49.974  10.860  14.403  0.00  0.00    +0.000 C 
ATOM     15  C   UNL     1      48.755   9.932  14.510  0.00  0.00    +0.000 C 
ENDBRANCH  11  12
ENDBRANCH  10  11
ENDBRANCH   1   6
BRANCH   1  16
ATOM     16  C   UNL     1      43.702   4.681  10.680  0.00  0.00    +0.000 C 
BRANCH  16  17
ATOM     17  N   UNL     1      43.917   3.255  10.407  0.00  0.00    +0.000 N 
ATOM     18  C   UNL     1      44.831   3.031   9.369  0.00  0.00    +0.000 A 
ATOM     19  C   UNL     1      45.186   1.727   9.043  0.00  0.00    +0.000 A 
ATOM     20  C   UNL     1      46.099   1.509   8.007  0.00  0.00    +0.000 A 
ATOM     21  C   UNL     1      46.643   2.597   7.320  0.00  0.00    +0.000 A 
ATOM     22  C   UNL     1      46.256   3.855   7.735  0.00  0.00    +0.000 A 
ATOM     23  N   UNL     1      45.378   4.088   8.734  0.00  0.00    +0.000 NA
ATOM     24  H   UNL     1      43.058   2.742  10.236  0.00  0.00    +0.000 HD
BRANCH  21  25
ATOM     25  C   UNL     1      47.580   2.370   6.198  0.00  0.00    +0.000 C 
ATOM     26  N   UNL     1      47.445   3.117   5.059  0.00  0.00    +0.000 N 
ATOM     27  O   UNL     1      48.456   1.518   6.272  0.00  0.00    +0.000 OA
ATOM     28  H   UNL     1      46.753   3.832   4.888  0.00  0.00    +0.000 HD
ATOM     29  H   UNL     1      48.091   2.912   4.308  0.00  0.00    +0.000 HD
ENDBRANCH  21  25
ENDBRANCH  16  17
ENDBRANCH   1  16
TORSDOF 6
ENDMDL
MODEL 4
REMARK VINA RESULT:    -7.021      2.760      4.069
REMARK INTER + INTRA:         -10.732
REMARK INTER:                  -9.859
REMARK INTRA:                  -0.873
REMARK UNBOUND:                -1.248
REMARK  Name = 
REMARK  9 active torsions:
REMARK  status: ('A' for Active; 'I' for Inactive)
REMARK    1  A    between atoms: C_1  and  C_2
REMARK    2  A    between atoms: C_4  and  C_5
REMARK    3  A    between atoms: C_5  and  C_6
REMARK    4  A    between atoms: C_5  and  C_7
REMARK    5  A    between atoms: C_7  and  N_8
REMARK    6  A    between atoms: C_12  and  C_13
REMARK    7  A    between atoms: C_19  and  C_20
REMARK    8  A    between atoms: C_21  and  O_22
REMARK    9  A    between atoms: O_22  and  C_23
REMARK                            x       y       z     vdW  Elec       q    Type
REMARK                         _______ _______ _______ _____ _____    ______ ____
ROOT
ATOM      1  C   UNL     1      44.998   5.353  11.870  0.00  0.00    +0.000 C 
ATOM      2  C   UNL     1      44.779   4.769  13.279  0.00  0.00    +0.000 C 
ENDROOT
BRANCH   1   6
ATOM      3  C   UNL     1      47.547   9.221  13.727  0.00  0.00    +0.000 C 
ATOM      4  C   UNL     1      46.426   8.803  12.822  0.00  0.00    +0.000 A 
ATOM      5  C   UNL     1      46.213   7.411  12.694  0.00  0.00    +0.000 A 
ATOM      6  C   UNL     1      45.164   6.868  11.937  0.00  0.00    +0.000 A 
ATOM      7  C   UNL     1      44.337   7.762  11.257  0.00  0.00    +0.000 A 
ATOM      8  C   UNL     1      44.538   9.149  11.332  0.00  0.00    +0.000 A 
ATOM      9  C   UNL     1      43.634  10.048  10.528  0.00  0.00    +0.000 C 
ATOM     10  C   UNL     1      45.571   9.678  12.136  0.00  0.00    +0.000 A 
BRANCH  10  11
ATOM     11  O   UNL     1      45.520  11.047  12.245  0.00  0.00    +0.000 OA
BRANCH  11  12
ATOM     12  C   UNL     1      46.528  11.926  11.718  0.00  0.00    +0.000 C 
ATOM     13  C   UNL     1      45.977  12.855  10.607  0.00  0.00    +0.000 C 
ATOM     14  C   UNL     1      47.173  12.504   9.722  0.00  0.00    +0.000 C 
ATOM     15  C   UNL     1      47.529  11.363  10.687  0.00  0.00    +0.000 C 
ENDBRANCH  11  12
ENDBRANCH  10  11
ENDBRANCH   1   6
BRANCH   1  16
ATOM     16  C   UNL     1      43.860   4.819  10.974  0.00  0.00    +0.000 C 
BRANCH  16  17
ATOM     17  N   UNL     1      44.035   3.408  10.612  0.00  0.00    +0.000 N 
ATOM     18  C   UNL     1      44.875   3.231   9.504  0.00  0.00    +0.000 A 
ATOM     19  C   UNL     1      45.189   1.942   9.086  0.00  0.00    +0.000 A 
ATOM     20  C   UNL     1      46.028   1.771   7.982  0.00  0.00    +0.000 A 
ATOM     21  C   UNL     1      46.542   2.887   7.320  0.00  0.00    +0.000 A 
ATOM     22  C   UNL     1      46.201   4.125   7.825  0.00  0.00    +0.000 A 
ATOM     23  N   UNL     1      45.395   4.314   8.891  0.00  0.00    +0.000 NA
ATOM     24  H   UNL     1      43.159   2.915  10.471  0.00  0.00    +0.000 HD
BRANCH  21  25
ATOM     25  C   UNL     1      47.399   2.711   6.127  0.00  0.00    +0.000 C 
ATOM     26  N   UNL     1      48.733   2.459   6.300  0.00  0.00    +0.000 N 
ATOM     27  O   UNL     1      46.934   2.804   4.998  0.00  0.00    +0.000 OA
ATOM     28  H   UNL     1      49.220   2.376   7.179  0.00  0.00    +0.000 HD
ATOM     29  H   UNL     1      49.286   2.369   5.457  0.00  0.00    +0.000 HD
ENDBRANCH  21  25
ENDBRANCH  16  17
ENDBRANCH   1  16
TORSDOF 6
ENDMDL
MODEL 5
REMARK VINA RESULT:    -6.411      4.454      6.814
REMARK INTER + INTRA:          -9.907
REMARK INTER:                  -8.818
REMARK INTRA:                  -1.088
REMARK UNBOUND:                -1.248
REMARK  Name = 
REMARK  9 active torsions:
REMARK  status: ('A' for Active; 'I' for Inactive)
REMARK    1  A    between atoms: C_1  and  C_2
REMARK    2  A    between atoms: C_4  and  C_5
REMARK    3  A    between atoms: C_5  and  C_6
REMARK    4  A    between atoms: C_5  and  C_7
REMARK    5  A    between atoms: C_7  and  N_8
REMARK    6  A    between atoms: C_12  and  C_13
REMARK    7  A    between atoms: C_19  and  C_20
REMARK    8  A    between atoms: C_21  and  O_22
REMARK    9  A    between atoms: O_22  and  C_23
REMARK                            x       y       z     vdW  Elec       q    Type
REMARK                         _______ _______ _______ _____ _____    ______ ____
ROOT
ATOM      1  C   UNL     1      47.859   3.675  17.281  0.00  0.00    +0.000 C 
ATOM      2  C   UNL     1      47.328   4.971  17.924  0.00  0.00    +0.000 C 
ENDROOT
BRANCH   1   6
ATOM      3  C   UNL     1      52.171   6.089  17.981  0.00  0.00    +0.000 C 
ATOM      4  C   UNL     1      51.522   4.747  17.811  0.00  0.00    +0.000 A 
ATOM      5  C   UNL     1      50.115   4.747  17.671  0.00  0.00    +0.000 A 
ATOM      6  C   UNL     1      49.373   3.579  17.440  0.00  0.00    +0.000 A 
ATOM      7  C   UNL     1      50.075   2.374  17.394  0.00  0.00    +0.000 A 
ATOM      8  C   UNL     1      51.467   2.330  17.563  0.00  0.00    +0.000 A 
ATOM      9  C   UNL     1      52.148   0.986  17.553  0.00  0.00    +0.000 C 
ATOM     10  C   UNL     1      52.202   3.521  17.749  0.00  0.00    +0.000 A 
BRANCH  10  11
ATOM     11  O   UNL     1      53.562   3.325  17.717  0.00  0.00    +0.000 OA
BRANCH  11  12
ATOM     12  C   UNL     1      54.419   3.496  18.859  0.00  0.00    +0.000 C 
ATOM     13  C   UNL     1      55.223   2.212  19.188  0.00  0.00    +0.000 C 
ATOM     14  C   UNL     1      54.828   2.344  20.659  0.00  0.00    +0.000 C 
ATOM     15  C   UNL     1      53.793   3.409  20.268  0.00  0.00    +0.000 C 
ENDBRANCH  11  12
ENDBRANCH  10  11
ENDBRANCH   1   6
BRANCH   1  16
ATOM     16  C   UNL     1      47.307   3.622  15.840  0.00  0.00    +0.000 C 
BRANCH  16  17
ATOM     17  N   UNL     1      47.299   4.935  15.185  0.00  0.00    +0.000 N 
ATOM     18  C   UNL     1      46.613   4.929  13.963  0.00  0.00    +0.000 A 
ATOM     19  C   UNL     1      46.464   6.119  13.260  0.00  0.00    +0.000 A 
ATOM     20  C   UNL     1      45.778   6.108  12.042  0.00  0.00    +0.000 A 
ATOM     21  C   UNL     1      45.250   4.911  11.553  0.00  0.00    +0.000 A 
ATOM     22  C   UNL     1      45.420   3.787  12.335  0.00  0.00    +0.000 A 
ATOM     23  N   UNL     1      46.076   3.775  13.515  0.00  0.00    +0.000 NA
ATOM     24  H   UNL     1      48.226   5.333  15.066  0.00  0.00    +0.000 HD
BRANCH  21  25
ATOM     25  C   UNL     1      44.557   4.887  10.246  0.00  0.00    +0.000 C 
ATOM     26  N   UNL     1      45.303   4.909   9.099  0.00  0.00    +0.000 N 
ATOM     27  O   UNL     1      43.335   4.863  10.183  0.00  0.00    +0.000 OA
ATOM     28  H   UNL     1      46.309   4.943   9.037  0.00  0.00    +0.000 HD
ATOM     29  H   UNL     1      44.787   4.916   8.228  0.00  0.00    +0.000 HD
ENDBRANCH  21  25
ENDBRANCH  16  17
ENDBRANCH   1  16
TORSDOF 6
ENDMDL
MODEL 6
REMARK VINA RESULT:    -6.373      3.587      5.958
REMARK INTER + INTRA:          -9.856
REMARK INTER:                  -8.809
REMARK INTRA:                  -1.047
REMARK UNBOUND:                -1.248
REMARK  Name = 
REMARK  9 active torsions:
REMARK  status: ('A' for Active; 'I' for Inactive)
REMARK    1  A    between atoms: C_1  and  C_2
REMARK    2  A    between atoms: C_4  and  C_5
REMARK    3  A    between atoms: C_5  and  C_6
REMARK    4  A    between atoms: C_5  and  C_7
REMARK    5  A    between atoms: C_7  and  N_8
REMARK    6  A    between atoms: C_12  and  C_13
REMARK    7  A    between atoms: C_19  and  C_20
REMARK    8  A    between atoms: C_21  and  O_22
REMARK    9  A    between atoms: O_22  and  C_23
REMARK                            x       y       z     vdW  Elec       q    Type
REMARK                         _______ _______ _______ _____ _____    ______ ____
ROOT
ATOM      1  C   UNL     1      48.188   4.300  16.419  0.00  0.00    +0.000 C 
ATOM      2  C   UNL     1      48.328   2.909  17.065  0.00  0.00    +0.000 C 
ENDROOT
BRANCH   1   6
ATOM      3  C   UNL     1      49.861   8.862  17.557  0.00  0.00    +0.000 C 
ATOM      4  C   UNL     1      49.110   7.664  18.057  0.00  0.00    +0.000 A 
ATOM      5  C   UNL     1      48.937   6.606  17.135  0.00  0.00    +0.000 A 
ATOM      6  C   UNL     1      48.314   5.396  17.473  0.00  0.00    +0.000 A 
ATOM      7  C   UNL     1      47.814   5.275  18.770  0.00  0.00    +0.000 A 
ATOM      8  C   UNL     1      47.935   6.316  19.702  0.00  0.00    +0.000 A 
ATOM      9  C   UNL     1      47.324   6.129  21.068  0.00  0.00    +0.000 C 
ATOM     10  C   UNL     1      48.607   7.509  19.357  0.00  0.00    +0.000 A 
BRANCH  10  11
ATOM     11  O   UNL     1      48.798   8.348  20.429  0.00  0.00    +0.000 OA
BRANCH  11  12
ATOM     12  C   UNL     1      48.144   9.621  20.570  0.00  0.00    +0.000 C 
ATOM     13  C   UNL     1      47.384   9.745  21.916  0.00  0.00    +0.000 C 
ATOM     14  C   UNL     1      46.156  10.269  21.171  0.00  0.00    +0.000 C 
ATOM     15  C   UNL     1      46.800   9.843  19.844  0.00  0.00    +0.000 C 
ENDBRANCH  11  12
ENDBRANCH  10  11
ENDBRANCH   1   6
BRANCH   1  16
ATOM     16  C   UNL     1      46.889   4.286  15.585  0.00  0.00    +0.000 C 
BRANCH  16  17
ATOM     17  N   UNL     1      46.879   5.306  14.529  0.00  0.00    +0.000 N 
ATOM     18  C   UNL     1      46.236   4.874  13.361  0.00  0.00    +0.000 A 
ATOM     19  C   UNL     1      46.090   5.757  12.298  0.00  0.00    +0.000 A 
ATOM     20  C   UNL     1      45.446   5.322  11.136  0.00  0.00    +0.000 A 
ATOM     21  C   UNL     1      44.958   4.016  11.060  0.00  0.00    +0.000 A 
ATOM     22  C   UNL     1      45.122   3.221  12.176  0.00  0.00    +0.000 A 
ATOM     23  N   UNL     1      45.737   3.622  13.309  0.00  0.00    +0.000 NA
ATOM     24  H   UNL     1      47.802   5.668  14.309  0.00  0.00    +0.000 HD
BRANCH  21  25
ATOM     25  C   UNL     1      44.311   3.539   9.818  0.00  0.00    +0.000 C 
ATOM     26  N   UNL     1      43.977   4.448   8.851  0.00  0.00    +0.000 N 
ATOM     27  O   UNL     1      44.060   2.351   9.655  0.00  0.00    +0.000 OA
ATOM     28  H   UNL     1      44.126   5.446   8.888  0.00  0.00    +0.000 HD
ATOM     29  H   UNL     1      43.515   4.081   8.030  0.00  0.00    +0.000 HD
ENDBRANCH  21  25
ENDBRANCH  16  17
ENDBRANCH   1  16
TORSDOF 6
ENDMDL
MODEL 7
REMARK VINA RESULT:    -6.291      4.279      8.688
REMARK INTER + INTRA:          -9.746
REMARK INTER:                  -8.466
REMARK INTRA:                  -1.280
REMARK UNBOUND:                -1.248
REMARK  Name = 
REMARK  9 active torsions:
REMARK  status: ('A' for Active; 'I' for Inactive)
REMARK    1  A    between atoms: C_1  and  C_2
REMARK    2  A    between atoms: C_4  and  C_5
REMARK    3  A    between atoms: C_5  and  C_6
REMARK    4  A    between atoms: C_5  and  C_7
REMARK    5  A    between atoms: C_7  and  N_8
REMARK    6  A    between atoms: C_12  and  C_13
REMARK    7  A    between atoms: C_19  and  C_20
REMARK    8  A    between atoms: C_21  and  O_22
REMARK    9  A    between atoms: O_22  and  C_23
REMARK                            x       y       z     vdW  Elec       q    Type
REMARK                         _______ _______ _______ _____ _____    ______ ____
ROOT
ATOM      1  C   UNL     1      49.523   7.589  12.842  0.00  0.00    +0.000 C 
ATOM      2  C   UNL     1      49.855   8.666  11.791  0.00  0.00    +0.000 C 
ENDROOT
BRANCH   1   6
ATOM      3  C   UNL     1      46.269   3.847  13.401  0.00  0.00    +0.000 C 
ATOM      4  C   UNL     1      46.448   5.269  12.963  0.00  0.00    +0.000 A 
ATOM      5  C   UNL     1      47.749   5.806  13.099  0.00  0.00    +0.000 A 
ATOM      6  C   UNL     1      48.088   7.099  12.673  0.00  0.00    +0.000 A 
ATOM      7  C   UNL     1      47.067   7.883  12.134  0.00  0.00    +0.000 A 
ATOM      8  C   UNL     1      45.757   7.398  12.015  0.00  0.00    +0.000 A 
ATOM      9  C   UNL     1      44.698   8.322  11.471  0.00  0.00    +0.000 C 
ATOM     10  C   UNL     1      45.445   6.078  12.407  0.00  0.00    +0.000 A 
BRANCH  10  11
ATOM     11  O   UNL     1      44.170   5.699  12.058  0.00  0.00    +0.000 OA
BRANCH  11  12
ATOM     12  C   UNL     1      43.849   5.010  10.838  0.00  0.00    +0.000 C 
ATOM     13  C   UNL     1      43.554   3.506  11.072  0.00  0.00    +0.000 C 
ATOM     14  C   UNL     1      44.484   3.145   9.914  0.00  0.00    +0.000 C 
ATOM     15  C   UNL     1      45.004   4.590   9.904  0.00  0.00    +0.000 C 
ENDBRANCH  11  12
ENDBRANCH  10  11
ENDBRANCH   1   6
BRANCH   1  16
ATOM     16  C   UNL     1      49.901   8.168  14.222  0.00  0.00    +0.000 C 
BRANCH  16  17
ATOM     17  N   UNL     1      50.848   7.321  14.955  0.00  0.00    +0.000 N 
ATOM     18  C   UNL     1      50.277   6.714  16.082  0.00  0.00    +0.000 A 
ATOM     19  C   UNL     1      51.037   5.828  16.837  0.00  0.00    +0.000 A 
ATOM     20  C   UNL     1      50.462   5.225  17.959  0.00  0.00    +0.000 A 
ATOM     21  C   UNL     1      49.140   5.514  18.303  0.00  0.00    +0.000 A 
ATOM     22  C   UNL     1      48.455   6.381  17.476  0.00  0.00    +0.000 A 
ATOM     23  N   UNL     1      48.989   6.972  16.387  0.00  0.00    +0.000 NA
ATOM     24  H   UNL     1      51.706   7.800  15.210  0.00  0.00    +0.000 HD
BRANCH  21  25
ATOM     25  C   UNL     1      48.540   4.908  19.512  0.00  0.00    +0.000 C 
ATOM     26  N   UNL     1      48.575   3.548  19.660  0.00  0.00    +0.000 N 
ATOM     27  O   UNL     1      48.004   5.604  20.365  0.00  0.00    +0.000 OA
ATOM     28  H   UNL     1      48.976   2.884  19.015  0.00  0.00    +0.000 HD
ATOM     29  H   UNL     1      48.131   3.175  20.489  0.00  0.00    +0.000 HD
ENDBRANCH  21  25
ENDBRANCH  16  17
ENDBRANCH   1  16
TORSDOF 6
ENDMDL
MODEL 8
REMARK VINA RESULT:    -6.262      4.323      8.594
REMARK INTER + INTRA:          -9.706
REMARK INTER:                  -8.389
REMARK INTRA:                  -1.317
REMARK UNBOUND:                -1.248
REMARK  Name = 
REMARK  9 active torsions:
REMARK  status: ('A' for Active; 'I' for Inactive)
REMARK    1  A    between atoms: C_1  and  C_2
REMARK    2  A    between atoms: C_4  and  C_5
REMARK    3  A    between atoms: C_5  and  C_6
REMARK    4  A    between atoms: C_5  and  C_7
REMARK    5  A    between atoms: C_7  and  N_8
REMARK    6  A    between atoms: C_12  and  C_13
REMARK    7  A    between atoms: C_19  and  C_20
REMARK    8  A    between atoms: C_21  and  O_22
REMARK    9  A    between atoms: O_22  and  C_23
REMARK                            x       y       z     vdW  Elec       q    Type
REMARK                         _______ _______ _______ _____ _____    ______ ____
ROOT
ATOM      1  C   UNL     1      49.189   7.939  13.005  0.00  0.00    +0.000 C 
ATOM      2  C   UNL     1      48.940   9.460  12.990  0.00  0.00    +0.000 C 
ENDROOT
BRANCH   1   6
ATOM      3  C   UNL     1      44.494   8.040  11.315  0.00  0.00    +0.000 C 
ATOM      4  C   UNL     1      45.560   7.193  11.944  0.00  0.00    +0.000 A 
ATOM      5  C   UNL     1      46.809   7.820  12.160  0.00  0.00    +0.000 A 
ATOM      6  C   UNL     1      47.883   7.179  12.797  0.00  0.00    +0.000 A 
ATOM      7  C   UNL     1      47.696   5.852  13.186  0.00  0.00    +0.000 A 
ATOM      8  C   UNL     1      46.483   5.186  12.958  0.00  0.00    +0.000 A 
ATOM      9  C   UNL     1      46.375   3.737  13.360  0.00  0.00    +0.000 C 
ATOM     10  C   UNL     1      45.399   5.862  12.356  0.00  0.00    +0.000 A 
BRANCH  10  11
ATOM     11  O   UNL     1      44.234   5.131  12.370  0.00  0.00    +0.000 OA
BRANCH  11  12
ATOM     12  C   UNL     1      43.665   4.518  11.201  0.00  0.00    +0.000 C 
ATOM     13  C   UNL     1      43.616   2.973  11.310  0.00  0.00    +0.000 C 
ATOM     14  C   UNL     1      44.220   2.857   9.910  0.00  0.00    +0.000 C 
ATOM     15  C   UNL     1      44.553   4.356   9.948  0.00  0.00    +0.000 C 
ENDBRANCH  11  12
ENDBRANCH  10  11
ENDBRANCH   1   6
BRANCH   1  16
ATOM     16  C   UNL     1      49.980   7.620  14.291  0.00  0.00    +0.000 C 
BRANCH  16  17
ATOM     17  N   UNL     1      49.361   8.184  15.496  0.00  0.00    +0.000 N 
ATOM     18  C   UNL     1      49.201   7.240  16.519  0.00  0.00    +0.000 A 
ATOM     19  C   UNL     1      48.689   7.645  17.746  0.00  0.00    +0.000 A 
ATOM     20  C   UNL     1      48.534   6.700  18.764  0.00  0.00    +0.000 A 
ATOM     21  C   UNL     1      48.896   5.370  18.539  0.00  0.00    +0.000 A 
ATOM     22  C   UNL     1      49.425   5.068  17.300  0.00  0.00    +0.000 A 
ATOM     23  N   UNL     1      49.587   5.965  16.305  0.00  0.00    +0.000 NA
ATOM     24  H   UNL     1      48.481   8.657  15.314  0.00  0.00    +0.000 HD
BRANCH  21  25
ATOM     25  C   UNL     1      48.697   4.359  19.599  0.00  0.00    +0.000 C 
ATOM     26  N   UNL     1      48.398   3.072  19.242  0.00  0.00    +0.000 N 
ATOM     27  O   UNL     1      48.782   4.662  20.783  0.00  0.00    +0.000 OA
ATOM     28  H   UNL     1      48.292   2.718  18.303  0.00  0.00    +0.000 HD
ATOM     29  H   UNL     1      48.246   2.419  20.000  0.00  0.00    +0.000 HD
ENDBRANCH  21  25
ENDBRANCH  16  17
ENDBRANCH   1  16
TORSDOF 6
ENDMDL
MODEL 9
REMARK VINA RESULT:    -6.033      3.420      5.661
REMARK INTER + INTRA:          -9.397
REMARK INTER:                  -8.251
REMARK INTRA:                  -1.146
REMARK UNBOUND:                -1.248
REMARK  Name = 
REMARK  9 active torsions:
REMARK  status: ('A' for Active; 'I' for Inactive)
REMARK    1  A    between atoms: C_1  and  C_2
REMARK    2  A    between atoms: C_4  and  C_5
REMARK    3  A    between atoms: C_5  and  C_6
REMARK    4  A    between atoms: C_5  and  C_7
REMARK    5  A    between atoms: C_7  and  N_8
REMARK    6  A    between atoms: C_12  and  C_13
REMARK    7  A    between atoms: C_19  and  C_20
REMARK    8  A    between atoms: C_21  and  O_22
REMARK    9  A    between atoms: O_22  and  C_23
REMARK                            x       y       z     vdW  Elec       q    Type
REMARK                         _______ _______ _______ _____ _____    ______ ____
ROOT
ATOM      1  C   UNL     1      48.908   7.844  13.903  0.00  0.00    +0.000 C 
ATOM      2  C   UNL     1      49.631   7.301  12.656  0.00  0.00    +0.000 C 
ENDROOT
BRANCH   1   6
ATOM      3  C   UNL     1      47.379   4.377  17.151  0.00  0.00    +0.000 C 
ATOM      4  C   UNL     1      48.517   5.261  16.736  0.00  0.00    +0.000 A 
ATOM      5  C   UNL     1      48.296   6.071  15.599  0.00  0.00    +0.000 A 
ATOM      6  C   UNL     1      49.239   6.996  15.128  0.00  0.00    +0.000 A 
ATOM      7  C   UNL     1      50.457   7.068  15.804  0.00  0.00    +0.000 A 
ATOM      8  C   UNL     1      50.727   6.256  16.916  0.00  0.00    +0.000 A 
ATOM      9  C   UNL     1      52.085   6.355  17.562  0.00  0.00    +0.000 C 
ATOM     10  C   UNL     1      49.748   5.364  17.403  0.00  0.00    +0.000 A 
BRANCH  10  11
ATOM     11  O   UNL     1      50.098   4.779  18.596  0.00  0.00    +0.000 OA
BRANCH  11  12
ATOM     12  C   UNL     1      49.754   5.324  19.882  0.00  0.00    +0.000 C 
ATOM     13  C   UNL     1      48.674   4.481  20.608  0.00  0.00    +0.000 C 
ATOM     14  C   UNL     1      47.891   5.757  20.919  0.00  0.00    +0.000 C 
ATOM     15  C   UNL     1      48.787   6.526  19.937  0.00  0.00    +0.000 C 
ENDBRANCH  11  12
ENDBRANCH  10  11
ENDBRANCH   1   6
BRANCH   1  16
ATOM     16  C   UNL     1      47.414   7.983  13.539  0.00  0.00    +0.000 C 
BRANCH  16  17
ATOM     17  N   UNL     1      47.144   7.705  12.124  0.00  0.00    +0.000 N 
ATOM     18  C   UNL     1      46.367   6.555  11.933  0.00  0.00    +0.000 A 
ATOM     19  C   UNL     1      45.973   6.204  10.647  0.00  0.00    +0.000 A 
ATOM     20  C   UNL     1      45.197   5.057  10.462  0.00  0.00    +0.000 A 
ATOM     21  C   UNL     1      44.824   4.286  11.565  0.00  0.00    +0.000 A 
ATOM     22  C   UNL     1      45.234   4.729  12.806  0.00  0.00    +0.000 A 
ATOM     23  N   UNL     1      45.981   5.835  13.007  0.00  0.00    +0.000 NA
ATOM     24  H   UNL     1      47.983   7.661  11.554  0.00  0.00    +0.000 HD
BRANCH  21  25
ATOM     25  C   UNL     1      44.035   3.050  11.371  0.00  0.00    +0.000 C 
ATOM     26  N   UNL     1      43.677   2.312  12.467  0.00  0.00    +0.000 N 
ATOM     27  O   UNL     1      43.715   2.676  10.250  0.00  0.00    +0.000 OA
ATOM     28  H   UNL     1      43.897   2.519  13.429  0.00  0.00    +0.000 HD
ATOM     29  H   UNL     1      43.158   1.462  12.286  0.00  0.00    +0.000 HD
ENDBRANCH  21  25
ENDBRANCH  16  17
ENDBRANCH   1  16
TORSDOF 6
ENDMDL
