MODEL 1
REMARK VINA RESULT:    -7.414      0.000      0.000
REMARK INTER + INTRA:         -11.278
REMARK INTER:                 -10.014
REMARK INTRA:                  -1.263
REMARK UNBOUND:                -1.263
REMARK  Name = 
REMARK  7 active torsions:
REMARK  status: ('A' for Active; 'I' for Inactive)
REMARK    1  A    between atoms: C_1  and  C_2
REMARK    2  A    between atoms: C_2  and  N_3
REMARK    3  A    between atoms: C_2  and  C_16
REMARK    4  A    between atoms: C_4  and  C_6
REMARK    5  A    between atoms: C_19  and  C_20
REMARK    6  A    between atoms: C_20  and  N_21
REMARK    7  A    between atoms: C_22  and  C_24
REMARK                            x       y       z     vdW  Elec       q    Type
REMARK                         _______ _______ _______ _____ _____    ______ ____
ROOT
ATOM      1  C   UNL     1      47.786   8.545  13.339  0.00  0.00    +0.000 A 
ATOM      2  C   UNL     1      48.206   7.484  12.519  0.00  0.00    +0.000 A 
ATOM      3  C   UNL     1      47.300   6.799  11.702  0.00  0.00    +0.000 A 
ATOM      4  C   UNL     1      45.952   7.173  11.664  0.00  0.00    +0.000 A 
ATOM      5  C   UNL     1      45.534   8.252  12.453  0.00  0.00    +0.000 A 
ATOM      6  C   UNL     1      46.442   8.940  13.269  0.00  0.00    +0.000 A 
ENDROOT
BRANCH   1   8
ATOM      7  C   UNL     1      50.073   9.672  13.571  0.00  0.00    +0.000 C 
ATOM      8  C   UNL     1      48.796   9.196  14.272  0.00  0.00    +0.000 C 
BRANCH   8   9
ATOM      9  N   UNL     1      49.106   8.328  15.394  0.00  0.00    +0.000 N 
ATOM     10  C   UNL     1      48.539   8.536  16.630  0.00  0.00    +0.000 C 
ATOM     11  O   UNL     1      47.737   9.445  16.832  0.00  0.00    +0.000 OA
ATOM     12  H   UNL     1      49.896   7.697  15.301  0.00  0.00    +0.000 HD
BRANCH  10  13
ATOM     13  C   UNL     1      48.875   7.583  17.696  0.00  0.00    +0.000 A 
ATOM     14  C   UNL     1      49.294   8.066  18.928  0.00  0.00    +0.000 A 
ATOM     15  S   UNL     1      49.631   6.843  20.067  0.00  0.00    +0.000 S 
ATOM     16  C   UNL     1      49.280   5.622  18.936  0.00  0.00    +0.000 A 
ATOM     17  N   UNL     1      49.417   4.308  19.264  0.00  0.00    +0.000 NA
ATOM     18  C   UNL     1      49.159   3.491  18.300  0.00  0.00    +0.000 A 
ATOM     19  N   UNL     1      48.765   3.867  17.040  0.00  0.00    +0.000 N 
ATOM     20  C   UNL     1      48.567   5.180  16.678  0.00  0.00    +0.000 A 
ATOM     21  O   UNL     1      48.140   5.481  15.566  0.00  0.00    +0.000 OA
ATOM     22  C   UNL     1      48.880   6.142  17.716  0.00  0.00    +0.000 A 
ATOM     23  H   UNL     1      48.563   3.172  16.337  0.00  0.00    +0.000 HD
ENDBRANCH  10  13
ENDBRANCH   8   9
ENDBRANCH   1   8
BRANCH   4  24
ATOM     24  C   UNL     1      44.970   6.406  10.816  0.00  0.00    +0.000 C 
BRANCH  24  25
ATOM     25  N   UNL     1      45.632   5.415   9.996  0.00  0.00    +0.000 N 
ATOM     26  C   UNL     1      44.887   4.572   9.190  0.00  0.00    +0.000 C 
ATOM     27  O   UNL     1      43.663   4.619   9.150  0.00  0.00    +0.000 OA
ATOM     28  H   UNL     1      46.635   5.474   9.889  0.00  0.00    +0.000 HD
BRANCH  26  29
ATOM     29  C   UNL     1      45.648   3.561   8.401  0.00  0.00    +0.000 A 
ATOM     30  C   UNL     1      46.619   4.010   7.486  0.00  0.00    +0.000 A 
ATOM     31  C   UNL     1      47.418   3.101   6.788  0.00  0.00    +0.000 A 
ATOM     32  C   UNL     1      47.271   1.735   7.005  0.00  0.00    +0.000 A 
ATOM     33  C   UNL     1      46.311   1.275   7.906  0.00  0.00    +0.000 A 
ATOM     34  C   UNL     1      45.494   2.180   8.601  0.00  0.00    +0.000 A 
ATOM     35 CL   UNL     1      44.294   1.490   9.638  0.00  0.00    +0.000 Cl
ENDBRANCH  26  29
ENDBRANCH  24  25
ENDBRANCH   4  24
TORSDOF 6
ENDMDL
MODEL 2
REMARK VINA RESULT:    -7.195      2.078      3.590
REMARK INTER + INTRA:         -10.981
REMARK INTER:                  -9.862
REMARK INTRA:                  -1.119
REMARK UNBOUND:                -1.263
REMARK  Name = 
REMARK  7 active torsions:
REMARK  status: ('A' for Active; 'I' for Inactive)
REMARK    1  A    between atoms: C_1  and  C_2
REMARK    2  A    between atoms: C_2  and  N_3
REMARK    3  A    between atoms: C_2  and  C_16
REMARK    4  A    between atoms: C_4  and  C_6
REMARK    5  A    between atoms: C_19  and  C_20
REMARK    6  A    between atoms: C_20  and  N_21
REMARK    7  A    between atoms: C_22  and  C_24
REMARK                            x       y       z     vdW  Elec       q    Type
REMARK                         _______ _______ _______ _____ _____    ______ ____
ROOT
ATOM      1  C   UNL     1      47.417   5.249  14.712  0.00  0.00    +0.000 A 
ATOM      2  C   UNL     1      46.438   4.405  14.162  0.00  0.00    +0.000 A 
ATOM      3  C   UNL     1      45.837   4.698  12.934  0.00  0.00    +0.000 A 
ATOM      4  C   UNL     1      46.218   5.832  12.208  0.00  0.00    +0.000 A 
ATOM      5  C   UNL     1      47.218   6.659  12.733  0.00  0.00    +0.000 A 
ATOM      6  C   UNL     1      47.822   6.364  13.963  0.00  0.00    +0.000 A 
ENDROOT
BRANCH   1   8
ATOM      7  C   UNL     1      47.546   3.561  16.632  0.00  0.00    +0.000 C 
ATOM      8  C   UNL     1      47.973   4.929  16.091  0.00  0.00    +0.000 C 
BRANCH   8   9
ATOM      9  N   UNL     1      47.665   5.987  17.037  0.00  0.00    +0.000 N 
ATOM     10  C   UNL     1      48.557   6.341  18.022  0.00  0.00    +0.000 C 
ATOM     11  O   UNL     1      49.653   5.797  18.131  0.00  0.00    +0.000 OA
ATOM     12  H   UNL     1      46.706   6.317  17.084  0.00  0.00    +0.000 HD
BRANCH  10  13
ATOM     13  C   UNL     1      48.182   7.452  18.906  0.00  0.00    +0.000 A 
ATOM     14  C   UNL     1      47.980   7.203  20.257  0.00  0.00    +0.000 A 
ATOM     15  S   UNL     1      47.565   8.591  21.156  0.00  0.00    +0.000 S 
ATOM     16  C   UNL     1      47.588   9.564  19.762  0.00  0.00    +0.000 A 
ATOM     17  N   UNL     1      47.270  10.886  19.830  0.00  0.00    +0.000 NA
ATOM     18  C   UNL     1      47.286  11.495  18.693  0.00  0.00    +0.000 A 
ATOM     19  N   UNL     1      47.602  10.906  17.495  0.00  0.00    +0.000 N 
ATOM     20  C   UNL     1      47.977   9.586  17.386  0.00  0.00    +0.000 A 
ATOM     21  O   UNL     1      48.329   9.106  16.311  0.00  0.00    +0.000 OA
ATOM     22  C   UNL     1      47.939   8.846  18.631  0.00  0.00    +0.000 A 
ATOM     23  H   UNL     1      47.611  11.447  16.644  0.00  0.00    +0.000 HD
ENDBRANCH  10  13
ENDBRANCH   8   9
ENDBRANCH   1   8
BRANCH   4  24
ATOM     24  C   UNL     1      45.539   6.168  10.905  0.00  0.00    +0.000 C 
BRANCH  24  25
ATOM     25  N   UNL     1      46.033   5.352   9.818  0.00  0.00    +0.000 N 
ATOM     26  C   UNL     1      45.189   4.459   9.180  0.00  0.00    +0.000 C 
ATOM     27  O   UNL     1      44.019   4.314   9.514  0.00  0.00    +0.000 OA
ATOM     28  H   UNL     1      46.936   5.576   9.423  0.00  0.00    +0.000 HD
BRANCH  26  29
ATOM     29  C   UNL     1      45.789   3.637   8.091  0.00  0.00    +0.000 A 
ATOM     30  C   UNL     1      46.523   4.288   7.081  0.00  0.00    +0.000 A 
ATOM     31  C   UNL     1      47.178   3.555   6.088  0.00  0.00    +0.000 A 
ATOM     32  C   UNL     1      47.123   2.165   6.098  0.00  0.00    +0.000 A 
ATOM     33  C   UNL     1      46.397   1.506   7.090  0.00  0.00    +0.000 A 
ATOM     34  C   UNL     1      45.724   2.234   8.084  0.00  0.00    +0.000 A 
ATOM     35 CL   UNL     1      44.801   1.313   9.219  0.00  0.00    +0.000 Cl
ENDBRANCH  26  29
ENDBRANCH  24  25
ENDBRANCH   4  24
TORSDOF 6
ENDMDL
MODEL 3
REMARK VINA RESULT:    -6.908      4.657      6.920
REMARK INTER + INTRA:         -10.595
REMARK INTER:                  -9.860
REMARK INTRA:                  -0.735
REMARK UNBOUND:                -1.263
REMARK  Name = 
REMARK  7 active torsions:
REMARK  status: ('A' for Active; 'I' for Inactive)
REMARK    1  A    between atoms: C_1  and  C_2
REMARK    2  A    between atoms: C_2  and  N_3
REMARK    3  A    between atoms: C_2  and  C_16
REMARK    4  A    between atoms: C_4  and  C_6
REMARK    5  A    between atoms: C_19  and  C_20
REMARK    6  A    between atoms: C_20  and  N_21
REMARK    7  A    between atoms: C_22  and  C_24
REMARK                            x       y       z     vdW  Elec       q    Type
REMARK                         _______ _______ _______ _____ _____    ______ ____
ROOT
ATOM      1  C   UNL     1      45.446   6.412  12.455  0.00  0.00    +0.000 A 
ATOM      2  C   UNL     1      44.309   6.491  11.634  0.00  0.00    +0.000 A 
ATOM      3  C   UNL     1      43.829   7.724  11.178  0.00  0.00    +0.000 A 
ATOM      4  C   UNL     1      44.490   8.911  11.511  0.00  0.00    +0.000 A 
ATOM      5  C   UNL     1      45.645   8.837  12.300  0.00  0.00    +0.000 A 
ATOM      6  C   UNL     1      46.126   7.602  12.754  0.00  0.00    +0.000 A 
ENDROOT
BRANCH   1   8
ATOM      7  C   UNL     1      44.760   3.999  12.966  0.00  0.00    +0.000 C 
ATOM      8  C   UNL     1      45.871   5.054  12.993  0.00  0.00    +0.000 C 
BRANCH   8   9
ATOM      9  N   UNL     1      46.448   5.176  14.320  0.00  0.00    +0.000 N 
ATOM     10  C   UNL     1      47.187   4.154  14.869  0.00  0.00    +0.000 C 
ATOM     11  O   UNL     1      47.407   3.112  14.258  0.00  0.00    +0.000 OA
ATOM     12  H   UNL     1      46.128   5.939  14.908  0.00  0.00    +0.000 HD
BRANCH  10  13
ATOM     13  C   UNL     1      47.771   4.381  16.197  0.00  0.00    +0.000 A 
ATOM     14  C   UNL     1      47.412   3.545  17.246  0.00  0.00    +0.000 A 
ATOM     15  S   UNL     1      48.182   3.922  18.719  0.00  0.00    +0.000 S 
ATOM     16  C   UNL     1      48.982   5.251  18.021  0.00  0.00    +0.000 A 
ATOM     17  N   UNL     1      49.787   6.052  18.771  0.00  0.00    +0.000 NA
ATOM     18  C   UNL     1      50.296   7.046  18.125  0.00  0.00    +0.000 A 
ATOM     19  N   UNL     1      50.082   7.307  16.794  0.00  0.00    +0.000 N 
ATOM     20  C   UNL     1      49.316   6.497  15.987  0.00  0.00    +0.000 A 
ATOM     21  O   UNL     1      49.206   6.712  14.782  0.00  0.00    +0.000 OA
ATOM     22  C   UNL     1      48.690   5.385  16.673  0.00  0.00    +0.000 A 
ATOM     23  H   UNL     1      50.526   8.094  16.348  0.00  0.00    +0.000 HD
ENDBRANCH  10  13
ENDBRANCH   8   9
ENDBRANCH   1   8
BRANCH   4  24
ATOM     24  C   UNL     1      43.947  10.241  11.054  0.00  0.00    +0.000 C 
BRANCH  24  25
ATOM     25  N   UNL     1      42.501  10.254  11.044  0.00  0.00    +0.000 N 
ATOM     26  C   UNL     1      41.811  11.302  11.628  0.00  0.00    +0.000 C 
ATOM     27  O   UNL     1      42.385  12.233  12.181  0.00  0.00    +0.000 OA
ATOM     28  H   UNL     1      42.020   9.589  10.453  0.00  0.00    +0.000 HD
BRANCH  26  29
ATOM     29  C   UNL     1      40.323  11.219  11.598  0.00  0.00    +0.000 A 
ATOM     30  C   UNL     1      39.700  10.678  10.457  0.00  0.00    +0.000 A 
ATOM     31  C   UNL     1      38.315  10.498  10.416  0.00  0.00    +0.000 A 
ATOM     32  C   UNL     1      37.536  10.840  11.517  0.00  0.00    +0.000 A 
ATOM     33  C   UNL     1      38.139  11.380  12.653  0.00  0.00    +0.000 A 
ATOM     34  C   UNL     1      39.527  11.577  12.698  0.00  0.00    +0.000 A 
ATOM     35 CL   UNL     1      40.152  12.318  14.131  0.00  0.00    +0.000 Cl
ENDBRANCH  26  29
ENDBRANCH  24  25
ENDBRANCH   4  24
TORSDOF 6
ENDMDL
MODEL 4
REMARK VINA RESULT:    -6.871      1.834      2.274
REMARK INTER + INTRA:         -10.544
REMARK INTER:                  -9.606
REMARK INTRA:                  -0.938
REMARK UNBOUND:                -1.263
REMARK  Name = 
REMARK  7 active torsions:
REMARK  status: ('A' for Active; 'I' for Inactive)
REMARK    1  A    between atoms: C_1  and  C_2
REMARK    2  A    between atoms: C_2  and  N_3
REMARK    3  A    between atoms: C_2  and  C_16
REMARK    4  A    between atoms: C_4  and  C_6
REMARK    5  A    between atoms: C_19  and  C_20
REMARK    6  A    between atoms: C_20  and  N_21
REMARK    7  A    between atoms: C_22  and  C_24
REMARK                            x       y       z     vdW  Elec       q    Type
REMARK                         _______ _______ _______ _____ _____    ______ ____
ROOT
ATOM      1  C   UNL     1      48.060   7.699  14.463  0.00  0.00    +0.000 A 
ATOM      2  C   UNL     1      47.238   8.742  14.005  0.00  0.00    +0.000 A 
ATOM      3  C   UNL     1      46.301   8.532  12.987  0.00  0.00    +0.000 A 
ATOM      4  C   UNL     1      46.142   7.265  12.417  0.00  0.00    +0.000 A 
ATOM      5  C   UNL     1      46.934   6.212  12.893  0.00  0.00    +0.000 A 
ATOM      6  C   UNL     1      47.871   6.422  13.914  0.00  0.00    +0.000 A 
ENDROOT
BRANCH   1   8
ATOM      7  C   UNL     1      50.435   7.244  15.302  0.00  0.00    +0.000 C 
ATOM      8  C   UNL     1      49.121   8.004  15.509  0.00  0.00    +0.000 C 
BRANCH   8   9
ATOM      9  N   UNL     1      48.605   7.803  16.851  0.00  0.00    +0.000 N 
ATOM     10  C   UNL     1      48.952   8.647  17.879  0.00  0.00    +0.000 C 
ATOM     11  O   UNL     1      49.692   9.612  17.705  0.00  0.00    +0.000 OA
ATOM     12  H   UNL     1      48.150   6.919  17.056  0.00  0.00    +0.000 HD
BRANCH  10  13
ATOM     13  C   UNL     1      48.347   8.396  19.194  0.00  0.00    +0.000 A 
ATOM     14  C   UNL     1      47.845   9.465  19.923  0.00  0.00    +0.000 A 
ATOM     15  S   UNL     1      47.161   9.015  21.419  0.00  0.00    +0.000 S 
ATOM     16  C   UNL     1      47.560   7.381  21.168  0.00  0.00    +0.000 A 
ATOM     17  N   UNL     1      47.285   6.443  22.116  0.00  0.00    +0.000 NA
ATOM     18  C   UNL     1      47.679   5.253  21.814  0.00  0.00    +0.000 A 
ATOM     19  N   UNL     1      48.313   4.911  20.646  0.00  0.00    +0.000 N 
ATOM     20  C   UNL     1      48.568   5.815  19.640  0.00  0.00    +0.000 A 
ATOM     21  O   UNL     1      49.067   5.465  18.574  0.00  0.00    +0.000 OA
ATOM     22  C   UNL     1      48.178   7.177  19.945  0.00  0.00    +0.000 A 
ATOM     23  H   UNL     1      48.579   3.954  20.468  0.00  0.00    +0.000 HD
ENDBRANCH  10  13
ENDBRANCH   8   9
ENDBRANCH   1   8
BRANCH   4  24
ATOM     24  C   UNL     1      45.163   7.051  11.292  0.00  0.00    +0.000 C 
BRANCH  24  25
ATOM     25  N   UNL     1      45.606   6.014  10.386  0.00  0.00    +0.000 N 
ATOM     26  C   UNL     1      44.734   5.015   9.994  0.00  0.00    +0.000 C 
ATOM     27  O   UNL     1      43.580   4.957  10.402  0.00  0.00    +0.000 OA
ATOM     28  H   UNL     1      46.491   6.138   9.912  0.00  0.00    +0.000 HD
BRANCH  26  29
ATOM     29  C   UNL     1      45.283   3.970   9.082  0.00  0.00    +0.000 A 
ATOM     30  C   UNL     1      46.115   4.372   8.020  0.00  0.00    +0.000 A 
ATOM     31  C   UNL     1      46.725   3.427   7.191  0.00  0.00    +0.000 A 
ATOM     32  C   UNL     1      46.525   2.069   7.420  0.00  0.00    +0.000 A 
ATOM     33  C   UNL     1      45.701   1.656   8.467  0.00  0.00    +0.000 A 
ATOM     34  C   UNL     1      45.073   2.599   9.296  0.00  0.00    +0.000 A 
ATOM     35 CL   UNL     1      44.020   1.970  10.514  0.00  0.00    +0.000 Cl
ENDBRANCH  26  29
ENDBRANCH  24  25
ENDBRANCH   4  24
TORSDOF 6
ENDMDL
MODEL 5
REMARK VINA RESULT:    -6.844      4.578      6.951
REMARK INTER + INTRA:         -10.508
REMARK INTER:                  -9.578
REMARK INTRA:                  -0.930
REMARK UNBOUND:                -1.263
REMARK  Name = 
REMARK  7 active torsions:
REMARK  status: ('A' for Active; 'I' for Inactive)
REMARK    1  A    between atoms: C_1  and  C_2
REMARK    2  A    between atoms: C_2  and  N_3
REMARK    3  A    between atoms: C_2  and  C_16
REMARK    4  A    between atoms: C_4  and  C_6
REMARK    5  A    between atoms: C_19  and  C_20
REMARK    6  A    between atoms: C_20  and  N_21
REMARK    7  A    between atoms: C_22  and  C_24
REMARK                            x       y       z     vdW  Elec       q    Type
REMARK                         _______ _______ _______ _____ _____    ______ ____
ROOT
ATOM      1  C   UNL     1      45.619   7.083  12.459  0.00  0.00    +0.000 A 
ATOM      2  C   UNL     1      44.591   7.107  11.502  0.00  0.00    +0.000 A 
ATOM      3  C   UNL     1      43.985   8.309  11.120  0.00  0.00    +0.000 A 
ATOM      4  C   UNL     1      44.409   9.525  11.668  0.00  0.00    +0.000 A 
ATOM      5  C   UNL     1      45.457   9.512  12.597  0.00  0.00    +0.000 A 
ATOM      6  C   UNL     1      46.065   8.308  12.977  0.00  0.00    +0.000 A 
ENDROOT
BRANCH   1   8
ATOM      7  C   UNL     1      45.174   4.589  12.822  0.00  0.00    +0.000 C 
ATOM      8  C   UNL     1      46.181   5.741  12.900  0.00  0.00    +0.000 C 
BRANCH   8   9
ATOM      9  N   UNL     1      46.773   5.832  14.223  0.00  0.00    +0.000 N 
ATOM     10  C   UNL     1      48.125   6.025  14.385  0.00  0.00    +0.000 C 
ATOM     11  O   UNL     1      48.882   6.150  13.425  0.00  0.00    +0.000 OA
ATOM     12  H   UNL     1      46.206   5.549  15.016  0.00  0.00    +0.000 HD
BRANCH  10  13
ATOM     13  C   UNL     1      48.630   6.150  15.758  0.00  0.00    +0.000 A 
ATOM     14  C   UNL     1      49.471   7.209  16.076  0.00  0.00    +0.000 A 
ATOM     15  S   UNL     1      49.961   7.229  17.709  0.00  0.00    +0.000 S 
ATOM     16  C   UNL     1      49.111   5.794  18.036  0.00  0.00    +0.000 A 
ATOM     17  N   UNL     1      49.152   5.226  19.272  0.00  0.00    +0.000 NA
ATOM     18  C   UNL     1      48.498   4.118  19.370  0.00  0.00    +0.000 A 
ATOM     19  N   UNL     1      47.796   3.531  18.347  0.00  0.00    +0.000 N 
ATOM     20  C   UNL     1      47.686   4.094  17.095  0.00  0.00    +0.000 A 
ATOM     21  O   UNL     1      46.987   3.585  16.222  0.00  0.00    +0.000 OA
ATOM     22  C   UNL     1      48.435   5.323  16.922  0.00  0.00    +0.000 A 
ATOM     23  H   UNL     1      47.291   2.671  18.498  0.00  0.00    +0.000 HD
ENDBRANCH  10  13
ENDBRANCH   8   9
ENDBRANCH   1   8
BRANCH   4  24
ATOM     24  C   UNL     1      43.726  10.813  11.287  0.00  0.00    +0.000 C 
BRANCH  24  25
ATOM     25  N   UNL     1      42.503  11.012  12.035  0.00  0.00    +0.000 N 
ATOM     26  C   UNL     1      41.345  11.396  11.384  0.00  0.00    +0.000 C 
ATOM     27  O   UNL     1      41.311  11.595  10.175  0.00  0.00    +0.000 OA
ATOM     28  H   UNL     1      42.471  10.694  12.994  0.00  0.00    +0.000 HD
BRANCH  26  29
ATOM     29  C   UNL     1      40.140  11.608  12.236  0.00  0.00    +0.000 A 
ATOM     30  C   UNL     1      40.281  12.332  13.435  0.00  0.00    +0.000 A 
ATOM     31  C   UNL     1      39.167  12.633  14.224  0.00  0.00    +0.000 A 
ATOM     32  C   UNL     1      37.899  12.229  13.820  0.00  0.00    +0.000 A 
ATOM     33  C   UNL     1      37.744  11.508  12.636  0.00  0.00    +0.000 A 
ATOM     34  C   UNL     1      38.858  11.189  11.844  0.00  0.00    +0.000 A 
ATOM     35 CL   UNL     1      38.552  10.233  10.437  0.00  0.00    +0.000 Cl
ENDBRANCH  26  29
ENDBRANCH  24  25
ENDBRANCH   4  24
TORSDOF 6
ENDMDL
MODEL 6
REMARK VINA RESULT:    -6.837      2.965      4.106
REMARK INTER + INTRA:         -10.498
REMARK INTER:                  -9.419
REMARK INTRA:                  -1.080
REMARK UNBOUND:                -1.263
REMARK  Name = 
REMARK  7 active torsions:
REMARK  status: ('A' for Active; 'I' for Inactive)
REMARK    1  A    between atoms: C_1  and  C_2
REMARK    2  A    between atoms: C_2  and  N_3
REMARK    3  A    between atoms: C_2  and  C_16
REMARK    4  A    between atoms: C_4  and  C_6
REMARK    5  A    between atoms: C_19  and  C_20
REMARK    6  A    between atoms: C_20  and  N_21
REMARK    7  A    between atoms: C_22  and  C_24
REMARK                            x       y       z     vdW  Elec       q    Type
REMARK                         _______ _______ _______ _____ _____    ______ ____
ROOT
ATOM      1  C   UNL     1      48.612   6.757  16.107  0.00  0.00    +0.000 A 
ATOM      2  C   UNL     1      48.126   5.748  15.259  0.00  0.00    +0.000 A 
ATOM      3  C   UNL     1      47.773   6.024  13.934  0.00  0.00    +0.000 A 
ATOM      4  C   UNL     1      47.922   7.313  13.411  0.00  0.00    +0.000 A 
ATOM      5  C   UNL     1      48.440   8.315  14.241  0.00  0.00    +0.000 A 
ATOM      6  C   UNL     1      48.795   8.038  15.567  0.00  0.00    +0.000 A 
ENDROOT
BRANCH   1   8
ATOM      7  C   UNL     1      48.775   7.615  18.513  0.00  0.00    +0.000 C 
ATOM      8  C   UNL     1      48.897   6.420  17.562  0.00  0.00    +0.000 C 
BRANCH   8   9
ATOM      9  N   UNL     1      50.185   5.765  17.705  0.00  0.00    +0.000 N 
ATOM     10  C   UNL     1      50.315   4.602  18.426  0.00  0.00    +0.000 C 
ATOM     11  O   UNL     1      49.351   4.058  18.960  0.00  0.00    +0.000 OA
ATOM     12  H   UNL     1      51.014   6.287  17.436  0.00  0.00    +0.000 HD
BRANCH  10  13
ATOM     13  C   UNL     1      51.647   3.985  18.480  0.00  0.00    +0.000 A 
ATOM     14  C   UNL     1      52.701   4.699  19.036  0.00  0.00    +0.000 A 
ATOM     15  S   UNL     1      54.178   3.847  19.042  0.00  0.00    +0.000 S 
ATOM     16  C   UNL     1      53.473   2.516  18.253  0.00  0.00    +0.000 A 
ATOM     17  N   UNL     1      54.223   1.432  17.912  0.00  0.00    +0.000 NA
ATOM     18  C   UNL     1      53.572   0.514  17.281  0.00  0.00    +0.000 A 
ATOM     19  N   UNL     1      52.236   0.575  16.970  0.00  0.00    +0.000 N 
ATOM     20  C   UNL     1      51.430   1.628  17.338  0.00  0.00    +0.000 A 
ATOM     21  O   UNL     1      50.222   1.620  17.114  0.00  0.00    +0.000 OA
ATOM     22  C   UNL     1      52.121   2.705  18.018  0.00  0.00    +0.000 A 
ATOM     23  H   UNL     1      51.786  -0.188  16.489  0.00  0.00    +0.000 HD
ENDBRANCH  10  13
ENDBRANCH   8   9
ENDBRANCH   1   8
BRANCH   4  24
ATOM     24  C   UNL     1      47.502   7.617  11.996  0.00  0.00    +0.000 C 
BRANCH  24  25
ATOM     25  N   UNL     1      46.980   6.444  11.329  0.00  0.00    +0.000 N 
ATOM     26  C   UNL     1      45.620   6.320  11.105  0.00  0.00    +0.000 C 
ATOM     27  O   UNL     1      44.818   7.172  11.469  0.00  0.00    +0.000 OA
ATOM     28  H   UNL     1      47.633   5.819  10.877  0.00  0.00    +0.000 HD
BRANCH  26  29
ATOM     29  C   UNL     1      45.166   5.066  10.439  0.00  0.00    +0.000 A 
ATOM     30  C   UNL     1      45.434   4.896   9.067  0.00  0.00    +0.000 A 
ATOM     31  C   UNL     1      45.107   3.703   8.417  0.00  0.00    +0.000 A 
ATOM     32  C   UNL     1      44.525   2.659   9.129  0.00  0.00    +0.000 A 
ATOM     33  C   UNL     1      44.251   2.814  10.488  0.00  0.00    +0.000 A 
ATOM     34  C   UNL     1      44.562   4.014  11.146  0.00  0.00    +0.000 A 
ATOM     35 CL   UNL     1      44.112   4.115  12.812  0.00  0.00    +0.000 Cl
ENDBRANCH  26  29
ENDBRANCH  24  25
ENDBRANCH   4  24
TORSDOF 6
ENDMDL
MODEL 7
REMARK VINA RESULT:    -6.806      2.060      2.374
REMARK INTER + INTRA:         -10.456
REMARK INTER:                  -9.649
REMARK INTRA:                  -0.807
REMARK UNBOUND:                -1.263
REMARK  Name = 
REMARK  7 active torsions:
REMARK  status: ('A' for Active; 'I' for Inactive)
REMARK    1  A    between atoms: C_1  and  C_2
REMARK    2  A    between atoms: C_2  and  N_3
REMARK    3  A    between atoms: C_2  and  C_16
REMARK    4  A    between atoms: C_4  and  C_6
REMARK    5  A    between atoms: C_19  and  C_20
REMARK    6  A    between atoms: C_20  and  N_21
REMARK    7  A    between atoms: C_22  and  C_24
REMARK                            x       y       z     vdW  Elec       q    Type
REMARK                         _______ _______ _______ _____ _____    ______ ____
ROOT
ATOM      1  C   UNL     1      49.351   8.705  12.795  0.00  0.00    +0.000 A 
ATOM      2  C   UNL     1      49.006   7.534  12.100  0.00  0.00    +0.000 A 
ATOM      3  C   UNL     1      47.678   7.262  11.755  0.00  0.00    +0.000 A 
ATOM      4  C   UNL     1      46.660   8.167  12.073  0.00  0.00    +0.000 A 
ATOM      5  C   UNL     1      47.001   9.353  12.734  0.00  0.00    +0.000 A 
ATOM      6  C   UNL     1      48.332   9.627  13.078  0.00  0.00    +0.000 A 
ENDROOT
BRANCH   1   8
ATOM      7  C   UNL     1      51.768   9.104  12.054  0.00  0.00    +0.000 C 
ATOM      8  C   UNL     1      50.796   8.908  13.222  0.00  0.00    +0.000 C 
BRANCH   8   9
ATOM      9  N   UNL     1      51.237   7.838  14.099  0.00  0.00    +0.000 N 
ATOM     10  C   UNL     1      51.056   7.913  15.460  0.00  0.00    +0.000 C 
ATOM     11  O   UNL     1      50.499   8.873  15.987  0.00  0.00    +0.000 OA
ATOM     12  H   UNL     1      51.858   7.134  13.711  0.00  0.00    +0.000 HD
BRANCH  10  13
ATOM     13  C   UNL     1      51.492   6.765  16.264  0.00  0.00    +0.000 A 
ATOM     14  C   UNL     1      52.844   6.605  16.538  0.00  0.00    +0.000 A 
ATOM     15  S   UNL     1      53.193   5.238  17.495  0.00  0.00    +0.000 S 
ATOM     16  C   UNL     1      51.556   4.781  17.532  0.00  0.00    +0.000 A 
ATOM     17  N   UNL     1      51.165   3.642  18.166  0.00  0.00    +0.000 NA
ATOM     18  C   UNL     1      49.902   3.394  18.080  0.00  0.00    +0.000 A 
ATOM     19  N   UNL     1      48.991   4.187  17.428  0.00  0.00    +0.000 N 
ATOM     20  C   UNL     1      49.333   5.371  16.815  0.00  0.00    +0.000 A 
ATOM     21  O   UNL     1      48.484   6.098  16.306  0.00  0.00    +0.000 OA
ATOM     22  C   UNL     1      50.749   5.678  16.851  0.00  0.00    +0.000 A 
ATOM     23  H   UNL     1      48.013   3.941  17.414  0.00  0.00    +0.000 HD
ENDBRANCH  10  13
ENDBRANCH   8   9
ENDBRANCH   1   8
BRANCH   4  24
ATOM     24  C   UNL     1      45.225   7.852  11.738  0.00  0.00    +0.000 C 
BRANCH  24  25
ATOM     25  N   UNL     1      45.125   6.784  10.766  0.00  0.00    +0.000 N 
ATOM     26  C   UNL     1      44.939   5.479  11.185  0.00  0.00    +0.000 C 
ATOM     27  O   UNL     1      44.871   5.177  12.370  0.00  0.00    +0.000 OA
ATOM     28  H   UNL     1      45.011   7.032   9.792  0.00  0.00    +0.000 HD
BRANCH  26  29
ATOM     29  C   UNL     1      44.877   4.439  10.118  0.00  0.00    +0.000 A 
ATOM     30  C   UNL     1      45.526   4.690   8.894  0.00  0.00    +0.000 A 
ATOM     31  C   UNL     1      45.571   3.713   7.896  0.00  0.00    +0.000 A 
ATOM     32  C   UNL     1      44.984   2.470   8.111  0.00  0.00    +0.000 A 
ATOM     33  C   UNL     1      44.335   2.209   9.317  0.00  0.00    +0.000 A 
ATOM     34  C   UNL     1      44.272   3.189  10.320  0.00  0.00    +0.000 A 
ATOM     35 CL   UNL     1      43.380   2.775  11.743  0.00  0.00    +0.000 Cl
ENDBRANCH  26  29
ENDBRANCH  24  25
ENDBRANCH   4  24
TORSDOF 6
ENDMDL
MODEL 8
REMARK VINA RESULT:    -6.655      5.204      7.158
REMARK INTER + INTRA:         -10.252
REMARK INTER:                  -9.265
REMARK INTRA:                  -0.987
REMARK UNBOUND:                -1.263
REMARK  Name = 
REMARK  7 active torsions:
REMARK  status: ('A' for Active; 'I' for Inactive)
REMARK    1  A    between atoms: C_1  and  C_2
REMARK    2  A    between atoms: C_2  and  N_3
REMARK    3  A    between atoms: C_2  and  C_16
REMARK    4  A    between atoms: C_4  and  C_6
REMARK    5  A    between atoms: C_19  and  C_20
REMARK    6  A    between atoms: C_20  and  N_21
REMARK    7  A    between atoms: C_22  and  C_24
REMARK                            x       y       z     vdW  Elec       q    Type
REMARK                         _______ _______ _______ _____ _____    ______ ____
ROOT
ATOM      1  C   UNL     1      50.082   8.487  12.440  0.00  0.00    +0.000 A 
ATOM      2  C   UNL     1      49.220   8.045  11.422  0.00  0.00    +0.000 A 
ATOM      3  C   UNL     1      48.053   7.334  11.720  0.00  0.00    +0.000 A 
ATOM      4  C   UNL     1      47.701   7.067  13.047  0.00  0.00    +0.000 A 
ATOM      5  C   UNL     1      48.538   7.534  14.068  0.00  0.00    +0.000 A 
ATOM      6  C   UNL     1      49.706   8.249  13.770  0.00  0.00    +0.000 A 
ENDROOT
BRANCH   1   8
ATOM      7  C   UNL     1      51.389  10.685  12.332  0.00  0.00    +0.000 C 
ATOM      8  C   UNL     1      51.381   9.178  12.055  0.00  0.00    +0.000 C 
BRANCH   8   9
ATOM      9  N   UNL     1      51.733   8.896  10.674  0.00  0.00    +0.000 N 
ATOM     10  C   UNL     1      53.019   8.555  10.325  0.00  0.00    +0.000 C 
ATOM     11  O   UNL     1      53.913   8.455  11.161  0.00  0.00    +0.000 OA
ATOM     12  H   UNL     1      51.066   9.152   9.953  0.00  0.00    +0.000 HD
BRANCH  10  13
ATOM     13  C   UNL     1      53.275   8.243   8.913  0.00  0.00    +0.000 A 
ATOM     14  C   UNL     1      53.257   9.271   7.979  0.00  0.00    +0.000 A 
ATOM     15  S   UNL     1      53.588   8.757   6.387  0.00  0.00    +0.000 S 
ATOM     16  C   UNL     1      53.712   7.135   6.881  0.00  0.00    +0.000 A 
ATOM     17  N   UNL     1      53.944   6.146   5.975  0.00  0.00    +0.000 NA
ATOM     18  C   UNL     1      53.972   4.960   6.479  0.00  0.00    +0.000 A 
ATOM     19  N   UNL     1      53.802   4.671   7.810  0.00  0.00    +0.000 N 
ATOM     20  C   UNL     1      53.614   5.641   8.768  0.00  0.00    +0.000 A 
ATOM     21  O   UNL     1      53.542   5.359   9.962  0.00  0.00    +0.000 OA
ATOM     22  C   UNL     1      53.536   6.991   8.248  0.00  0.00    +0.000 A 
ATOM     23  H   UNL     1      53.853   3.719   8.140  0.00  0.00    +0.000 HD
ENDBRANCH  10  13
ENDBRANCH   8   9
ENDBRANCH   1   8
BRANCH   4  24
ATOM     24  C   UNL     1      46.466   6.264  13.363  0.00  0.00    +0.000 C 
BRANCH  24  25
ATOM     25  N   UNL     1      46.179   5.294  12.329  0.00  0.00    +0.000 N 
ATOM     26  C   UNL     1      45.226   5.568  11.364  0.00  0.00    +0.000 C 
ATOM     27  O   UNL     1      44.587   6.614  11.356  0.00  0.00    +0.000 OA
ATOM     28  H   UNL     1      46.806   4.508  12.222  0.00  0.00    +0.000 HD
BRANCH  26  29
ATOM     29  C   UNL     1      44.972   4.500  10.355  0.00  0.00    +0.000 A 
ATOM     30  C   UNL     1      45.435   4.693   9.040  0.00  0.00    +0.000 A 
ATOM     31  C   UNL     1      45.300   3.686   8.080  0.00  0.00    +0.000 A 
ATOM     32  C   UNL     1      44.717   2.471   8.423  0.00  0.00    +0.000 A 
ATOM     33  C   UNL     1      44.250   2.267   9.722  0.00  0.00    +0.000 A 
ATOM     34  C   UNL     1      44.369   3.277  10.689  0.00  0.00    +0.000 A 
ATOM     35 CL   UNL     1      43.692   2.936  12.243  0.00  0.00    +0.000 Cl
ENDBRANCH  26  29
ENDBRANCH  24  25
ENDBRANCH   4  24
TORSDOF 6
ENDMDL
MODEL 9
REMARK VINA RESULT:    -6.632      2.790      3.895
REMARK INTER + INTRA:         -10.222
REMARK INTER:                  -9.056
REMARK INTRA:                  -1.166
REMARK UNBOUND:                -1.263
REMARK  Name = 
REMARK  7 active torsions:
REMARK  status: ('A' for Active; 'I' for Inactive)
REMARK    1  A    between atoms: C_1  and  C_2
REMARK    2  A    between atoms: C_2  and  N_3
REMARK    3  A    between atoms: C_2  and  C_16
REMARK    4  A    between atoms: C_4  and  C_6
REMARK    5  A    between atoms: C_19  and  C_20
REMARK    6  A    between atoms: C_20  and  N_21
REMARK    7  A    between atoms: C_22  and  C_24
REMARK                            x       y       z     vdW  Elec       q    Type
REMARK                         _______ _______ _______ _____ _____    ______ ____
ROOT
ATOM      1  C   UNL     1      49.672   8.289  15.683  0.00  0.00    +0.000 A 
ATOM      2  C   UNL     1      50.423   7.753  14.624  0.00  0.00    +0.000 A 
ATOM      3  C   UNL     1      49.856   7.560  13.359  0.00  0.00    +0.000 A 
ATOM      4  C   UNL     1      48.528   7.923  13.112  0.00  0.00    +0.000 A 
ATOM      5  C   UNL     1      47.784   8.491  14.154  0.00  0.00    +0.000 A 
ATOM      6  C   UNL     1      48.353   8.686  15.420  0.00  0.00    +0.000 A 
ENDROOT
BRANCH   1   8
ATOM      7  C   UNL     1      51.086   9.697  17.286  0.00  0.00    +0.000 C 
ATOM      8  C   UNL     1      50.313   8.395  17.058  0.00  0.00    +0.000 C 
BRANCH   8   9
ATOM      9  N   UNL     1      51.142   7.236  17.338  0.00  0.00    +0.000 N 
ATOM     10  C   UNL     1      50.693   6.220  18.149  0.00  0.00    +0.000 C 
ATOM     11  O   UNL     1      49.572   6.238  18.651  0.00  0.00    +0.000 OA
ATOM     12  H   UNL     1      52.126   7.287  17.092  0.00  0.00    +0.000 HD
BRANCH  10  13
ATOM     13  C   UNL     1      51.581   5.066  18.341  0.00  0.00    +0.000 A 
ATOM     14  C   UNL     1      52.812   5.255  18.957  0.00  0.00    +0.000 A 
ATOM     15  S   UNL     1      53.722   3.823  19.123  0.00  0.00    +0.000 S 
ATOM     16  C   UNL     1      52.527   2.909  18.330  0.00  0.00    +0.000 A 
ATOM     17  N   UNL     1      52.706   1.580  18.097  0.00  0.00    +0.000 NA
ATOM     18  C   UNL     1      51.741   1.020  17.450  0.00  0.00    +0.000 A 
ATOM     19  N   UNL     1      50.607   1.665  17.023  0.00  0.00    +0.000 N 
ATOM     20  C   UNL     1      50.362   2.995  17.279  0.00  0.00    +0.000 A 
ATOM     21  O   UNL     1      49.303   3.526  16.952  0.00  0.00    +0.000 OA
ATOM     22  C   UNL     1      51.434   3.681  17.972  0.00  0.00    +0.000 A 
ATOM     23  H   UNL     1      49.883   1.160  16.536  0.00  0.00    +0.000 HD
ENDBRANCH  10  13
ENDBRANCH   8   9
ENDBRANCH   1   8
BRANCH   4  24
ATOM     24  C   UNL     1      47.907   7.675  11.762  0.00  0.00    +0.000 C 
BRANCH  24  25
ATOM     25  N   UNL     1      47.105   6.471  11.754  0.00  0.00    +0.000 N 
ATOM     26  C   UNL     1      45.744   6.544  11.522  0.00  0.00    +0.000 C 
ATOM     27  O   UNL     1      45.169   7.611  11.335  0.00  0.00    +0.000 OA
ATOM     28  H   UNL     1      47.581   5.579  11.738  0.00  0.00    +0.000 HD
BRANCH  26  29
ATOM     29  C   UNL     1      44.990   5.258  11.562  0.00  0.00    +0.000 A 
ATOM     30  C   UNL     1      44.354   4.885  12.761  0.00  0.00    +0.000 A 
ATOM     31  C   UNL     1      43.564   3.735  12.824  0.00  0.00    +0.000 A 
ATOM     32  C   UNL     1      43.386   2.950  11.689  0.00  0.00    +0.000 A 
ATOM     33  C   UNL     1      44.013   3.304  10.495  0.00  0.00    +0.000 A 
ATOM     34  C   UNL     1      44.819   4.451  10.425  0.00  0.00    +0.000 A 
ATOM     35 CL   UNL     1      45.600   4.750   8.912  0.00  0.00    +0.000 Cl
ENDBRANCH  26  29
ENDBRANCH  24  25
ENDBRANCH   4  24
TORSDOF 6
ENDMDL
