MODEL 1
REMARK VINA RESULT:    -9.095      0.000      0.000
REMARK INTER + INTRA:         -13.988
REMARK INTER:                 -12.817
REMARK INTRA:                  -1.172
REMARK UNBOUND:                -1.172
REMARK  Name = 
REMARK  7 active torsions:
REMARK  status: ('A' for Active; 'I' for Inactive)
REMARK    1  A    between atoms: C_2  and  C_4
REMARK    2  A    between atoms: C_7  and  C_8
REMARK    3  A    between atoms: C_8  and  N_9
REMARK    4  A    between atoms: N_9  and  C_10
REMARK    5  A    between atoms: C_13  and  C_14
REMARK    6  A    between atoms: C_14  and  N_15
REMARK    7  A    between atoms: C_16  and  C_18
REMARK                            x       y       z     vdW  Elec       q    Type
REMARK                         _______ _______ _______ _____ _____    ______ ____
ROOT
ATOM      1  C   UNL     1      44.879   4.942  12.234  0.00  0.00    +0.000 A 
ATOM      2  C   UNL     1      45.748   4.158  13.005  0.00  0.00    +0.000 A 
ATOM      3  C   UNL     1      46.889   4.712  13.609  0.00  0.00    +0.000 A 
ATOM      4  C   UNL     1      47.198   6.066  13.436  0.00  0.00    +0.000 A 
ATOM      5  C   UNL     1      46.390   6.827  12.588  0.00  0.00    +0.000 A 
ATOM      6  C   UNL     1      45.256   6.268  11.991  0.00  0.00    +0.000 A 
ENDROOT
BRANCH   1   7
ATOM      7  N   UNL     1      43.753   4.351  11.631  0.00  0.00    +0.000 N 
ATOM      8  H   UNL     1      42.900   4.569  12.141  0.00  0.00    +0.000 HD
BRANCH   7   9
ATOM      9  C   UNL     1      43.585   4.586  10.198  0.00  0.00    +0.000 C 
BRANCH   9  13
ATOM     10  C   UNL     1      46.438   2.456   7.741  0.00  0.00    +0.000 A 
ATOM     11  C   UNL     1      45.616   1.754   8.632  0.00  0.00    +0.000 A 
ATOM     12  C   UNL     1      44.718   2.444   9.451  0.00  0.00    +0.000 A 
ATOM     13  C   UNL     1      44.630   3.843   9.395  0.00  0.00    +0.000 A 
ATOM     14  C   UNL     1      45.474   4.540   8.516  0.00  0.00    +0.000 A 
ATOM     15  C   UNL     1      46.375   3.853   7.699  0.00  0.00    +0.000 A 
BRANCH  10  17
ATOM     16  N   UNL     1      48.477   2.474   6.407  0.00  0.00    +0.000 N 
ATOM     17  C   UNL     1      47.393   1.761   6.840  0.00  0.00    +0.000 C 
ATOM     18  O   UNL     1      47.246   0.588   6.525  0.00  0.00    +0.000 OA
ATOM     19  H   UNL     1      49.175   1.955   5.889  0.00  0.00    +0.000 HD
ATOM     20  H   UNL     1      48.766   3.338   6.844  0.00  0.00    +0.000 HD
ENDBRANCH  10  17
ENDBRANCH   9  13
ENDBRANCH   7   9
ENDBRANCH   1   7
BRANCH   4  21
ATOM     21  C   UNL     1      48.390   6.700  14.100  0.00  0.00    +0.000 C 
BRANCH  21  22
ATOM     22  N   UNL     1      48.154   6.935  15.501  0.00  0.00    +0.000 N 
ATOM     23  C   UNL     1      49.071   6.545  16.443  0.00  0.00    +0.000 C 
ATOM     24  O   UNL     1      50.142   6.028  16.135  0.00  0.00    +0.000 OA
ATOM     25  H   UNL     1      47.198   7.130  15.783  0.00  0.00    +0.000 HD
BRANCH  23  26
ATOM     26  C   UNL     1      48.736   6.834  17.842  0.00  0.00    +0.000 A 
ATOM     27  C   UNL     1      48.469   8.140  18.229  0.00  0.00    +0.000 A 
ATOM     28  S   UNL     1      48.039   8.292  19.872  0.00  0.00    +0.000 S 
ATOM     29  C   UNL     1      48.251   6.625  20.137  0.00  0.00    +0.000 A 
ATOM     30  N   UNL     1      48.064   6.085  21.372  0.00  0.00    +0.000 NA
ATOM     31  C   UNL     1      48.290   4.815  21.437  0.00  0.00    +0.000 A 
ATOM     32  N   UNL     1      48.682   4.035  20.380  0.00  0.00    +0.000 N 
ATOM     33  C   UNL     1      48.860   4.532  19.111  0.00  0.00    +0.000 A 
ATOM     34  O   UNL     1      49.178   3.801  18.178  0.00  0.00    +0.000 OA
ATOM     35  C   UNL     1      48.625   5.958  18.984  0.00  0.00    +0.000 A 
ATOM     36  H   UNL     1      48.839   3.045  20.497  0.00  0.00    +0.000 HD
ENDBRANCH  23  26
ENDBRANCH  21  22
ENDBRANCH   4  21
TORSDOF 7
ENDMDL
MODEL 2
REMARK VINA RESULT:    -9.077      1.805      2.423
REMARK INTER + INTRA:         -13.963
REMARK INTER:                 -13.070
REMARK INTRA:                  -0.894
REMARK UNBOUND:                -1.172
REMARK  Name = 
REMARK  7 active torsions:
REMARK  status: ('A' for Active; 'I' for Inactive)
REMARK    1  A    between atoms: C_2  and  C_4
REMARK    2  A    between atoms: C_7  and  C_8
REMARK    3  A    between atoms: C_8  and  N_9
REMARK    4  A    between atoms: N_9  and  C_10
REMARK    5  A    between atoms: C_13  and  C_14
REMARK    6  A    between atoms: C_14  and  N_15
REMARK    7  A    between atoms: C_16  and  C_18
REMARK                            x       y       z     vdW  Elec       q    Type
REMARK                         _______ _______ _______ _____ _____    ______ ____
ROOT
ATOM      1  C   UNL     1      44.678   6.272  11.203  0.00  0.00    +0.000 A 
ATOM      2  C   UNL     1      44.486   7.622  11.527  0.00  0.00    +0.000 A 
ATOM      3  C   UNL     1      45.386   8.308  12.360  0.00  0.00    +0.000 A 
ATOM      4  C   UNL     1      46.492   7.648  12.908  0.00  0.00    +0.000 A 
ATOM      5  C   UNL     1      46.631   6.279  12.669  0.00  0.00    +0.000 A 
ATOM      6  C   UNL     1      45.732   5.604  11.838  0.00  0.00    +0.000 A 
ENDROOT
BRANCH   1   7
ATOM      7  N   UNL     1      43.749   5.612  10.376  0.00  0.00    +0.000 N 
ATOM      8  H   UNL     1      43.779   5.968   9.424  0.00  0.00    +0.000 HD
BRANCH   7   9
ATOM      9  C   UNL     1      43.787   4.151  10.394  0.00  0.00    +0.000 C 
BRANCH   9  13
ATOM     10  C   UNL     1      46.588   2.628   7.470  0.00  0.00    +0.000 A 
ATOM     11  C   UNL     1      46.279   3.994   7.502  0.00  0.00    +0.000 A 
ATOM     12  C   UNL     1      45.348   4.482   8.424  0.00  0.00    +0.000 A 
ATOM     13  C   UNL     1      44.711   3.614   9.323  0.00  0.00    +0.000 A 
ATOM     14  C   UNL     1      45.010   2.244   9.268  0.00  0.00    +0.000 A 
ATOM     15  C   UNL     1      45.937   1.753   8.346  0.00  0.00    +0.000 A 
BRANCH  10  17
ATOM     16  N   UNL     1      47.905   2.833   5.430  0.00  0.00    +0.000 N 
ATOM     17  C   UNL     1      47.584   2.070   6.519  0.00  0.00    +0.000 C 
ATOM     18  O   UNL     1      48.130   0.993   6.715  0.00  0.00    +0.000 OA
ATOM     19  H   UNL     1      48.665   2.491   4.855  0.00  0.00    +0.000 HD
ATOM     20  H   UNL     1      47.679   3.815   5.372  0.00  0.00    +0.000 HD
ENDBRANCH  10  17
ENDBRANCH   9  13
ENDBRANCH   7   9
ENDBRANCH   1   7
BRANCH   4  21
ATOM     21  C   UNL     1      47.495   8.362  13.773  0.00  0.00    +0.000 C 
BRANCH  21  22
ATOM     22  N   UNL     1      47.816   7.601  14.951  0.00  0.00    +0.000 N 
ATOM     23  C   UNL     1      49.027   6.970  15.072  0.00  0.00    +0.000 C 
ATOM     24  O   UNL     1      49.899   7.065  14.212  0.00  0.00    +0.000 OA
ATOM     25  H   UNL     1      47.041   7.317  15.545  0.00  0.00    +0.000 HD
BRANCH  23  26
ATOM     26  C   UNL     1      49.257   6.224  16.314  0.00  0.00    +0.000 A 
ATOM     27  C   UNL     1      50.269   6.622  17.178  0.00  0.00    +0.000 A 
ATOM     28  S   UNL     1      50.360   5.687  18.601  0.00  0.00    +0.000 S 
ATOM     29  C   UNL     1      49.089   4.681  18.086  0.00  0.00    +0.000 A 
ATOM     30  N   UNL     1      48.674   3.634  18.848  0.00  0.00    +0.000 NA
ATOM     31  C   UNL     1      47.724   2.935  18.322  0.00  0.00    +0.000 A 
ATOM     32  N   UNL     1      47.147   3.191  17.105  0.00  0.00    +0.000 N 
ATOM     33  C   UNL     1      47.516   4.252  16.312  0.00  0.00    +0.000 A 
ATOM     34  O   UNL     1      46.956   4.474  15.243  0.00  0.00    +0.000 OA
ATOM     35  C   UNL     1      48.587   5.066  16.855  0.00  0.00    +0.000 A 
ATOM     36  H   UNL     1      46.404   2.608  16.752  0.00  0.00    +0.000 HD
ENDBRANCH  23  26
ENDBRANCH  21  22
ENDBRANCH   4  21
TORSDOF 7
ENDMDL
MODEL 3
REMARK VINA RESULT:    -8.674      1.405      2.011
REMARK INTER + INTRA:         -13.395
REMARK INTER:                 -12.105
REMARK INTRA:                  -1.290
REMARK UNBOUND:                -1.172
REMARK  Name = 
REMARK  7 active torsions:
REMARK  status: ('A' for Active; 'I' for Inactive)
REMARK    1  A    between atoms: C_2  and  C_4
REMARK    2  A    between atoms: C_7  and  C_8
REMARK    3  A    between atoms: C_8  and  N_9
REMARK    4  A    between atoms: N_9  and  C_10
REMARK    5  A    between atoms: C_13  and  C_14
REMARK    6  A    between atoms: C_14  and  N_15
REMARK    7  A    between atoms: C_16  and  C_18
REMARK                            x       y       z     vdW  Elec       q    Type
REMARK                         _______ _______ _______ _____ _____    ______ ____
ROOT
ATOM      1  C   UNL     1      45.189   4.124  12.444  0.00  0.00    +0.000 A 
ATOM      2  C   UNL     1      46.159   3.490  13.232  0.00  0.00    +0.000 A 
ATOM      3  C   UNL     1      47.146   4.226  13.907  0.00  0.00    +0.000 A 
ATOM      4  C   UNL     1      47.199   5.620  13.789  0.00  0.00    +0.000 A 
ATOM      5  C   UNL     1      46.297   6.246  12.927  0.00  0.00    +0.000 A 
ATOM      6  C   UNL     1      45.316   5.506  12.259  0.00  0.00    +0.000 A 
ENDROOT
BRANCH   1   7
ATOM      7  N   UNL     1      44.222   3.354  11.770  0.00  0.00    +0.000 N 
ATOM      8  H   UNL     1      43.396   3.207  12.345  0.00  0.00    +0.000 HD
BRANCH   7   9
ATOM      9  C   UNL     1      43.856   3.802  10.427  0.00  0.00    +0.000 C 
BRANCH   9  13
ATOM     10  C   UNL     1      46.684   2.625   7.373  0.00  0.00    +0.000 A 
ATOM     11  C   UNL     1      46.095   1.656   8.195  0.00  0.00    +0.000 A 
ATOM     12  C   UNL     1      45.207   2.038   9.205  0.00  0.00    +0.000 A 
ATOM     13  C   UNL     1      44.898   3.391   9.410  0.00  0.00    +0.000 A 
ATOM     14  C   UNL     1      45.511   4.357   8.596  0.00  0.00    +0.000 A 
ATOM     15  C   UNL     1      46.401   3.978   7.588  0.00  0.00    +0.000 A 
BRANCH  10  17
ATOM     16  N   UNL     1      47.699   3.117   5.213  0.00  0.00    +0.000 N 
ATOM     17  C   UNL     1      47.618   2.261   6.276  0.00  0.00    +0.000 C 
ATOM     18  O   UNL     1      48.320   1.261   6.332  0.00  0.00    +0.000 OA
ATOM     19  H   UNL     1      48.419   2.915   4.531  0.00  0.00    +0.000 HD
ATOM     20  H   UNL     1      47.341   4.061   5.250  0.00  0.00    +0.000 HD
ENDBRANCH  10  17
ENDBRANCH   9  13
ENDBRANCH   7   9
ENDBRANCH   1   7
BRANCH   4  21
ATOM     21  C   UNL     1      48.220   6.441  14.529  0.00  0.00    +0.000 C 
BRANCH  21  22
ATOM     22  N   UNL     1      48.018   6.381  15.953  0.00  0.00    +0.000 N 
ATOM     23  C   UNL     1      49.007   5.924  16.785  0.00  0.00    +0.000 C 
ATOM     24  O   UNL     1      50.112   5.595  16.362  0.00  0.00    +0.000 OA
ATOM     25  H   UNL     1      47.058   6.414  16.286  0.00  0.00    +0.000 HD
BRANCH  23  26
ATOM     26  C   UNL     1      48.701   5.906  18.220  0.00  0.00    +0.000 A 
ATOM     27  C   UNL     1      48.872   4.735  18.945  0.00  0.00    +0.000 A 
ATOM     28  S   UNL     1      48.531   4.903  20.606  0.00  0.00    +0.000 S 
ATOM     29  C   UNL     1      48.088   6.533  20.406  0.00  0.00    +0.000 A 
ATOM     30  N   UNL     1      47.657   7.275  21.461  0.00  0.00    +0.000 NA
ATOM     31  C   UNL     1      47.322   8.485  21.160  0.00  0.00    +0.000 A 
ATOM     32  N   UNL     1      47.383   9.023  19.901  0.00  0.00    +0.000 N 
ATOM     33  C   UNL     1      47.835   8.319  18.810  0.00  0.00    +0.000 A 
ATOM     34  O   UNL     1      47.909   8.840  17.701  0.00  0.00    +0.000 OA
ATOM     35  C   UNL     1      48.217   6.949  19.093  0.00  0.00    +0.000 A 
ATOM     36  H   UNL     1      47.110   9.979  19.732  0.00  0.00    +0.000 HD
ENDBRANCH  23  26
ENDBRANCH  21  22
ENDBRANCH   4  21
TORSDOF 7
ENDMDL
MODEL 4
REMARK VINA RESULT:    -7.969      2.285      2.568
REMARK INTER + INTRA:         -12.402
REMARK INTER:                 -11.123
REMARK INTRA:                  -1.279
REMARK UNBOUND:                -1.172
REMARK  Name = 
REMARK  7 active torsions:
REMARK  status: ('A' for Active; 'I' for Inactive)
REMARK    1  A    between atoms: C_2  and  C_4
REMARK    2  A    between atoms: C_7  and  C_8
REMARK    3  A    between atoms: C_8  and  N_9
REMARK    4  A    between atoms: N_9  and  C_10
REMARK    5  A    between atoms: C_13  and  C_14
REMARK    6  A    between atoms: C_14  and  N_15
REMARK    7  A    between atoms: C_16  and  C_18
REMARK                            x       y       z     vdW  Elec       q    Type
REMARK                         _______ _______ _______ _____ _____    ______ ____
ROOT
ATOM      1  C   UNL     1      45.202   4.330  12.666  0.00  0.00    +0.000 A 
ATOM      2  C   UNL     1      46.530   4.060  13.026  0.00  0.00    +0.000 A 
ATOM      3  C   UNL     1      47.406   5.089  13.407  0.00  0.00    +0.000 A 
ATOM      4  C   UNL     1      46.978   6.421  13.415  0.00  0.00    +0.000 A 
ATOM      5  C   UNL     1      45.687   6.704  12.963  0.00  0.00    +0.000 A 
ATOM      6  C   UNL     1      44.821   5.674  12.586  0.00  0.00    +0.000 A 
ENDROOT
BRANCH   1   7
ATOM      7  N   UNL     1      44.355   3.276  12.276  0.00  0.00    +0.000 N 
ATOM      8  H   UNL     1      43.688   3.044  13.008  0.00  0.00    +0.000 HD
BRANCH   7   9
ATOM      9  C   UNL     1      43.689   3.423  10.983  0.00  0.00    +0.000 C 
BRANCH   9  13
ATOM     10  C   UNL     1      46.316   2.914   7.585  0.00  0.00    +0.000 A 
ATOM     11  C   UNL     1      45.899   1.799   8.322  0.00  0.00    +0.000 A 
ATOM     12  C   UNL     1      45.078   1.965   9.442  0.00  0.00    +0.000 A 
ATOM     13  C   UNL     1      44.665   3.246   9.840  0.00  0.00    +0.000 A 
ATOM     14  C   UNL     1      45.106   4.359   9.108  0.00  0.00    +0.000 A 
ATOM     15  C   UNL     1      45.930   4.196   7.992  0.00  0.00    +0.000 A 
BRANCH  10  17
ATOM     16  N   UNL     1      48.508   2.561   6.580  0.00  0.00    +0.000 N 
ATOM     17  C   UNL     1      47.174   2.782   6.378  0.00  0.00    +0.000 C 
ATOM     18  O   UNL     1      46.708   2.825   5.248  0.00  0.00    +0.000 OA
ATOM     19  H   UNL     1      49.057   2.360   5.754  0.00  0.00    +0.000 HD
ATOM     20  H   UNL     1      48.879   2.264   7.472  0.00  0.00    +0.000 HD
ENDBRANCH  10  17
ENDBRANCH   9  13
ENDBRANCH   7   9
ENDBRANCH   1   7
BRANCH   4  21
ATOM     21  C   UNL     1      47.879   7.542  13.855  0.00  0.00    +0.000 C 
BRANCH  21  22
ATOM     22  N   UNL     1      49.104   7.046  14.425  0.00  0.00    +0.000 N 
ATOM     23  C   UNL     1      49.344   7.145  15.771  0.00  0.00    +0.000 C 
ATOM     24  O   UNL     1      48.515   7.612  16.547  0.00  0.00    +0.000 OA
ATOM     25  H   UNL     1      49.880   6.886  13.788  0.00  0.00    +0.000 HD
BRANCH  23  26
ATOM     26  C   UNL     1      50.621   6.605  16.251  0.00  0.00    +0.000 A 
ATOM     27  C   UNL     1      51.799   7.296  15.997  0.00  0.00    +0.000 A 
ATOM     28  S   UNL     1      53.181   6.564  16.675  0.00  0.00    +0.000 S 
ATOM     29  C   UNL     1      52.262   5.268  17.284  0.00  0.00    +0.000 A 
ATOM     30  N   UNL     1      52.855   4.250  17.964  0.00  0.00    +0.000 NA
ATOM     31  C   UNL     1      52.045   3.318  18.340  0.00  0.00    +0.000 A 
ATOM     32  N   UNL     1      50.695   3.313  18.102  0.00  0.00    +0.000 N 
ATOM     33  C   UNL     1      50.049   4.331  17.443  0.00  0.00    +0.000 A 
ATOM     34  O   UNL     1      48.833   4.313  17.276  0.00  0.00    +0.000 OA
ATOM     35  C   UNL     1      50.917   5.402  16.992  0.00  0.00    +0.000 A 
ATOM     36  H   UNL     1      50.115   2.554  18.428  0.00  0.00    +0.000 HD
ENDBRANCH  23  26
ENDBRANCH  21  22
ENDBRANCH   4  21
TORSDOF 7
ENDMDL
MODEL 5
REMARK VINA RESULT:    -7.847      3.726      5.750
REMARK INTER + INTRA:         -12.231
REMARK INTER:                 -11.078
REMARK INTRA:                  -1.153
REMARK UNBOUND:                -1.172
REMARK  Name = 
REMARK  7 active torsions:
REMARK  status: ('A' for Active; 'I' for Inactive)
REMARK    1  A    between atoms: C_2  and  C_4
REMARK    2  A    between atoms: C_7  and  C_8
REMARK    3  A    between atoms: C_8  and  N_9
REMARK    4  A    between atoms: N_9  and  C_10
REMARK    5  A    between atoms: C_13  and  C_14
REMARK    6  A    between atoms: C_14  and  N_15
REMARK    7  A    between atoms: C_16  and  C_18
REMARK                            x       y       z     vdW  Elec       q    Type
REMARK                         _______ _______ _______ _____ _____    ______ ____
ROOT
ATOM      1  C   UNL     1      45.107   5.957  11.554  0.00  0.00    +0.000 A 
ATOM      2  C   UNL     1      45.439   4.986  12.509  0.00  0.00    +0.000 A 
ATOM      3  C   UNL     1      46.526   5.160  13.380  0.00  0.00    +0.000 A 
ATOM      4  C   UNL     1      47.325   6.307  13.300  0.00  0.00    +0.000 A 
ATOM      5  C   UNL     1      47.059   7.229  12.285  0.00  0.00    +0.000 A 
ATOM      6  C   UNL     1      45.974   7.049  11.423  0.00  0.00    +0.000 A 
ENDROOT
BRANCH   1   7
ATOM      7  N   UNL     1      44.019   5.744  10.687  0.00  0.00    +0.000 N 
ATOM      8  H   UNL     1      44.138   6.244   9.810  0.00  0.00    +0.000 HD
BRANCH   7   9
ATOM      9  C   UNL     1      43.638   4.352  10.453  0.00  0.00    +0.000 C 
BRANCH   9  13
ATOM     10  C   UNL     1      46.420   2.471   7.727  0.00  0.00    +0.000 A 
ATOM     11  C   UNL     1      46.248   3.861   7.706  0.00  0.00    +0.000 A 
ATOM     12  C   UNL     1      45.324   4.467   8.563  0.00  0.00    +0.000 A 
ATOM     13  C   UNL     1      44.558   3.694   9.449  0.00  0.00    +0.000 A 
ATOM     14  C   UNL     1      44.720   2.300   9.446  0.00  0.00    +0.000 A 
ATOM     15  C   UNL     1      45.640   1.692   8.588  0.00  0.00    +0.000 A 
BRANCH  10  17
ATOM     16  N   UNL     1      48.452   2.534   6.383  0.00  0.00    +0.000 N 
ATOM     17  C   UNL     1      47.403   1.789   6.847  0.00  0.00    +0.000 C 
ATOM     18  O   UNL     1      47.311   0.599   6.576  0.00  0.00    +0.000 OA
ATOM     19  H   UNL     1      49.171   2.030   5.880  0.00  0.00    +0.000 HD
ATOM     20  H   UNL     1      48.701   3.427   6.786  0.00  0.00    +0.000 HD
ENDBRANCH  10  17
ENDBRANCH   9  13
ENDBRANCH   7   9
ENDBRANCH   1   7
BRANCH   4  21
ATOM     21  C   UNL     1      48.474   6.542  14.243  0.00  0.00    +0.000 C 
BRANCH  21  22
ATOM     22  N   UNL     1      49.595   7.145  13.572  0.00  0.00    +0.000 N 
ATOM     23  C   UNL     1      50.424   8.016  14.232  0.00  0.00    +0.000 C 
ATOM     24  O   UNL     1      50.276   8.278  15.423  0.00  0.00    +0.000 OA
ATOM     25  H   UNL     1      49.589   7.132  12.556  0.00  0.00    +0.000 HD
BRANCH  23  26
ATOM     26  C   UNL     1      51.539   8.573  13.459  0.00  0.00    +0.000 A 
ATOM     27  C   UNL     1      52.844   8.355  13.882  0.00  0.00    +0.000 A 
ATOM     28  S   UNL     1      54.020   9.017  12.840  0.00  0.00    +0.000 S 
ATOM     29  C   UNL     1      52.825   9.667  11.817  0.00  0.00    +0.000 A 
ATOM     30  N   UNL     1      53.166  10.395  10.720  0.00  0.00    +0.000 NA
ATOM     31  C   UNL     1      52.160  10.855  10.053  0.00  0.00    +0.000 A 
ATOM     32  N   UNL     1      50.845  10.650  10.381  0.00  0.00    +0.000 N 
ATOM     33  C   UNL     1      50.454   9.901  11.465  0.00  0.00    +0.000 A 
ATOM     34  O   UNL     1      49.267   9.707  11.712  0.00  0.00    +0.000 OA
ATOM     35  C   UNL     1      51.547   9.366  12.254  0.00  0.00    +0.000 A 
ATOM     36  H   UNL     1      50.104  11.034   9.814  0.00  0.00    +0.000 HD
ENDBRANCH  23  26
ENDBRANCH  21  22
ENDBRANCH   4  21
TORSDOF 7
ENDMDL
MODEL 6
REMARK VINA RESULT:    -7.722      3.273      9.105
REMARK INTER + INTRA:         -12.054
REMARK INTER:                 -10.526
REMARK INTRA:                  -1.527
REMARK UNBOUND:                -1.172
REMARK  Name = 
REMARK  7 active torsions:
REMARK  status: ('A' for Active; 'I' for Inactive)
REMARK    1  A    between atoms: C_2  and  C_4
REMARK    2  A    between atoms: C_7  and  C_8
REMARK    3  A    between atoms: C_8  and  N_9
REMARK    4  A    between atoms: N_9  and  C_10
REMARK    5  A    between atoms: C_13  and  C_14
REMARK    6  A    between atoms: C_14  and  N_15
REMARK    7  A    between atoms: C_16  and  C_18
REMARK                            x       y       z     vdW  Elec       q    Type
REMARK                         _______ _______ _______ _____ _____    ______ ____
ROOT
ATOM      1  C   UNL     1      49.644   8.428  15.649  0.00  0.00    +0.000 A 
ATOM      2  C   UNL     1      50.205   7.619  14.651  0.00  0.00    +0.000 A 
ATOM      3  C   UNL     1      49.574   7.451  13.408  0.00  0.00    +0.000 A 
ATOM      4  C   UNL     1      48.349   8.074  13.142  0.00  0.00    +0.000 A 
ATOM      5  C   UNL     1      47.739   8.799  14.167  0.00  0.00    +0.000 A 
ATOM      6  C   UNL     1      48.373   8.963  15.402  0.00  0.00    +0.000 A 
ENDROOT
BRANCH   1   7
ATOM      7  N   UNL     1      50.295   8.564  16.889  0.00  0.00    +0.000 N 
ATOM      8  H   UNL     1      50.457   9.541  17.120  0.00  0.00    +0.000 HD
BRANCH   7   9
ATOM      9  C   UNL     1      49.702   7.847  18.017  0.00  0.00    +0.000 C 
BRANCH   9  13
ATOM     10  C   UNL     1      50.118   3.597  17.328  0.00  0.00    +0.000 A 
ATOM     11  C   UNL     1      48.844   4.170  17.431  0.00  0.00    +0.000 A 
ATOM     12  C   UNL     1      48.709   5.538  17.688  0.00  0.00    +0.000 A 
ATOM     13  C   UNL     1      49.842   6.350  17.849  0.00  0.00    +0.000 A 
ATOM     14  C   UNL     1      51.114   5.763  17.767  0.00  0.00    +0.000 A 
ATOM     15  C   UNL     1      51.252   4.395  17.514  0.00  0.00    +0.000 A 
BRANCH  10  17
ATOM     16  N   UNL     1      51.092   1.438  17.902  0.00  0.00    +0.000 N 
ATOM     17  C   UNL     1      50.308   2.152  17.039  0.00  0.00    +0.000 C 
ATOM     18  O   UNL     1      49.757   1.606  16.092  0.00  0.00    +0.000 OA
ATOM     19  H   UNL     1      51.119   0.437  17.756  0.00  0.00    +0.000 HD
ATOM     20  H   UNL     1      51.343   1.784  18.817  0.00  0.00    +0.000 HD
ENDBRANCH  10  17
ENDBRANCH   9  13
ENDBRANCH   7   9
ENDBRANCH   1   7
BRANCH   4  21
ATOM     21  C   UNL     1      47.666   7.945  11.807  0.00  0.00    +0.000 C 
BRANCH  21  22
ATOM     22  N   UNL     1      46.970   6.691  11.686  0.00  0.00    +0.000 N 
ATOM     23  C   UNL     1      45.600   6.643  11.702  0.00  0.00    +0.000 C 
ATOM     24  O   UNL     1      44.914   7.660  11.769  0.00  0.00    +0.000 OA
ATOM     25  H   UNL     1      47.503   5.846  11.871  0.00  0.00    +0.000 HD
BRANCH  23  26
ATOM     26  C   UNL     1      44.989   5.316  11.568  0.00  0.00    +0.000 A 
ATOM     27  C   UNL     1      44.324   4.754  12.650  0.00  0.00    +0.000 A 
ATOM     28  S   UNL     1      43.621   3.239  12.308  0.00  0.00    +0.000 S 
ATOM     29  C   UNL     1      44.229   3.255  10.719  0.00  0.00    +0.000 A 
ATOM     30  N   UNL     1      44.005   2.212   9.875  0.00  0.00    +0.000 NA
ATOM     31  C   UNL     1      44.551   2.342   8.712  0.00  0.00    +0.000 A 
ATOM     32  N   UNL     1      45.297   3.421   8.314  0.00  0.00    +0.000 N 
ATOM     33  C   UNL     1      45.528   4.508   9.124  0.00  0.00    +0.000 A 
ATOM     34  O   UNL     1      46.171   5.474   8.726  0.00  0.00    +0.000 OA
ATOM     35  C   UNL     1      44.941   4.409  10.446  0.00  0.00    +0.000 A 
ATOM     36  H   UNL     1      45.694   3.463   7.388  0.00  0.00    +0.000 HD
ENDBRANCH  23  26
ENDBRANCH  21  22
ENDBRANCH   4  21
TORSDOF 7
ENDMDL
MODEL 7
REMARK VINA RESULT:    -7.278      3.963      9.116
REMARK INTER + INTRA:         -11.429
REMARK INTER:                 -10.300
REMARK INTRA:                  -1.129
REMARK UNBOUND:                -1.172
REMARK  Name = 
REMARK  7 active torsions:
REMARK  status: ('A' for Active; 'I' for Inactive)
REMARK    1  A    between atoms: C_2  and  C_4
REMARK    2  A    between atoms: C_7  and  C_8
REMARK    3  A    between atoms: C_8  and  N_9
REMARK    4  A    between atoms: N_9  and  C_10
REMARK    5  A    between atoms: C_13  and  C_14
REMARK    6  A    between atoms: C_14  and  N_15
REMARK    7  A    between atoms: C_16  and  C_18
REMARK                            x       y       z     vdW  Elec       q    Type
REMARK                         _______ _______ _______ _____ _____    ______ ____
ROOT
ATOM      1  C   UNL     1      49.619   6.670  16.427  0.00  0.00    +0.000 A 
ATOM      2  C   UNL     1      50.356   7.607  15.689  0.00  0.00    +0.000 A 
ATOM      3  C   UNL     1      49.974   7.975  14.389  0.00  0.00    +0.000 A 
ATOM      4  C   UNL     1      48.854   7.393  13.785  0.00  0.00    +0.000 A 
ATOM      5  C   UNL     1      48.176   6.387  14.478  0.00  0.00    +0.000 A 
ATOM      6  C   UNL     1      48.562   6.028  15.773  0.00  0.00    +0.000 A 
ENDROOT
BRANCH   1   7
ATOM      7  N   UNL     1      50.038   6.315  17.723  0.00  0.00    +0.000 N 
ATOM      8  H   UNL     1      49.879   7.070  18.386  0.00  0.00    +0.000 HD
BRANCH   7   9
ATOM      9  C   UNL     1      49.536   5.044  18.242  0.00  0.00    +0.000 C 
BRANCH   9  13
ATOM     10  C   UNL     1      52.301   1.756  17.737  0.00  0.00    +0.000 A 
ATOM     11  C   UNL     1      52.729   2.948  18.335  0.00  0.00    +0.000 A 
ATOM     12  C   UNL     1      51.846   4.023  18.468  0.00  0.00    +0.000 A 
ATOM     13  C   UNL     1      50.526   3.925  18.003  0.00  0.00    +0.000 A 
ATOM     14  C   UNL     1      50.113   2.735  17.384  0.00  0.00    +0.000 A 
ATOM     15  C   UNL     1      50.994   1.660  17.247  0.00  0.00    +0.000 A 
BRANCH  10  17
ATOM     16  N   UNL     1      53.002  -0.468  18.444  0.00  0.00    +0.000 N 
ATOM     17  C   UNL     1      53.201   0.582  17.592  0.00  0.00    +0.000 C 
ATOM     18  O   UNL     1      54.061   0.532  16.723  0.00  0.00    +0.000 OA
ATOM     19  H   UNL     1      53.546  -1.302  18.260  0.00  0.00    +0.000 HD
ATOM     20  H   UNL     1      52.156  -0.572  18.987  0.00  0.00    +0.000 HD
ENDBRANCH  10  17
ENDBRANCH   9  13
ENDBRANCH   7   9
ENDBRANCH   1   7
BRANCH   4  21
ATOM     21  C   UNL     1      48.396   7.792  12.408  0.00  0.00    +0.000 C 
BRANCH  21  22
ATOM     22  N   UNL     1      47.674   6.728  11.761  0.00  0.00    +0.000 N 
ATOM     23  C   UNL     1      46.325   6.830  11.535  0.00  0.00    +0.000 C 
ATOM     24  O   UNL     1      45.691   7.840  11.828  0.00  0.00    +0.000 OA
ATOM     25  H   UNL     1      48.119   5.815  11.735  0.00  0.00    +0.000 HD
BRANCH  23  26
ATOM     26  C   UNL     1      45.685   5.693  10.865  0.00  0.00    +0.000 A 
ATOM     27  C   UNL     1      45.829   5.533   9.493  0.00  0.00    +0.000 A 
ATOM     28  S   UNL     1      45.075   4.131   8.885  0.00  0.00    +0.000 S 
ATOM     29  C   UNL     1      44.480   3.717  10.425  0.00  0.00    +0.000 A 
ATOM     30  N   UNL     1      43.710   2.610  10.602  0.00  0.00    +0.000 NA
ATOM     31  C   UNL     1      43.301   2.435  11.814  0.00  0.00    +0.000 A 
ATOM     32  N   UNL     1      43.594   3.264  12.866  0.00  0.00    +0.000 N 
ATOM     33  C   UNL     1      44.387   4.379  12.739  0.00  0.00    +0.000 A 
ATOM     34  O   UNL     1      44.659   5.082  13.707  0.00  0.00    +0.000 OA
ATOM     35  C   UNL     1      44.869   4.626  11.393  0.00  0.00    +0.000 A 
ATOM     36  H   UNL     1      43.245   3.068  13.792  0.00  0.00    +0.000 HD
ENDBRANCH  23  26
ENDBRANCH  21  22
ENDBRANCH   4  21
TORSDOF 7
ENDMDL
MODEL 8
REMARK VINA RESULT:    -7.177      3.851      8.895
REMARK INTER + INTRA:         -11.286
REMARK INTER:                  -9.673
REMARK INTRA:                  -1.613
REMARK UNBOUND:                -1.172
REMARK  Name = 
REMARK  7 active torsions:
REMARK  status: ('A' for Active; 'I' for Inactive)
REMARK    1  A    between atoms: C_2  and  C_4
REMARK    2  A    between atoms: C_7  and  C_8
REMARK    3  A    between atoms: C_8  and  N_9
REMARK    4  A    between atoms: N_9  and  C_10
REMARK    5  A    between atoms: C_13  and  C_14
REMARK    6  A    between atoms: C_14  and  N_15
REMARK    7  A    between atoms: C_16  and  C_18
REMARK                            x       y       z     vdW  Elec       q    Type
REMARK                         _______ _______ _______ _____ _____    ______ ____
ROOT
ATOM      1  C   UNL     1      50.071   7.963  18.313  0.00  0.00    +0.000 A 
ATOM      2  C   UNL     1      50.738   7.615  17.131  0.00  0.00    +0.000 A 
ATOM      3  C   UNL     1      50.173   7.871  15.871  0.00  0.00    +0.000 A 
ATOM      4  C   UNL     1      48.910   8.464  15.766  0.00  0.00    +0.000 A 
ATOM      5  C   UNL     1      48.199   8.722  16.940  0.00  0.00    +0.000 A 
ATOM      6  C   UNL     1      48.769   8.465  18.190  0.00  0.00    +0.000 A 
ENDROOT
BRANCH   1   7
ATOM      7  N   UNL     1      50.660   7.679  19.560  0.00  0.00    +0.000 N 
ATOM      8  H   UNL     1      50.711   8.510  20.145  0.00  0.00    +0.000 HD
BRANCH   7   9
ATOM      9  C   UNL     1      50.104   6.547  20.298  0.00  0.00    +0.000 C 
BRANCH   9  13
ATOM     10  C   UNL     1      50.330   3.026  17.797  0.00  0.00    +0.000 A 
ATOM     11  C   UNL     1      49.084   3.573  18.127  0.00  0.00    +0.000 A 
ATOM     12  C   UNL     1      49.008   4.691  18.964  0.00  0.00    +0.000 A 
ATOM     13  C   UNL     1      50.173   5.274  19.484  0.00  0.00    +0.000 A 
ATOM     14  C   UNL     1      51.416   4.705  19.166  0.00  0.00    +0.000 A 
ATOM     15  C   UNL     1      51.495   3.586  18.333  0.00  0.00    +0.000 A 
BRANCH  10  17
ATOM     16  N   UNL     1      51.462   0.962  17.166  0.00  0.00    +0.000 N 
ATOM     17  C   UNL     1      50.458   1.850  16.897  0.00  0.00    +0.000 C 
ATOM     18  O   UNL     1      49.676   1.654  15.976  0.00  0.00    +0.000 OA
ATOM     19  H   UNL     1      51.465   0.112  16.616  0.00  0.00    +0.000 HD
ATOM     20  H   UNL     1      51.951   0.949  18.050  0.00  0.00    +0.000 HD
ENDBRANCH  10  17
ENDBRANCH   9  13
ENDBRANCH   7   9
ENDBRANCH   1   7
BRANCH   4  21
ATOM     21  C   UNL     1      48.293   8.787  14.432  0.00  0.00    +0.000 C 
BRANCH  21  22
ATOM     22  N   UNL     1      47.319   7.800  14.045  0.00  0.00    +0.000 N 
ATOM     23  C   UNL     1      47.681   6.711  13.296  0.00  0.00    +0.000 C 
ATOM     24  O   UNL     1      48.846   6.506  12.966  0.00  0.00    +0.000 OA
ATOM     25  H   UNL     1      46.341   8.071  14.097  0.00  0.00    +0.000 HD
BRANCH  23  26
ATOM     26  C   UNL     1      46.613   5.763  12.958  0.00  0.00    +0.000 A 
ATOM     27  C   UNL     1      46.778   4.414  13.240  0.00  0.00    +0.000 A 
ATOM     28  S   UNL     1      45.421   3.462  12.841  0.00  0.00    +0.000 S 
ATOM     29  C   UNL     1      44.588   4.810  12.224  0.00  0.00    +0.000 A 
ATOM     30  N   UNL     1      43.345   4.678  11.688  0.00  0.00    +0.000 NA
ATOM     31  C   UNL     1      42.844   5.777  11.229  0.00  0.00    +0.000 A 
ATOM     32  N   UNL     1      43.471   6.995  11.261  0.00  0.00    +0.000 N 
ATOM     33  C   UNL     1      44.715   7.181  11.815  0.00  0.00    +0.000 A 
ATOM     34  O   UNL     1      45.234   8.292  11.860  0.00  0.00    +0.000 OA
ATOM     35  C   UNL     1      45.326   5.975  12.340  0.00  0.00    +0.000 A 
ATOM     36  H   UNL     1      43.021   7.818  10.888  0.00  0.00    +0.000 HD
ENDBRANCH  23  26
ENDBRANCH  21  22
ENDBRANCH   4  21
TORSDOF 7
ENDMDL
MODEL 9
REMARK VINA RESULT:    -6.582      3.891      8.555
REMARK INTER + INTRA:         -10.448
REMARK INTER:                  -9.199
REMARK INTRA:                  -1.249
REMARK UNBOUND:                -1.172
REMARK  Name = 
REMARK  7 active torsions:
REMARK  status: ('A' for Active; 'I' for Inactive)
REMARK    1  A    between atoms: C_2  and  C_4
REMARK    2  A    between atoms: C_7  and  C_8
REMARK    3  A    between atoms: C_8  and  N_9
REMARK    4  A    between atoms: N_9  and  C_10
REMARK    5  A    between atoms: C_13  and  C_14
REMARK    6  A    between atoms: C_14  and  N_15
REMARK    7  A    between atoms: C_16  and  C_18
REMARK                            x       y       z     vdW  Elec       q    Type
REMARK                         _______ _______ _______ _____ _____    ______ ____
ROOT
ATOM      1  C   UNL     1      49.947   8.189  17.991  0.00  0.00    +0.000 A 
ATOM      2  C   UNL     1      50.469   7.772  16.759  0.00  0.00    +0.000 A 
ATOM      3  C   UNL     1      49.824   8.081  15.550  0.00  0.00    +0.000 A 
ATOM      4  C   UNL     1      48.623   8.799  15.549  0.00  0.00    +0.000 A 
ATOM      5  C   UNL     1      48.048   9.130  16.778  0.00  0.00    +0.000 A 
ATOM      6  C   UNL     1      48.697   8.820  17.976  0.00  0.00    +0.000 A 
ENDROOT
BRANCH   1   7
ATOM      7  N   UNL     1      50.612   7.850  19.184  0.00  0.00    +0.000 N 
ATOM      8  H   UNL     1      50.792   8.672  19.756  0.00  0.00    +0.000 HD
BRANCH   7   9
ATOM      9  C   UNL     1      50.017   6.776  19.977  0.00  0.00    +0.000 C 
BRANCH   9  13
ATOM     10  C   UNL     1      50.239   3.101  17.706  0.00  0.00    +0.000 A 
ATOM     11  C   UNL     1      48.995   3.678  17.987  0.00  0.00    +0.000 A 
ATOM     12  C   UNL     1      48.919   4.848  18.750  0.00  0.00    +0.000 A 
ATOM     13  C   UNL     1      50.084   5.453  19.245  0.00  0.00    +0.000 A 
ATOM     14  C   UNL     1      51.325   4.855  18.979  0.00  0.00    +0.000 A 
ATOM     15  C   UNL     1      51.403   3.684  18.219  0.00  0.00    +0.000 A 
BRANCH  10  17
ATOM     16  N   UNL     1      51.351   0.985  17.229  0.00  0.00    +0.000 N 
ATOM     17  C   UNL     1      50.366   1.870  16.884  0.00  0.00    +0.000 C 
ATOM     18  O   UNL     1      49.601   1.629  15.961  0.00  0.00    +0.000 OA
ATOM     19  H   UNL     1      51.351   0.103  16.733  0.00  0.00    +0.000 HD
ATOM     20  H   UNL     1      51.820   1.020  18.123  0.00  0.00    +0.000 HD
ENDBRANCH  10  17
ENDBRANCH   9  13
ENDBRANCH   7   9
ENDBRANCH   1   7
BRANCH   4  21
ATOM     21  C   UNL     1      47.927   9.179  14.271  0.00  0.00    +0.000 C 
BRANCH  21  22
ATOM     22  N   UNL     1      47.267   8.050  13.669  0.00  0.00    +0.000 N 
ATOM     23  C   UNL     1      46.030   8.182  13.094  0.00  0.00    +0.000 C 
ATOM     24  O   UNL     1      45.458   9.267  13.023  0.00  0.00    +0.000 OA
ATOM     25  H   UNL     1      47.604   7.126  13.927  0.00  0.00    +0.000 HD
BRANCH  23  26
ATOM     26  C   UNL     1      45.447   6.971  12.506  0.00  0.00    +0.000 A 
ATOM     27  C   UNL     1      44.451   7.084  11.545  0.00  0.00    +0.000 A 
ATOM     28  S   UNL     1      43.928   5.586  10.923  0.00  0.00    +0.000 S 
ATOM     29  C   UNL     1      44.974   4.730  11.957  0.00  0.00    +0.000 A 
ATOM     30  N   UNL     1      45.003   3.370  11.950  0.00  0.00    +0.000 NA
ATOM     31  C   UNL     1      45.819   2.851  12.807  0.00  0.00    +0.000 A 
ATOM     32  N   UNL     1      46.610   3.569  13.667  0.00  0.00    +0.000 N 
ATOM     33  C   UNL     1      46.631   4.943  13.692  0.00  0.00    +0.000 A 
ATOM     34  O   UNL     1      47.377   5.556  14.449  0.00  0.00    +0.000 OA
ATOM     35  C   UNL     1      45.726   5.576  12.751  0.00  0.00    +0.000 A 
ATOM     36  H   UNL     1      47.230   3.102  14.311  0.00  0.00    +0.000 HD
ENDBRANCH  23  26
ENDBRANCH  21  22
ENDBRANCH   4  21
TORSDOF 7
ENDMDL
