MODEL 1
REMARK VINA RESULT:    -8.515      0.000      0.000
REMARK INTER + INTRA:         -12.881
REMARK INTER:                 -11.999
REMARK INTRA:                  -0.882
REMARK UNBOUND:                -0.882
REMARK  Name = 
REMARK  8 active torsions:
REMARK  status: ('A' for Active; 'I' for Inactive)
REMARK    1  A    between atoms: C_1  and  O_2
REMARK    2  A    between atoms: O_2  and  C_3
REMARK    3  A    between atoms: C_3  and  C_4
REMARK    4  A    between atoms: C_3  and  C_18
REMARK    5  A    between atoms: C_4  and  N_5
REMARK    6  A    between atoms: C_6  and  C_8
REMARK    7  A    between atoms: C_21  and  O_22
REMARK    8  A    between atoms: O_22  and  C_23
REMARK                            x       y       z     vdW  Elec       q    Type
REMARK                         _______ _______ _______ _____ _____    ______ ____
ROOT
ATOM      1  C   UNL     1      46.108   5.910  13.203  0.00  0.00    +0.000 C 
ENDROOT
BRANCH   1   2
ATOM      2  C   UNL     1      45.734   5.199  11.902  0.00  0.00    +0.000 A 
ATOM      3  C   UNL     1      45.159   3.915  11.959  0.00  0.00    +0.000 A 
ATOM      4  C   UNL     1      44.849   3.204  10.798  0.00  0.00    +0.000 A 
ATOM      5  C   UNL     1      45.030   3.794   9.549  0.00  0.00    +0.000 A 
ATOM      6  C   UNL     1      45.590   5.066   9.470  0.00  0.00    +0.000 A 
ATOM      7  C   UNL     1      45.926   5.767  10.634  0.00  0.00    +0.000 A 
BRANCH   5   8
ATOM      8  O   UNL     1      44.753   3.177   8.350  0.00  0.00    +0.000 OA
BRANCH   8   9
ATOM      9  C   UNL     1      45.776   2.663   7.586  0.00  0.00    +0.000 A 
ATOM     10  C   UNL     1      46.481   1.494   7.887  0.00  0.00    +0.000 A 
ATOM     11  C   UNL     1      47.523   1.071   7.061  0.00  0.00    +0.000 A 
ATOM     12  C   UNL     1      47.825   1.781   5.900  0.00  0.00    +0.000 A 
ATOM     13  C   UNL     1      47.081   2.911   5.561  0.00  0.00    +0.000 A 
ATOM     14  C   UNL     1      46.059   3.352   6.405  0.00  0.00    +0.000 A 
ENDBRANCH   8   9
ENDBRANCH   5   8
ENDBRANCH   1   2
BRANCH   1  16
ATOM     15  C   UNL     1      45.791   8.293  13.053  0.00  0.00    +0.000 C 
ATOM     16  O   UNL     1      45.210   7.032  13.338  0.00  0.00    +0.000 OA
ENDBRANCH   1  16
BRANCH   1  17
ATOM     17  C   UNL     1      46.077   5.032  14.480  0.00  0.00    +0.000 C 
BRANCH  17  18
ATOM     18  N   UNL     1      47.328   5.059  15.225  0.00  0.00    +0.000 N 
ATOM     19  C   UNL     1      47.490   4.351  16.394  0.00  0.00    +0.000 C 
ATOM     20  O   UNL     1      46.622   3.599  16.824  0.00  0.00    +0.000 OA
ATOM     21  H   UNL     1      48.001   5.772  14.964  0.00  0.00    +0.000 HD
BRANCH  19  22
ATOM     22  C   UNL     1      48.801   4.477  17.038  0.00  0.00    +0.000 A 
ATOM     23  C   UNL     1      49.184   5.680  17.607  0.00  0.00    +0.000 A 
ATOM     24  S   UNL     1      50.694   5.607  18.402  0.00  0.00    +0.000 S 
ATOM     25  C   UNL     1      50.909   3.976  17.965  0.00  0.00    +0.000 A 
ATOM     26  N   UNL     1      52.013   3.276  18.345  0.00  0.00    +0.000 NA
ATOM     27  C   UNL     1      52.043   2.055  17.923  0.00  0.00    +0.000 A 
ATOM     28  N   UNL     1      51.081   1.483  17.133  0.00  0.00    +0.000 N 
ATOM     29  C   UNL     1      49.974   2.162  16.693  0.00  0.00    +0.000 A 
ATOM     30  O   UNL     1      49.175   1.650  15.925  0.00  0.00    +0.000 OA
ATOM     31  C   UNL     1      49.857   3.508  17.197  0.00  0.00    +0.000 A 
ATOM     32  H   UNL     1      51.180   0.530  16.804  0.00  0.00    +0.000 HD
ENDBRANCH  19  22
ENDBRANCH  17  18
ENDBRANCH   1  17
TORSDOF 7
ENDMDL
MODEL 2
REMARK VINA RESULT:    -8.251      3.505      6.546
REMARK INTER + INTRA:         -12.510
REMARK INTER:                 -11.148
REMARK INTRA:                  -1.361
REMARK UNBOUND:                -0.882
REMARK  Name = 
REMARK  8 active torsions:
REMARK  status: ('A' for Active; 'I' for Inactive)
REMARK    1  A    between atoms: C_1  and  O_2
REMARK    2  A    between atoms: O_2  and  C_3
REMARK    3  A    between atoms: C_3  and  C_4
REMARK    4  A    between atoms: C_3  and  C_18
REMARK    5  A    between atoms: C_4  and  N_5
REMARK    6  A    between atoms: C_6  and  C_8
REMARK    7  A    between atoms: C_21  and  O_22
REMARK    8  A    between atoms: O_22  and  C_23
REMARK                            x       y       z     vdW  Elec       q    Type
REMARK                         _______ _______ _______ _____ _____    ______ ____
ROOT
ATOM      1  C   UNL     1      46.076   5.495  13.652  0.00  0.00    +0.000 C 
ENDROOT
BRANCH   1   2
ATOM      2  C   UNL     1      45.671   4.923  12.293  0.00  0.00    +0.000 A 
ATOM      3  C   UNL     1      45.159   3.614  12.222  0.00  0.00    +0.000 A 
ATOM      4  C   UNL     1      44.824   3.028  10.999  0.00  0.00    +0.000 A 
ATOM      5  C   UNL     1      44.915   3.769   9.823  0.00  0.00    +0.000 A 
ATOM      6  C   UNL     1      45.412   5.069   9.871  0.00  0.00    +0.000 A 
ATOM      7  C   UNL     1      45.774   5.645  11.095  0.00  0.00    +0.000 A 
BRANCH   5   8
ATOM      8  O   UNL     1      44.607   3.283   8.573  0.00  0.00    +0.000 OA
BRANCH   8   9
ATOM      9  C   UNL     1      45.604   2.800   7.755  0.00  0.00    +0.000 A 
ATOM     10  C   UNL     1      46.116   3.476   6.644  0.00  0.00    +0.000 A 
ATOM     11  C   UNL     1      47.110   2.887   5.861  0.00  0.00    +0.000 A 
ATOM     12  C   UNL     1      47.637   1.647   6.220  0.00  0.00    +0.000 A 
ATOM     13  C   UNL     1      47.175   0.999   7.365  0.00  0.00    +0.000 A 
ATOM     14  C   UNL     1      46.159   1.574   8.130  0.00  0.00    +0.000 A 
ENDBRANCH   8   9
ENDBRANCH   5   8
ENDBRANCH   1   2
BRANCH   1  16
ATOM     15  C   UNL     1      47.226   4.343  15.429  0.00  0.00    +0.000 C 
ATOM     16  O   UNL     1      46.089   4.391  14.582  0.00  0.00    +0.000 OA
ENDBRANCH   1  16
BRANCH   1  17
ATOM     17  C   UNL     1      47.429   6.250  13.686  0.00  0.00    +0.000 C 
BRANCH  17  18
ATOM     18  N   UNL     1      47.305   7.665  13.365  0.00  0.00    +0.000 N 
ATOM     19  C   UNL     1      47.973   8.228  12.302  0.00  0.00    +0.000 C 
ATOM     20  O   UNL     1      48.640   7.555  11.523  0.00  0.00    +0.000 OA
ATOM     21  H   UNL     1      46.874   8.257  14.067  0.00  0.00    +0.000 HD
BRANCH  19  22
ATOM     22  C   UNL     1      47.757   9.664  12.102  0.00  0.00    +0.000 A 
ATOM     23  C   UNL     1      48.838  10.527  12.025  0.00  0.00    +0.000 A 
ATOM     24  S   UNL     1      48.397  12.141  11.684  0.00  0.00    +0.000 S 
ATOM     25  C   UNL     1      46.741  11.748  11.681  0.00  0.00    +0.000 A 
ATOM     26  N   UNL     1      45.787  12.687  11.433  0.00  0.00    +0.000 NA
ATOM     27  C   UNL     1      44.574  12.243  11.483  0.00  0.00    +0.000 A 
ATOM     28  N   UNL     1      44.233  10.950  11.785  0.00  0.00    +0.000 N 
ATOM     29  C   UNL     1      45.158   9.982  12.081  0.00  0.00    +0.000 A 
ATOM     30  O   UNL     1      44.821   8.861  12.424  0.00  0.00    +0.000 OA
ATOM     31  C   UNL     1      46.530  10.411  11.968  0.00  0.00    +0.000 A 
ATOM     32  H   UNL     1      43.261  10.671  11.844  0.00  0.00    +0.000 HD
ENDBRANCH  19  22
ENDBRANCH  17  18
ENDBRANCH   1  17
TORSDOF 7
ENDMDL
MODEL 3
REMARK VINA RESULT:    -7.837      1.850      2.737
REMARK INTER + INTRA:         -11.926
REMARK INTER:                 -10.988
REMARK INTRA:                  -0.938
REMARK UNBOUND:                -0.882
REMARK  Name = 
REMARK  8 active torsions:
REMARK  status: ('A' for Active; 'I' for Inactive)
REMARK    1  A    between atoms: C_1  and  O_2
REMARK    2  A    between atoms: O_2  and  C_3
REMARK    3  A    between atoms: C_3  and  C_4
REMARK    4  A    between atoms: C_3  and  C_18
REMARK    5  A    between atoms: C_4  and  N_5
REMARK    6  A    between atoms: C_6  and  C_8
REMARK    7  A    between atoms: C_21  and  O_22
REMARK    8  A    between atoms: O_22  and  C_23
REMARK                            x       y       z     vdW  Elec       q    Type
REMARK                         _______ _______ _______ _____ _____    ______ ____
ROOT
ATOM      1  C   UNL     1      48.643   6.791  14.566  0.00  0.00    +0.000 C 
ENDROOT
BRANCH   1   2
ATOM      2  C   UNL     1      47.576   6.296  13.589  0.00  0.00    +0.000 A 
ATOM      3  C   UNL     1      46.923   5.075  13.842  0.00  0.00    +0.000 A 
ATOM      4  C   UNL     1      45.980   4.556  12.952  0.00  0.00    +0.000 A 
ATOM      5  C   UNL     1      45.605   5.287  11.827  0.00  0.00    +0.000 A 
ATOM      6  C   UNL     1      46.233   6.501  11.562  0.00  0.00    +0.000 A 
ATOM      7  C   UNL     1      47.198   7.008  12.440  0.00  0.00    +0.000 A 
BRANCH   5   8
ATOM      8  O   UNL     1      44.686   4.862  10.895  0.00  0.00    +0.000 OA
BRANCH   8   9
ATOM      9  C   UNL     1      45.093   4.110   9.817  0.00  0.00    +0.000 A 
ATOM     10  C   UNL     1      45.772   4.620   8.705  0.00  0.00    +0.000 A 
ATOM     11  C   UNL     1      46.117   3.777   7.648  0.00  0.00    +0.000 A 
ATOM     12  C   UNL     1      45.840   2.412   7.724  0.00  0.00    +0.000 A 
ATOM     13  C   UNL     1      45.222   1.890   8.859  0.00  0.00    +0.000 A 
ATOM     14  C   UNL     1      44.848   2.738   9.904  0.00  0.00    +0.000 A 
ENDBRANCH   8   9
ENDBRANCH   5   8
ENDBRANCH   1   2
BRANCH   1  16
ATOM     15  C   UNL     1      48.193   8.913  15.616  0.00  0.00    +0.000 C 
ATOM     16  O   UNL     1      48.665   8.231  14.466  0.00  0.00    +0.000 OA
ENDBRANCH   1  16
BRANCH   1  17
ATOM     17  C   UNL     1      48.458   6.352  16.041  0.00  0.00    +0.000 C 
BRANCH  17  18
ATOM     18  N   UNL     1      49.651   5.745  16.613  0.00  0.00    +0.000 N 
ATOM     19  C   UNL     1      49.576   4.675  17.477  0.00  0.00    +0.000 C 
ATOM     20  O   UNL     1      48.512   4.129  17.744  0.00  0.00    +0.000 OA
ATOM     21  H   UNL     1      50.519   6.260  16.515  0.00  0.00    +0.000 HD
BRANCH  19  22
ATOM     22  C   UNL     1      50.858   4.172  17.978  0.00  0.00    +0.000 A 
ATOM     23  C   UNL     1      51.681   4.991  18.734  0.00  0.00    +0.000 A 
ATOM     24  S   UNL     1      53.077   4.201  19.318  0.00  0.00    +0.000 S 
ATOM     25  C   UNL     1      52.654   2.750  18.535  0.00  0.00    +0.000 A 
ATOM     26  N   UNL     1      53.427   1.634  18.635  0.00  0.00    +0.000 NA
ATOM     27  C   UNL     1      52.986   0.617  17.972  0.00  0.00    +0.000 A 
ATOM     28  N   UNL     1      51.856   0.627  17.197  0.00  0.00    +0.000 N 
ATOM     29  C   UNL     1      51.070   1.738  17.035  0.00  0.00    +0.000 A 
ATOM     30  O   UNL     1      50.114   1.739  16.276  0.00  0.00    +0.000 OA
ATOM     31  C   UNL     1      51.480   2.881  17.813  0.00  0.00    +0.000 A 
ATOM     32  H   UNL     1      51.581  -0.194  16.671  0.00  0.00    +0.000 HD
ENDBRANCH  19  22
ENDBRANCH  17  18
ENDBRANCH   1  17
TORSDOF 7
ENDMDL
MODEL 4
REMARK VINA RESULT:    -7.592      1.812      2.387
REMARK INTER + INTRA:         -11.581
REMARK INTER:                 -10.572
REMARK INTRA:                  -1.009
REMARK UNBOUND:                -0.882
REMARK  Name = 
REMARK  8 active torsions:
REMARK  status: ('A' for Active; 'I' for Inactive)
REMARK    1  A    between atoms: C_1  and  O_2
REMARK    2  A    between atoms: O_2  and  C_3
REMARK    3  A    between atoms: C_3  and  C_4
REMARK    4  A    between atoms: C_3  and  C_18
REMARK    5  A    between atoms: C_4  and  N_5
REMARK    6  A    between atoms: C_6  and  C_8
REMARK    7  A    between atoms: C_21  and  O_22
REMARK    8  A    between atoms: O_22  and  C_23
REMARK                            x       y       z     vdW  Elec       q    Type
REMARK                         _______ _______ _______ _____ _____    ______ ____
ROOT
ATOM      1  C   UNL     1      46.081   5.958  12.999  0.00  0.00    +0.000 C 
ENDROOT
BRANCH   1   2
ATOM      2  C   UNL     1      45.748   5.365  11.630  0.00  0.00    +0.000 A 
ATOM      3  C   UNL     1      44.977   4.189  11.558  0.00  0.00    +0.000 A 
ATOM      4  C   UNL     1      44.690   3.580  10.334  0.00  0.00    +0.000 A 
ATOM      5  C   UNL     1      45.098   4.179   9.144  0.00  0.00    +0.000 A 
ATOM      6  C   UNL     1      45.855   5.347   9.192  0.00  0.00    +0.000 A 
ATOM      7  C   UNL     1      46.165   5.942  10.421  0.00  0.00    +0.000 A 
BRANCH   5   8
ATOM      8  O   UNL     1      44.862   3.660   7.892  0.00  0.00    +0.000 OA
BRANCH   8   9
ATOM      9  C   UNL     1      45.877   3.034   7.202  0.00  0.00    +0.000 A 
ATOM     10  C   UNL     1      46.390   3.471   5.977  0.00  0.00    +0.000 A 
ATOM     11  C   UNL     1      47.402   2.748   5.345  0.00  0.00    +0.000 A 
ATOM     12  C   UNL     1      47.946   1.622   5.961  0.00  0.00    +0.000 A 
ATOM     13  C   UNL     1      47.482   1.221   7.213  0.00  0.00    +0.000 A 
ATOM     14  C   UNL     1      46.447   1.926   7.832  0.00  0.00    +0.000 A 
ENDBRANCH   8   9
ENDBRANCH   5   8
ENDBRANCH   1   2
BRANCH   1  16
ATOM     15  C   UNL     1      45.514   8.298  12.919  0.00  0.00    +0.000 C 
ATOM     16  O   UNL     1      45.101   6.985  13.259  0.00  0.00    +0.000 OA
ENDBRANCH   1  16
BRANCH   1  17
ATOM     17  C   UNL     1      46.135   4.948  14.173  0.00  0.00    +0.000 C 
BRANCH  17  18
ATOM     18  N   UNL     1      47.031   5.360  15.244  0.00  0.00    +0.000 N 
ATOM     19  C   UNL     1      47.626   4.444  16.083  0.00  0.00    +0.000 C 
ATOM     20  O   UNL     1      47.499   3.236  15.921  0.00  0.00    +0.000 OA
ATOM     21  H   UNL     1      47.041   6.347  15.479  0.00  0.00    +0.000 HD
BRANCH  19  22
ATOM     22  C   UNL     1      48.499   5.004  17.119  0.00  0.00    +0.000 A 
ATOM     23  C   UNL     1      48.316   4.656  18.447  0.00  0.00    +0.000 A 
ATOM     24  S   UNL     1      49.492   5.319  19.493  0.00  0.00    +0.000 S 
ATOM     25  C   UNL     1      50.253   6.139  18.210  0.00  0.00    +0.000 A 
ATOM     26  N   UNL     1      51.363   6.901  18.410  0.00  0.00    +0.000 NA
ATOM     27  C   UNL     1      51.817   7.475  17.345  0.00  0.00    +0.000 A 
ATOM     28  N   UNL     1      51.244   7.374  16.105  0.00  0.00    +0.000 N 
ATOM     29  C   UNL     1      50.104   6.650  15.865  0.00  0.00    +0.000 A 
ATOM     30  O   UNL     1      49.572   6.643  14.767  0.00  0.00    +0.000 OA
ATOM     31  C   UNL     1      49.598   5.932  17.009  0.00  0.00    +0.000 A 
ATOM     32  H   UNL     1      51.627   7.877  15.314  0.00  0.00    +0.000 HD
ENDBRANCH  19  22
ENDBRANCH  17  18
ENDBRANCH   1  17
TORSDOF 7
ENDMDL
MODEL 5
REMARK VINA RESULT:    -7.426      1.891      2.567
REMARK INTER + INTRA:         -11.347
REMARK INTER:                 -10.995
REMARK INTRA:                  -0.352
REMARK UNBOUND:                -0.882
REMARK  Name = 
REMARK  8 active torsions:
REMARK  status: ('A' for Active; 'I' for Inactive)
REMARK    1  A    between atoms: C_1  and  O_2
REMARK    2  A    between atoms: O_2  and  C_3
REMARK    3  A    between atoms: C_3  and  C_4
REMARK    4  A    between atoms: C_3  and  C_18
REMARK    5  A    between atoms: C_4  and  N_5
REMARK    6  A    between atoms: C_6  and  C_8
REMARK    7  A    between atoms: C_21  and  O_22
REMARK    8  A    between atoms: O_22  and  C_23
REMARK                            x       y       z     vdW  Elec       q    Type
REMARK                         _______ _______ _______ _____ _____    ______ ____
ROOT
ATOM      1  C   UNL     1      45.243   5.077  13.183  0.00  0.00    +0.000 C 
ENDROOT
BRANCH   1   2
ATOM      2  C   UNL     1      45.155   4.766  11.688  0.00  0.00    +0.000 A 
ATOM      3  C   UNL     1      44.536   3.575  11.266  0.00  0.00    +0.000 A 
ATOM      4  C   UNL     1      44.479   3.222   9.917  0.00  0.00    +0.000 A 
ATOM      5  C   UNL     1      44.966   4.094   8.946  0.00  0.00    +0.000 A 
ATOM      6  C   UNL     1      45.576   5.282   9.340  0.00  0.00    +0.000 A 
ATOM      7  C   UNL     1      45.658   5.622  10.696  0.00  0.00    +0.000 A 
BRANCH   5   8
ATOM      8  O   UNL     1      44.953   3.838   7.594  0.00  0.00    +0.000 OA
BRANCH   8   9
ATOM      9  C   UNL     1      45.977   3.123   7.016  0.00  0.00    +0.000 A 
ATOM     10  C   UNL     1      46.609   3.468   5.818  0.00  0.00    +0.000 A 
ATOM     11  C   UNL     1      47.622   2.659   5.301  0.00  0.00    +0.000 A 
ATOM     12  C   UNL     1      48.047   1.535   6.010  0.00  0.00    +0.000 A 
ATOM     13  C   UNL     1      47.465   1.224   7.237  0.00  0.00    +0.000 A 
ATOM     14  C   UNL     1      46.430   2.017   7.739  0.00  0.00    +0.000 A 
ENDBRANCH   8   9
ENDBRANCH   5   8
ENDBRANCH   1   2
BRANCH   1  16
ATOM     15  C   UNL     1      42.861   5.383  12.990  0.00  0.00    +0.000 C 
ATOM     16  O   UNL     1      43.933   4.831  13.736  0.00  0.00    +0.000 OA
ENDBRANCH   1  16
BRANCH   1  17
ATOM     17  C   UNL     1      46.322   4.291  13.969  0.00  0.00    +0.000 C 
BRANCH  17  18
ATOM     18  N   UNL     1      47.027   5.107  14.947  0.00  0.00    +0.000 N 
ATOM     19  C   UNL     1      48.101   5.893  14.595  0.00  0.00    +0.000 C 
ATOM     20  O   UNL     1      48.466   6.012  13.430  0.00  0.00    +0.000 OA
ATOM     21  H   UNL     1      46.832   4.921  15.925  0.00  0.00    +0.000 HD
BRANCH  19  22
ATOM     22  C   UNL     1      48.715   6.656  15.685  0.00  0.00    +0.000 A 
ATOM     23  C   UNL     1      48.802   8.037  15.607  0.00  0.00    +0.000 A 
ATOM     24  S   UNL     1      49.448   8.759  17.013  0.00  0.00    +0.000 S 
ATOM     25  C   UNL     1      49.683   7.244  17.752  0.00  0.00    +0.000 A 
ATOM     26  N   UNL     1      50.200   7.136  19.007  0.00  0.00    +0.000 NA
ATOM     27  C   UNL     1      50.336   5.922  19.427  0.00  0.00    +0.000 A 
ATOM     28  N   UNL     1      50.025   4.808  18.692  0.00  0.00    +0.000 N 
ATOM     29  C   UNL     1      49.540   4.868  17.411  0.00  0.00    +0.000 A 
ATOM     30  O   UNL     1      49.347   3.858  16.754  0.00  0.00    +0.000 OA
ATOM     31  C   UNL     1      49.302   6.204  16.923  0.00  0.00    +0.000 A 
ATOM     32  H   UNL     1      50.188   3.880  19.064  0.00  0.00    +0.000 HD
ENDBRANCH  19  22
ENDBRANCH  17  18
ENDBRANCH   1  17
TORSDOF 7
ENDMDL
MODEL 6
REMARK VINA RESULT:    -7.383      2.730      3.451
REMARK INTER + INTRA:         -11.286
REMARK INTER:                 -10.567
REMARK INTRA:                  -0.719
REMARK UNBOUND:                -0.882
REMARK  Name = 
REMARK  8 active torsions:
REMARK  status: ('A' for Active; 'I' for Inactive)
REMARK    1  A    between atoms: C_1  and  O_2
REMARK    2  A    between atoms: O_2  and  C_3
REMARK    3  A    between atoms: C_3  and  C_4
REMARK    4  A    between atoms: C_3  and  C_18
REMARK    5  A    between atoms: C_4  and  N_5
REMARK    6  A    between atoms: C_6  and  C_8
REMARK    7  A    between atoms: C_21  and  O_22
REMARK    8  A    between atoms: O_22  and  C_23
REMARK                            x       y       z     vdW  Elec       q    Type
REMARK                         _______ _______ _______ _____ _____    ______ ____
ROOT
ATOM      1  C   UNL     1      46.204   5.420  13.910  0.00  0.00    +0.000 C 
ENDROOT
BRANCH   1   2
ATOM      2  C   UNL     1      45.843   4.913  12.513  0.00  0.00    +0.000 A 
ATOM      3  C   UNL     1      46.054   5.750  11.401  0.00  0.00    +0.000 A 
ATOM      4  C   UNL     1      45.691   5.353  10.112  0.00  0.00    +0.000 A 
ATOM      5  C   UNL     1      45.184   4.074   9.893  0.00  0.00    +0.000 A 
ATOM      6  C   UNL     1      44.975   3.227  10.978  0.00  0.00    +0.000 A 
ATOM      7  C   UNL     1      45.313   3.637  12.274  0.00  0.00    +0.000 A 
BRANCH   5   8
ATOM      8  O   UNL     1      44.801   3.591   8.663  0.00  0.00    +0.000 OA
BRANCH   8   9
ATOM      9  C   UNL     1      45.693   2.878   7.893  0.00  0.00    +0.000 A 
ATOM     10  C   UNL     1      46.096   1.565   8.157  0.00  0.00    +0.000 A 
ATOM     11  C   UNL     1      47.029   0.939   7.330  0.00  0.00    +0.000 A 
ATOM     12  C   UNL     1      47.517   1.600   6.203  0.00  0.00    +0.000 A 
ATOM     13  C   UNL     1      47.068   2.885   5.900  0.00  0.00    +0.000 A 
ATOM     14  C   UNL     1      46.158   3.523   6.745  0.00  0.00    +0.000 A 
ENDBRANCH   8   9
ENDBRANCH   5   8
ENDBRANCH   1   2
BRANCH   1  16
ATOM     15  C   UNL     1      47.414   3.564  14.858  0.00  0.00    +0.000 C 
ATOM     16  O   UNL     1      46.188   4.273  14.787  0.00  0.00    +0.000 OA
ENDBRANCH   1  16
BRANCH   1  17
ATOM     17  C   UNL     1      47.555   6.172  14.023  0.00  0.00    +0.000 C 
BRANCH  17  18
ATOM     18  N   UNL     1      47.753   6.805  15.318  0.00  0.00    +0.000 N 
ATOM     19  C   UNL     1      48.929   6.668  16.020  0.00  0.00    +0.000 C 
ATOM     20  O   UNL     1      49.898   6.076  15.555  0.00  0.00    +0.000 OA
ATOM     21  H   UNL     1      46.928   7.179  15.776  0.00  0.00    +0.000 HD
BRANCH  19  22
ATOM     22  C   UNL     1      48.984   7.357  17.312  0.00  0.00    +0.000 A 
ATOM     23  C   UNL     1      49.700   8.536  17.443  0.00  0.00    +0.000 A 
ATOM     24  S   UNL     1      49.560   9.249  18.988  0.00  0.00    +0.000 S 
ATOM     25  C   UNL     1      48.580   7.976  19.550  0.00  0.00    +0.000 A 
ATOM     26  N   UNL     1      48.084   7.965  20.818  0.00  0.00    +0.000 NA
ATOM     27  C   UNL     1      47.372   6.925  21.104  0.00  0.00    +0.000 A 
ATOM     28  N   UNL     1      47.136   5.886  20.243  0.00  0.00    +0.000 N 
ATOM     29  C   UNL     1      47.648   5.836  18.972  0.00  0.00    +0.000 A 
ATOM     30  O   UNL     1      47.486   4.861  18.257  0.00  0.00    +0.000 OA
ATOM     31  C   UNL     1      48.391   7.008  18.580  0.00  0.00    +0.000 A 
ATOM     32  H   UNL     1      46.598   5.080  20.539  0.00  0.00    +0.000 HD
ENDBRANCH  19  22
ENDBRANCH  17  18
ENDBRANCH   1  17
TORSDOF 7
ENDMDL
MODEL 7
REMARK VINA RESULT:    -7.222      3.654      5.698
REMARK INTER + INTRA:         -11.059
REMARK INTER:                  -9.875
REMARK INTRA:                  -1.183
REMARK UNBOUND:                -0.882
REMARK  Name = 
REMARK  8 active torsions:
REMARK  status: ('A' for Active; 'I' for Inactive)
REMARK    1  A    between atoms: C_1  and  O_2
REMARK    2  A    between atoms: O_2  and  C_3
REMARK    3  A    between atoms: C_3  and  C_4
REMARK    4  A    between atoms: C_3  and  C_18
REMARK    5  A    between atoms: C_4  and  N_5
REMARK    6  A    between atoms: C_6  and  C_8
REMARK    7  A    between atoms: C_21  and  O_22
REMARK    8  A    between atoms: O_22  and  C_23
REMARK                            x       y       z     vdW  Elec       q    Type
REMARK                         _______ _______ _______ _____ _____    ______ ____
ROOT
ATOM      1  C   UNL     1      46.573   5.357  14.074  0.00  0.00    +0.000 C 
ENDROOT
BRANCH   1   2
ATOM      2  C   UNL     1      46.047   4.908  12.710  0.00  0.00    +0.000 A 
ATOM      3  C   UNL     1      45.490   3.623  12.575  0.00  0.00    +0.000 A 
ATOM      4  C   UNL     1      45.044   3.148  11.340  0.00  0.00    +0.000 A 
ATOM      5  C   UNL     1      45.069   3.979  10.223  0.00  0.00    +0.000 A 
ATOM      6  C   UNL     1      45.609   5.258  10.335  0.00  0.00    +0.000 A 
ATOM      7  C   UNL     1      46.081   5.723  11.568  0.00  0.00    +0.000 A 
BRANCH   5   8
ATOM      8  O   UNL     1      44.651   3.605   8.966  0.00  0.00    +0.000 OA
BRANCH   8   9
ATOM      9  C   UNL     1      45.522   2.971   8.110  0.00  0.00    +0.000 A 
ATOM     10  C   UNL     1      46.137   3.577   7.010  0.00  0.00    +0.000 A 
ATOM     11  C   UNL     1      46.985   2.837   6.185  0.00  0.00    +0.000 A 
ATOM     12  C   UNL     1      47.268   1.506   6.489  0.00  0.00    +0.000 A 
ATOM     13  C   UNL     1      46.708   0.916   7.622  0.00  0.00    +0.000 A 
ATOM     14  C   UNL     1      45.835   1.648   8.430  0.00  0.00    +0.000 A 
ENDBRANCH   8   9
ENDBRANCH   5   8
ENDBRANCH   1   2
BRANCH   1  16
ATOM     15  C   UNL     1      47.304   4.314  16.119  0.00  0.00    +0.000 C 
ATOM     16  O   UNL     1      46.524   4.204  14.940  0.00  0.00    +0.000 OA
ENDBRANCH   1  16
BRANCH   1  17
ATOM     17  C   UNL     1      47.994   5.978  14.074  0.00  0.00    +0.000 C 
BRANCH  17  18
ATOM     18  N   UNL     1      47.989   7.422  13.889  0.00  0.00    +0.000 N 
ATOM     19  C   UNL     1      48.692   8.024  12.870  0.00  0.00    +0.000 C 
ATOM     20  O   UNL     1      49.289   7.372  12.020  0.00  0.00    +0.000 OA
ATOM     21  H   UNL     1      47.619   7.980  14.651  0.00  0.00    +0.000 HD
BRANCH  19  22
ATOM     22  C   UNL     1      48.599   9.485  12.810  0.00  0.00    +0.000 A 
ATOM     23  C   UNL     1      48.100  10.105  11.675  0.00  0.00    +0.000 A 
ATOM     24  S   UNL     1      47.966  11.800  11.829  0.00  0.00    +0.000 S 
ATOM     25  C   UNL     1      48.623  11.767  13.399  0.00  0.00    +0.000 A 
ATOM     26  N   UNL     1      48.777  12.904  14.131  0.00  0.00    +0.000 NA
ATOM     27  C   UNL     1      49.305  12.722  15.297  0.00  0.00    +0.000 A 
ATOM     28  N   UNL     1      49.715  11.508  15.782  0.00  0.00    +0.000 N 
ATOM     29  C   UNL     1      49.616  10.344  15.065  0.00  0.00    +0.000 A 
ATOM     30  O   UNL     1      50.062   9.291  15.491  0.00  0.00    +0.000 OA
ATOM     31  C   UNL     1      48.967  10.483  13.784  0.00  0.00    +0.000 A 
ATOM     32  H   UNL     1      50.155  11.435  16.691  0.00  0.00    +0.000 HD
ENDBRANCH  19  22
ENDBRANCH  17  18
ENDBRANCH   1  17
TORSDOF 7
ENDMDL
MODEL 8
REMARK VINA RESULT:    -7.185      4.272     10.394
REMARK INTER + INTRA:         -11.007
REMARK INTER:                  -9.864
REMARK INTRA:                  -1.143
REMARK UNBOUND:                -0.882
REMARK  Name = 
REMARK  8 active torsions:
REMARK  status: ('A' for Active; 'I' for Inactive)
REMARK    1  A    between atoms: C_1  and  O_2
REMARK    2  A    between atoms: O_2  and  C_3
REMARK    3  A    between atoms: C_3  and  C_4
REMARK    4  A    between atoms: C_3  and  C_18
REMARK    5  A    between atoms: C_4  and  N_5
REMARK    6  A    between atoms: C_6  and  C_8
REMARK    7  A    between atoms: C_21  and  O_22
REMARK    8  A    between atoms: O_22  and  C_23
REMARK                            x       y       z     vdW  Elec       q    Type
REMARK                         _______ _______ _______ _____ _____    ______ ____
ROOT
ATOM      1  C   UNL     1      48.775   3.915  17.148  0.00  0.00    +0.000 C 
ENDROOT
BRANCH   1   2
ATOM      2  C   UNL     1      48.832   5.088  18.128  0.00  0.00    +0.000 A 
ATOM      3  C   UNL     1      48.038   5.055  19.289  0.00  0.00    +0.000 A 
ATOM      4  C   UNL     1      48.015   6.125  20.187  0.00  0.00    +0.000 A 
ATOM      5  C   UNL     1      48.852   7.220  19.988  0.00  0.00    +0.000 A 
ATOM      6  C   UNL     1      49.653   7.270  18.849  0.00  0.00    +0.000 A 
ATOM      7  C   UNL     1      49.653   6.209  17.935  0.00  0.00    +0.000 A 
BRANCH   5   8
ATOM      8  O   UNL     1      48.905   8.319  20.815  0.00  0.00    +0.000 OA
BRANCH   8   9
ATOM      9  C   UNL     1      47.785   9.098  20.999  0.00  0.00    +0.000 A 
ATOM     10  C   UNL     1      47.011   9.113  22.163  0.00  0.00    +0.000 A 
ATOM     11  C   UNL     1      45.875   9.920  22.239  0.00  0.00    +0.000 A 
ATOM     12  C   UNL     1      45.543  10.759  21.176  0.00  0.00    +0.000 A 
ATOM     13  C   UNL     1      46.349  10.796  20.040  0.00  0.00    +0.000 A 
ATOM     14  C   UNL     1      47.468   9.965  19.951  0.00  0.00    +0.000 A 
ENDBRANCH   8   9
ENDBRANCH   5   8
ENDBRANCH   1   2
BRANCH   1  16
ATOM     15  C   UNL     1      50.744   2.547  17.388  0.00  0.00    +0.000 C 
ATOM     16  O   UNL     1      49.410   2.795  17.801  0.00  0.00    +0.000 OA
ENDBRANCH   1  16
BRANCH   1  17
ATOM     17  C   UNL     1      47.360   3.524  16.652  0.00  0.00    +0.000 C 
BRANCH  17  18
ATOM     18  N   UNL     1      46.800   4.478  15.706  0.00  0.00    +0.000 N 
ATOM     19  C   UNL     1      46.794   4.236  14.350  0.00  0.00    +0.000 C 
ATOM     20  O   UNL     1      47.182   3.173  13.878  0.00  0.00    +0.000 OA
ATOM     21  H   UNL     1      46.602   5.409  16.057  0.00  0.00    +0.000 HD
BRANCH  19  22
ATOM     22  C   UNL     1      46.202   5.288  13.519  0.00  0.00    +0.000 A 
ATOM     23  C   UNL     1      46.913   6.447  13.252  0.00  0.00    +0.000 A 
ATOM     24  S   UNL     1      46.110   7.507  12.182  0.00  0.00    +0.000 S 
ATOM     25  C   UNL     1      44.760   6.475  12.081  0.00  0.00    +0.000 A 
ATOM     26  N   UNL     1      43.687   6.779  11.301  0.00  0.00    +0.000 NA
ATOM     27  C   UNL     1      42.733   5.908  11.341  0.00  0.00    +0.000 A 
ATOM     28  N   UNL     1      42.748   4.776  12.112  0.00  0.00    +0.000 N 
ATOM     29  C   UNL     1      43.790   4.450  12.942  0.00  0.00    +0.000 A 
ATOM     30  O   UNL     1      43.741   3.476  13.676  0.00  0.00    +0.000 OA
ATOM     31  C   UNL     1      44.911   5.355  12.879  0.00  0.00    +0.000 A 
ATOM     32  H   UNL     1      41.953   4.149  12.128  0.00  0.00    +0.000 HD
ENDBRANCH  19  22
ENDBRANCH  17  18
ENDBRANCH   1  17
TORSDOF 7
ENDMDL
MODEL 9
REMARK VINA RESULT:    -7.050      3.851      5.836
REMARK INTER + INTRA:         -10.817
REMARK INTER:                  -8.872
REMARK INTRA:                  -1.945
REMARK UNBOUND:                -0.882
REMARK  Name = 
REMARK  8 active torsions:
REMARK  status: ('A' for Active; 'I' for Inactive)
REMARK    1  A    between atoms: C_1  and  O_2
REMARK    2  A    between atoms: O_2  and  C_3
REMARK    3  A    between atoms: C_3  and  C_4
REMARK    4  A    between atoms: C_3  and  C_18
REMARK    5  A    between atoms: C_4  and  N_5
REMARK    6  A    between atoms: C_6  and  C_8
REMARK    7  A    between atoms: C_21  and  O_22
REMARK    8  A    between atoms: O_22  and  C_23
REMARK                            x       y       z     vdW  Elec       q    Type
REMARK                         _______ _______ _______ _____ _____    ______ ____
ROOT
ATOM      1  C   UNL     1      44.707   6.020  12.824  0.00  0.00    +0.000 C 
ENDROOT
BRANCH   1   2
ATOM      2  C   UNL     1      45.842   7.004  12.536  0.00  0.00    +0.000 A 
ATOM      3  C   UNL     1      46.955   6.574  11.791  0.00  0.00    +0.000 A 
ATOM      4  C   UNL     1      48.040   7.419  11.547  0.00  0.00    +0.000 A 
ATOM      5  C   UNL     1      48.001   8.744  11.973  0.00  0.00    +0.000 A 
ATOM      6  C   UNL     1      46.905   9.194  12.706  0.00  0.00    +0.000 A 
ATOM      7  C   UNL     1      45.831   8.337  12.973  0.00  0.00    +0.000 A 
BRANCH   5   8
ATOM      8  O   UNL     1      49.016   9.653  11.780  0.00  0.00    +0.000 OA
BRANCH   8   9
ATOM      9  C   UNL     1      50.317   9.306  12.067  0.00  0.00    +0.000 A 
ATOM     10  C   UNL     1      51.315   9.105  11.109  0.00  0.00    +0.000 A 
ATOM     11  C   UNL     1      52.599   8.727  11.503  0.00  0.00    +0.000 A 
ATOM     12  C   UNL     1      52.906   8.607  12.858  0.00  0.00    +0.000 A 
ATOM     13  C   UNL     1      51.931   8.870  13.819  0.00  0.00    +0.000 A 
ATOM     14  C   UNL     1      50.637   9.218  13.424  0.00  0.00    +0.000 A 
ENDBRANCH   8   9
ENDBRANCH   5   8
ENDBRANCH   1   2
BRANCH   1  16
ATOM     15  C   UNL     1      42.583   5.597  11.768  0.00  0.00    +0.000 C 
ATOM     16  O   UNL     1      43.964   5.871  11.595  0.00  0.00    +0.000 OA
ENDBRANCH   1  16
BRANCH   1  17
ATOM     17  C   UNL     1      45.141   4.636  13.369  0.00  0.00    +0.000 C 
BRANCH  17  18
ATOM     18  N   UNL     1      45.894   4.719  14.612  0.00  0.00    +0.000 N 
ATOM     19  C   UNL     1      46.988   3.918  14.851  0.00  0.00    +0.000 C 
ATOM     20  O   UNL     1      47.432   3.154  14.001  0.00  0.00    +0.000 OA
ATOM     21  H   UNL     1      45.468   5.239  15.372  0.00  0.00    +0.000 HD
BRANCH  19  22
ATOM     22  C   UNL     1      47.644   4.108  16.148  0.00  0.00    +0.000 A 
ATOM     23  C   UNL     1      47.488   3.166  17.152  0.00  0.00    +0.000 A 
ATOM     24  S   UNL     1      48.411   3.502  18.549  0.00  0.00    +0.000 S 
ATOM     25  C   UNL     1      49.009   4.947  17.876  0.00  0.00    +0.000 A 
ATOM     26  N   UNL     1      49.886   5.739  18.553  0.00  0.00    +0.000 NA
ATOM     27  C   UNL     1      50.236   6.810  17.921  0.00  0.00    +0.000 A 
ATOM     28  N   UNL     1      49.767   7.171  16.685  0.00  0.00    +0.000 N 
ATOM     29  C   UNL     1      48.853   6.425  15.985  0.00  0.00    +0.000 A 
ATOM     30  O   UNL     1      48.394   6.811  14.923  0.00  0.00    +0.000 OA
ATOM     31  C   UNL     1      48.485   5.182  16.617  0.00  0.00    +0.000 A 
ATOM     32  H   UNL     1      50.052   8.042  16.257  0.00  0.00    +0.000 HD
ENDBRANCH  19  22
ENDBRANCH  17  18
ENDBRANCH   1  17
TORSDOF 7
ENDMDL
