MODEL 1
REMARK VINA RESULT:    -8.511      0.000      0.000
REMARK INTER + INTRA:         -13.333
REMARK INTER:                 -11.994
REMARK INTRA:                  -1.338
REMARK UNBOUND:                -1.338
REMARK  Name = 
REMARK  8 active torsions:
REMARK  status: ('A' for Active; 'I' for Inactive)
REMARK    1  A    between atoms: C_1  and  N_2
REMARK    2  A    between atoms: C_4  and  C_5
REMARK    3  A    between atoms: N_7  and  C_8
REMARK    4  A    between atoms: C_8  and  C_9
REMARK    5  A    between atoms: C_12  and  C_13
REMARK    6  A    between atoms: C_13  and  N_14
REMARK    7  A    between atoms: N_14  and  C_15
REMARK    8  A    between atoms: C_15  and  C_16
REMARK                            x       y       z     vdW  Elec       q    Type
REMARK                         _______ _______ _______ _____ _____    ______ ____
ROOT
ATOM      1  C   UNL     1      46.926   8.081  13.047  0.00  0.00    +0.000 C 
ENDROOT
BRANCH   1   2
ATOM      2  C   UNL     1      46.096   7.030  12.369  0.00  0.00    +0.000 A 
ATOM      3  C   UNL     1      46.498   6.500  11.138  0.00  0.00    +0.000 A 
ATOM      4  C   UNL     1      45.737   5.514  10.514  0.00  0.00    +0.000 A 
ATOM      5  C   UNL     1      44.579   5.007  11.122  0.00  0.00    +0.000 A 
ATOM      6  C   UNL     1      44.153   5.578  12.329  0.00  0.00    +0.000 A 
ATOM      7  C   UNL     1      44.902   6.582  12.945  0.00  0.00    +0.000 A 
BRANCH   5   8
ATOM      8  C   UNL     1      43.766   3.883  10.516  0.00  0.00    +0.000 C 
BRANCH   8   9
ATOM      9  N   UNL     1      44.385   2.560  10.562  0.00  0.00    +0.000 NA
ATOM     10  H   UNL     1      43.900   1.972  11.233  0.00  0.00    +0.000 HD
BRANCH   9  11
ATOM     11  C   UNL     1      44.448   1.902   9.255  0.00  0.00    +0.000 C 
BRANCH  11  12
ATOM     12  C   UNL     1      45.760   2.272   8.543  0.00  0.00    +0.000 C 
ATOM     13  C   UNL     1      45.531   3.351   7.473  0.00  0.00    +0.000 C 
ATOM     14  C   UNL     1      46.815   3.678   6.721  0.00  0.00    +0.000 C 
ATOM     15  C   UNL     1      47.436   2.427   6.111  0.00  0.00    +0.000 C 
ATOM     16  C   UNL     1      47.681   1.354   7.167  0.00  0.00    +0.000 C 
ATOM     17  C   UNL     1      46.402   1.017   7.929  0.00  0.00    +0.000 C 
ENDBRANCH  11  12
ENDBRANCH   9  11
ENDBRANCH   8   9
ENDBRANCH   5   8
ENDBRANCH   1   2
BRANCH   1  20
ATOM     18  C   UNL     1      48.579   6.919  14.413  0.00  0.00    +0.000 C 
ATOM     19  O   UNL     1      49.218   6.595  13.421  0.00  0.00    +0.000 OA
ATOM     20  N   UNL     1      47.401   7.625  14.330  0.00  0.00    +0.000 N 
ATOM     21  H   UNL     1      46.952   7.968  15.167  0.00  0.00    +0.000 HD
BRANCH  18  25
ATOM     22  C   UNL     1      50.701   7.286  18.908  0.00  0.00    +0.000 C 
ATOM     23  N   UNL     1      49.948   6.769  17.788  0.00  0.00    +0.000 N 
ATOM     24  C   UNL     1      49.832   7.362  16.561  0.00  0.00    +0.000 A 
ATOM     25  C   UNL     1      48.996   6.581  15.771  0.00  0.00    +0.000 A 
ATOM     26  C   UNL     1      48.617   5.445  16.570  0.00  0.00    +0.000 A 
ATOM     27  C   UNL     1      47.864   4.277  16.465  0.00  0.00    +0.000 A 
ATOM     28 CL   UNL     1      47.126   3.826  15.008  0.00  0.00    +0.000 Cl
ATOM     29  N   UNL     1      47.742   3.406  17.482  0.00  0.00    +0.000 NA
ATOM     30  C   UNL     1      48.376   3.711  18.620  0.00  0.00    +0.000 A 
ATOM     31  N   UNL     1      49.141   4.784  18.870  0.00  0.00    +0.000 NA
ATOM     32  C   UNL     1      49.226   5.609  17.811  0.00  0.00    +0.000 A 
ENDBRANCH  18  25
ENDBRANCH   1  20
TORSDOF 7
ENDMDL
MODEL 2
REMARK VINA RESULT:    -8.042      1.749      2.260
REMARK INTER + INTRA:         -12.671
REMARK INTER:                 -11.571
REMARK INTRA:                  -1.100
REMARK UNBOUND:                -1.338
REMARK  Name = 
REMARK  8 active torsions:
REMARK  status: ('A' for Active; 'I' for Inactive)
REMARK    1  A    between atoms: C_1  and  N_2
REMARK    2  A    between atoms: C_4  and  C_5
REMARK    3  A    between atoms: N_7  and  C_8
REMARK    4  A    between atoms: C_8  and  C_9
REMARK    5  A    between atoms: C_12  and  C_13
REMARK    6  A    between atoms: C_13  and  N_14
REMARK    7  A    between atoms: N_14  and  C_15
REMARK    8  A    between atoms: C_15  and  C_16
REMARK                            x       y       z     vdW  Elec       q    Type
REMARK                         _______ _______ _______ _____ _____    ______ ____
ROOT
ATOM      1  C   UNL     1      48.362   6.664  13.578  0.00  0.00    +0.000 C 
ENDROOT
BRANCH   1   2
ATOM      2  C   UNL     1      47.153   6.155  12.851  0.00  0.00    +0.000 A 
ATOM      3  C   UNL     1      46.328   5.191  13.441  0.00  0.00    +0.000 A 
ATOM      4  C   UNL     1      45.196   4.728  12.774  0.00  0.00    +0.000 A 
ATOM      5  C   UNL     1      44.840   5.244  11.519  0.00  0.00    +0.000 A 
ATOM      6  C   UNL     1      45.697   6.171  10.909  0.00  0.00    +0.000 A 
ATOM      7  C   UNL     1      46.844   6.619  11.567  0.00  0.00    +0.000 A 
BRANCH   5   8
ATOM      8  C   UNL     1      43.579   4.825  10.793  0.00  0.00    +0.000 C 
BRANCH   8   9
ATOM      9  N   UNL     1      43.777   4.253   9.463  0.00  0.00    +0.000 NA
ATOM     10  H   UNL     1      44.359   4.869   8.903  0.00  0.00    +0.000 HD
BRANCH   9  11
ATOM     11  C   UNL     1      44.337   2.901   9.489  0.00  0.00    +0.000 C 
BRANCH  11  12
ATOM     12  C   UNL     1      45.162   2.649   8.216  0.00  0.00    +0.000 C 
ATOM     13  C   UNL     1      46.089   1.434   8.380  0.00  0.00    +0.000 C 
ATOM     14  C   UNL     1      46.955   1.217   7.146  0.00  0.00    +0.000 C 
ATOM     15  C   UNL     1      47.752   2.468   6.798  0.00  0.00    +0.000 C 
ATOM     16  C   UNL     1      46.841   3.678   6.619  0.00  0.00    +0.000 C 
ATOM     17  C   UNL     1      45.967   3.908   7.849  0.00  0.00    +0.000 C 
ENDBRANCH  11  12
ENDBRANCH   9  11
ENDBRANCH   8   9
ENDBRANCH   5   8
ENDBRANCH   1   2
BRANCH   1  20
ATOM     18  C   UNL     1      49.135   6.789  15.888  0.00  0.00    +0.000 C 
ATOM     19  O   UNL     1      50.287   6.554  15.549  0.00  0.00    +0.000 OA
ATOM     20  N   UNL     1      48.096   6.824  14.986  0.00  0.00    +0.000 N 
ATOM     21  H   UNL     1      47.177   7.124  15.279  0.00  0.00    +0.000 HD
BRANCH  18  25
ATOM     22  C   UNL     1      47.432   9.138  19.941  0.00  0.00    +0.000 C 
ATOM     23  N   UNL     1      47.973   8.112  19.081  0.00  0.00    +0.000 N 
ATOM     24  C   UNL     1      48.302   8.265  17.762  0.00  0.00    +0.000 A 
ATOM     25  C   UNL     1      48.751   7.041  17.274  0.00  0.00    +0.000 A 
ATOM     26  C   UNL     1      48.709   6.118  18.377  0.00  0.00    +0.000 A 
ATOM     27  C   UNL     1      49.015   4.788  18.661  0.00  0.00    +0.000 A 
ATOM     28 CL   UNL     1      49.729   3.777  17.504  0.00  0.00    +0.000 Cl
ATOM     29  N   UNL     1      48.837   4.253  19.881  0.00  0.00    +0.000 NA
ATOM     30  C   UNL     1      48.339   5.057  20.828  0.00  0.00    +0.000 A 
ATOM     31  N   UNL     1      48.007   6.351  20.713  0.00  0.00    +0.000 NA
ATOM     32  C   UNL     1      48.216   6.824  19.472  0.00  0.00    +0.000 A 
ENDBRANCH  18  25
ENDBRANCH   1  20
TORSDOF 7
ENDMDL
MODEL 3
REMARK VINA RESULT:    -8.020      2.083      2.696
REMARK INTER + INTRA:         -12.640
REMARK INTER:                 -11.488
REMARK INTRA:                  -1.152
REMARK UNBOUND:                -1.338
REMARK  Name = 
REMARK  8 active torsions:
REMARK  status: ('A' for Active; 'I' for Inactive)
REMARK    1  A    between atoms: C_1  and  N_2
REMARK    2  A    between atoms: C_4  and  C_5
REMARK    3  A    between atoms: N_7  and  C_8
REMARK    4  A    between atoms: C_8  and  C_9
REMARK    5  A    between atoms: C_12  and  C_13
REMARK    6  A    between atoms: C_13  and  N_14
REMARK    7  A    between atoms: N_14  and  C_15
REMARK    8  A    between atoms: C_15  and  C_16
REMARK                            x       y       z     vdW  Elec       q    Type
REMARK                         _______ _______ _______ _____ _____    ______ ____
ROOT
ATOM      1  C   UNL     1      48.160   6.461  13.749  0.00  0.00    +0.000 C 
ENDROOT
BRANCH   1   2
ATOM      2  C   UNL     1      46.912   6.066  13.017  0.00  0.00    +0.000 A 
ATOM      3  C   UNL     1      46.618   6.628  11.769  0.00  0.00    +0.000 A 
ATOM      4  C   UNL     1      45.468   6.251  11.080  0.00  0.00    +0.000 A 
ATOM      5  C   UNL     1      44.603   5.277  11.603  0.00  0.00    +0.000 A 
ATOM      6  C   UNL     1      44.874   4.757  12.876  0.00  0.00    +0.000 A 
ATOM      7  C   UNL     1      46.015   5.149  13.577  0.00  0.00    +0.000 A 
BRANCH   5   8
ATOM      8  C   UNL     1      43.384   4.783  10.854  0.00  0.00    +0.000 C 
BRANCH   8   9
ATOM      9  N   UNL     1      43.656   4.033   9.629  0.00  0.00    +0.000 NA
ATOM     10  H   UNL     1      44.178   4.610   8.977  0.00  0.00    +0.000 HD
BRANCH   9  11
ATOM     11  C   UNL     1      44.354   2.767   9.866  0.00  0.00    +0.000 C 
BRANCH  11  12
ATOM     12  C   UNL     1      45.620   2.694   8.996  0.00  0.00    +0.000 C 
ATOM     13  C   UNL     1      45.610   3.774   7.903  0.00  0.00    +0.000 C 
ATOM     14  C   UNL     1      46.831   3.669   6.998  0.00  0.00    +0.000 C 
ATOM     15  C   UNL     1      46.953   2.277   6.390  0.00  0.00    +0.000 C 
ATOM     16  C   UNL     1      46.978   1.197   7.467  0.00  0.00    +0.000 C 
ATOM     17  C   UNL     1      45.760   1.292   8.382  0.00  0.00    +0.000 C 
ENDBRANCH  11  12
ENDBRANCH   9  11
ENDBRANCH   8   9
ENDBRANCH   5   8
ENDBRANCH   1   2
BRANCH   1  20
ATOM     18  C   UNL     1      49.091   6.401  16.003  0.00  0.00    +0.000 C 
ATOM     19  O   UNL     1      50.230   6.503  15.570  0.00  0.00    +0.000 OA
ATOM     20  N   UNL     1      47.993   6.330  15.175  0.00  0.00    +0.000 N 
ATOM     21  H   UNL     1      47.061   6.352  15.562  0.00  0.00    +0.000 HD
BRANCH  18  25
ATOM     22  C   UNL     1      48.678   4.628  20.643  0.00  0.00    +0.000 C 
ATOM     23  N   UNL     1      48.619   5.521  19.510  0.00  0.00    +0.000 N 
ATOM     24  C   UNL     1      48.931   5.197  18.218  0.00  0.00    +0.000 A 
ATOM     25  C   UNL     1      48.787   6.334  17.430  0.00  0.00    +0.000 A 
ATOM     26  C   UNL     1      48.337   7.386  18.303  0.00  0.00    +0.000 A 
ATOM     27  C   UNL     1      47.966   8.728  18.245  0.00  0.00    +0.000 A 
ATOM     28 CL   UNL     1      47.890   9.564  16.773  0.00  0.00    +0.000 Cl
ATOM     29  N   UNL     1      47.574   9.414  19.332  0.00  0.00    +0.000 NA
ATOM     30  C   UNL     1      47.561   8.751  20.495  0.00  0.00    +0.000 A 
ATOM     31  N   UNL     1      47.878   7.465  20.708  0.00  0.00    +0.000 NA
ATOM     32  C   UNL     1      48.254   6.837  19.580  0.00  0.00    +0.000 A 
ENDBRANCH  18  25
ENDBRANCH   1  20
TORSDOF 7
ENDMDL
MODEL 4
REMARK VINA RESULT:    -7.492      2.706      4.415
REMARK INTER + INTRA:         -11.895
REMARK INTER:                 -10.834
REMARK INTRA:                  -1.061
REMARK UNBOUND:                -1.338
REMARK  Name = 
REMARK  8 active torsions:
REMARK  status: ('A' for Active; 'I' for Inactive)
REMARK    1  A    between atoms: C_1  and  N_2
REMARK    2  A    between atoms: C_4  and  C_5
REMARK    3  A    between atoms: N_7  and  C_8
REMARK    4  A    between atoms: C_8  and  C_9
REMARK    5  A    between atoms: C_12  and  C_13
REMARK    6  A    between atoms: C_13  and  N_14
REMARK    7  A    between atoms: N_14  and  C_15
REMARK    8  A    between atoms: C_15  and  C_16
REMARK                            x       y       z     vdW  Elec       q    Type
REMARK                         _______ _______ _______ _____ _____    ______ ____
ROOT
ATOM      1  C   UNL     1      47.532   5.495  14.488  0.00  0.00    +0.000 C 
ENDROOT
BRANCH   1   2
ATOM      2  C   UNL     1      46.452   5.164  13.500  0.00  0.00    +0.000 A 
ATOM      3  C   UNL     1      45.739   6.187  12.865  0.00  0.00    +0.000 A 
ATOM      4  C   UNL     1      44.746   5.882  11.937  0.00  0.00    +0.000 A 
ATOM      5  C   UNL     1      44.468   4.551  11.592  0.00  0.00    +0.000 A 
ATOM      6  C   UNL     1      45.148   3.529  12.269  0.00  0.00    +0.000 A 
ATOM      7  C   UNL     1      46.128   3.832  13.216  0.00  0.00    +0.000 A 
BRANCH   5   8
ATOM      8  C   UNL     1      43.452   4.178  10.534  0.00  0.00    +0.000 C 
BRANCH   8   9
ATOM      9  N   UNL     1      43.781   4.590   9.170  0.00  0.00    +0.000 NA
ATOM     10  H   UNL     1      43.403   5.514   8.986  0.00  0.00    +0.000 HD
BRANCH   9  11
ATOM     11  C   UNL     1      45.216   4.556   8.882  0.00  0.00    +0.000 C 
BRANCH  11  12
ATOM     12  C   UNL     1      45.541   3.360   7.973  0.00  0.00    +0.000 C 
ATOM     13  C   UNL     1      45.909   2.114   8.795  0.00  0.00    +0.000 C 
ATOM     14  C   UNL     1      46.293   0.943   7.900  0.00  0.00    +0.000 C 
ATOM     15  C   UNL     1      47.419   1.319   6.945  0.00  0.00    +0.000 C 
ATOM     16  C   UNL     1      47.059   2.545   6.113  0.00  0.00    +0.000 C 
ATOM     17  C   UNL     1      46.672   3.727   6.998  0.00  0.00    +0.000 C 
ENDBRANCH  11  12
ENDBRANCH   9  11
ENDBRANCH   8   9
ENDBRANCH   5   8
ENDBRANCH   1   2
BRANCH   1  20
ATOM     18  C   UNL     1      49.067   7.356  14.847  0.00  0.00    +0.000 C 
ATOM     19  O   UNL     1      49.952   6.596  15.216  0.00  0.00    +0.000 OA
ATOM     20  N   UNL     1      47.812   6.909  14.501  0.00  0.00    +0.000 N 
ATOM     21  H   UNL     1      47.137   7.545  14.101  0.00  0.00    +0.000 HD
BRANCH  18  25
ATOM     22  C   UNL     1      49.947  12.084  16.157  0.00  0.00    +0.000 C 
ATOM     23  N   UNL     1      49.659  10.917  15.355  0.00  0.00    +0.000 N 
ATOM     24  C   UNL     1      49.463   9.649  15.830  0.00  0.00    +0.000 A 
ATOM     25  C   UNL     1      49.252   8.801  14.747  0.00  0.00    +0.000 A 
ATOM     26  C   UNL     1      49.300   9.621  13.565  0.00  0.00    +0.000 A 
ATOM     27  C   UNL     1      49.156   9.502  12.185  0.00  0.00    +0.000 A 
ATOM     28 CL   UNL     1      48.730   8.031  11.460  0.00  0.00    +0.000 Cl
ATOM     29  N   UNL     1      49.269  10.555  11.356  0.00  0.00    +0.000 NA
ATOM     30  C   UNL     1      49.538  11.741  11.917  0.00  0.00    +0.000 A 
ATOM     31  N   UNL     1      49.692  12.014  13.221  0.00  0.00    +0.000 NA
ATOM     32  C   UNL     1      49.560  10.921  13.992  0.00  0.00    +0.000 A 
ENDBRANCH  18  25
ENDBRANCH   1  20
TORSDOF 7
ENDMDL
MODEL 5
REMARK VINA RESULT:    -7.353      1.909      2.205
REMARK INTER + INTRA:         -11.700
REMARK INTER:                 -10.470
REMARK INTRA:                  -1.230
REMARK UNBOUND:                -1.338
REMARK  Name = 
REMARK  8 active torsions:
REMARK  status: ('A' for Active; 'I' for Inactive)
REMARK    1  A    between atoms: C_1  and  N_2
REMARK    2  A    between atoms: C_4  and  C_5
REMARK    3  A    between atoms: N_7  and  C_8
REMARK    4  A    between atoms: C_8  and  C_9
REMARK    5  A    between atoms: C_12  and  C_13
REMARK    6  A    between atoms: C_13  and  N_14
REMARK    7  A    between atoms: N_14  and  C_15
REMARK    8  A    between atoms: C_15  and  C_16
REMARK                            x       y       z     vdW  Elec       q    Type
REMARK                         _______ _______ _______ _____ _____    ______ ____
ROOT
ATOM      1  C   UNL     1      48.537   7.003  13.705  0.00  0.00    +0.000 C 
ENDROOT
BRANCH   1   2
ATOM      2  C   UNL     1      47.418   6.101  13.273  0.00  0.00    +0.000 A 
ATOM      3  C   UNL     1      47.172   4.906  13.958  0.00  0.00    +0.000 A 
ATOM      4  C   UNL     1      46.124   4.075  13.568  0.00  0.00    +0.000 A 
ATOM      5  C   UNL     1      45.275   4.435  12.511  0.00  0.00    +0.000 A 
ATOM      6  C   UNL     1      45.558   5.607  11.796  0.00  0.00    +0.000 A 
ATOM      7  C   UNL     1      46.621   6.430  12.171  0.00  0.00    +0.000 A 
BRANCH   5   8
ATOM      8  C   UNL     1      44.080   3.600  12.104  0.00  0.00    +0.000 C 
BRANCH   8   9
ATOM      9  N   UNL     1      44.372   2.462  11.234  0.00  0.00    +0.000 NA
ATOM     10  H   UNL     1      43.841   1.650  11.534  0.00  0.00    +0.000 HD
BRANCH   9  11
ATOM     11  C   UNL     1      44.131   2.738   9.816  0.00  0.00    +0.000 C 
BRANCH  11  12
ATOM     12  C   UNL     1      45.460   2.710   9.043  0.00  0.00    +0.000 C 
ATOM     13  C   UNL     1      45.521   3.833   7.996  0.00  0.00    +0.000 C 
ATOM     14  C   UNL     1      46.808   3.773   7.182  0.00  0.00    +0.000 C 
ATOM     15  C   UNL     1      46.992   2.408   6.531  0.00  0.00    +0.000 C 
ATOM     16  C   UNL     1      46.947   1.286   7.564  0.00  0.00    +0.000 C 
ATOM     17  C   UNL     1      45.662   1.334   8.386  0.00  0.00    +0.000 C 
ENDBRANCH  11  12
ENDBRANCH   9  11
ENDBRANCH   8   9
ENDBRANCH   5   8
ENDBRANCH   1   2
BRANCH   1  20
ATOM     18  C   UNL     1      49.467   7.113  15.957  0.00  0.00    +0.000 C 
ATOM     19  O   UNL     1      50.488   6.543  15.597  0.00  0.00    +0.000 OA
ATOM     20  N   UNL     1      48.418   7.353  15.098  0.00  0.00    +0.000 N 
ATOM     21  H   UNL     1      47.635   7.917  15.396  0.00  0.00    +0.000 HD
BRANCH  18  25
ATOM     22  C   UNL     1      49.594  10.029  19.998  0.00  0.00    +0.000 C 
ATOM     23  N   UNL     1      49.318   8.911  19.125  0.00  0.00    +0.000 N 
ATOM     24  C   UNL     1      49.771   8.767  17.842  0.00  0.00    +0.000 A 
ATOM     25  C   UNL     1      49.259   7.582  17.324  0.00  0.00    +0.000 A 
ATOM     26  C   UNL     1      48.479   6.977  18.372  0.00  0.00    +0.000 A 
ATOM     27  C   UNL     1      47.727   5.828  18.607  0.00  0.00    +0.000 A 
ATOM     28 CL   UNL     1      47.608   4.594  17.451  0.00  0.00    +0.000 Cl
ATOM     29  N   UNL     1      47.118   5.594  19.782  0.00  0.00    +0.000 NA
ATOM     30  C   UNL     1      47.257   6.526  20.733  0.00  0.00    +0.000 A 
ATOM     31  N   UNL     1      47.953   7.670  20.662  0.00  0.00    +0.000 NA
ATOM     32  C   UNL     1      48.542   7.838  19.464  0.00  0.00    +0.000 A 
ENDBRANCH  18  25
ENDBRANCH   1  20
TORSDOF 7
ENDMDL
MODEL 6
REMARK VINA RESULT:    -7.351      2.183      3.223
REMARK INTER + INTRA:         -11.697
REMARK INTER:                 -10.803
REMARK INTRA:                  -0.894
REMARK UNBOUND:                -1.338
REMARK  Name = 
REMARK  8 active torsions:
REMARK  status: ('A' for Active; 'I' for Inactive)
REMARK    1  A    between atoms: C_1  and  N_2
REMARK    2  A    between atoms: C_4  and  C_5
REMARK    3  A    between atoms: N_7  and  C_8
REMARK    4  A    between atoms: C_8  and  C_9
REMARK    5  A    between atoms: C_12  and  C_13
REMARK    6  A    between atoms: C_13  and  N_14
REMARK    7  A    between atoms: N_14  and  C_15
REMARK    8  A    between atoms: C_15  and  C_16
REMARK                            x       y       z     vdW  Elec       q    Type
REMARK                         _______ _______ _______ _____ _____    ______ ____
ROOT
ATOM      1  C   UNL     1      47.502   3.963  15.220  0.00  0.00    +0.000 C 
ENDROOT
BRANCH   1   2
ATOM      2  C   UNL     1      46.882   4.503  13.964  0.00  0.00    +0.000 A 
ATOM      3  C   UNL     1      47.379   5.673  13.380  0.00  0.00    +0.000 A 
ATOM      4  C   UNL     1      46.815   6.167  12.206  0.00  0.00    +0.000 A 
ATOM      5  C   UNL     1      45.768   5.485  11.568  0.00  0.00    +0.000 A 
ATOM      6  C   UNL     1      45.240   4.343  12.186  0.00  0.00    +0.000 A 
ATOM      7  C   UNL     1      45.789   3.858  13.374  0.00  0.00    +0.000 A 
BRANCH   5   8
ATOM      8  C   UNL     1      45.177   5.946  10.252  0.00  0.00    +0.000 C 
BRANCH   8   9
ATOM      9  N   UNL     1      45.591   5.185   9.075  0.00  0.00    +0.000 NA
ATOM     10  H   UNL     1      46.491   4.747   9.242  0.00  0.00    +0.000 HD
BRANCH   9  11
ATOM     11  C   UNL     1      44.606   4.187   8.652  0.00  0.00    +0.000 C 
BRANCH  11  12
ATOM     12  C   UNL     1      45.283   3.118   7.778  0.00  0.00    +0.000 C 
ATOM     13  C   UNL     1      45.816   1.955   8.629  0.00  0.00    +0.000 C 
ATOM     14  C   UNL     1      46.544   0.922   7.777  0.00  0.00    +0.000 C 
ATOM     15  C   UNL     1      47.663   1.562   6.964  0.00  0.00    +0.000 C 
ATOM     16  C   UNL     1      47.142   2.709   6.104  0.00  0.00    +0.000 C 
ATOM     17  C   UNL     1      46.411   3.751   6.946  0.00  0.00    +0.000 C 
ENDBRANCH  11  12
ENDBRANCH   9  11
ENDBRANCH   8   9
ENDBRANCH   5   8
ENDBRANCH   1   2
BRANCH   1  20
ATOM     18  C   UNL     1      47.710   4.992  17.421  0.00  0.00    +0.000 C 
ATOM     19  O   UNL     1      47.024   4.117  17.931  0.00  0.00    +0.000 OA
ATOM     20  N   UNL     1      47.972   5.028  16.070  0.00  0.00    +0.000 N 
ATOM     21  H   UNL     1      48.626   5.700  15.696  0.00  0.00    +0.000 HD
BRANCH  18  25
ATOM     22  C   UNL     1      48.109   9.089  20.233  0.00  0.00    +0.000 C 
ATOM     23  N   UNL     1      48.461   7.920  19.460  0.00  0.00    +0.000 N 
ATOM     24  C   UNL     1      47.588   7.126  18.767  0.00  0.00    +0.000 A 
ATOM     25  C   UNL     1      48.304   6.083  18.189  0.00  0.00    +0.000 A 
ATOM     26  C   UNL     1      49.685   6.287  18.539  0.00  0.00    +0.000 A 
ATOM     27  C   UNL     1      50.933   5.709  18.317  0.00  0.00    +0.000 A 
ATOM     28 CL   UNL     1      51.120   4.371  17.293  0.00  0.00    +0.000 Cl
ATOM     29  N   UNL     1      52.065   6.218  18.834  0.00  0.00    +0.000 NA
ATOM     30  C   UNL     1      51.945   7.316  19.589  0.00  0.00    +0.000 A 
ATOM     31  N   UNL     1      50.823   7.990  19.883  0.00  0.00    +0.000 NA
ATOM     32  C   UNL     1      49.731   7.432  19.330  0.00  0.00    +0.000 A 
ENDBRANCH  18  25
ENDBRANCH   1  20
TORSDOF 7
ENDMDL
MODEL 7
REMARK VINA RESULT:    -7.264      3.056      5.255
REMARK INTER + INTRA:         -11.575
REMARK INTER:                 -10.367
REMARK INTRA:                  -1.208
REMARK UNBOUND:                -1.338
REMARK  Name = 
REMARK  8 active torsions:
REMARK  status: ('A' for Active; 'I' for Inactive)
REMARK    1  A    between atoms: C_1  and  N_2
REMARK    2  A    between atoms: C_4  and  C_5
REMARK    3  A    between atoms: N_7  and  C_8
REMARK    4  A    between atoms: C_8  and  C_9
REMARK    5  A    between atoms: C_12  and  C_13
REMARK    6  A    between atoms: C_13  and  N_14
REMARK    7  A    between atoms: N_14  and  C_15
REMARK    8  A    between atoms: C_15  and  C_16
REMARK                            x       y       z     vdW  Elec       q    Type
REMARK                         _______ _______ _______ _____ _____    ______ ____
ROOT
ATOM      1  C   UNL     1      47.877   6.107  14.253  0.00  0.00    +0.000 C 
ENDROOT
BRANCH   1   2
ATOM      2  C   UNL     1      46.759   5.338  13.613  0.00  0.00    +0.000 A 
ATOM      3  C   UNL     1      45.609   6.001  13.171  0.00  0.00    +0.000 A 
ATOM      4  C   UNL     1      44.576   5.291  12.563  0.00  0.00    +0.000 A 
ATOM      5  C   UNL     1      44.684   3.909  12.348  0.00  0.00    +0.000 A 
ATOM      6  C   UNL     1      45.814   3.241  12.839  0.00  0.00    +0.000 A 
ATOM      7  C   UNL     1      46.841   3.948  13.469  0.00  0.00    +0.000 A 
BRANCH   5   8
ATOM      8  C   UNL     1      43.620   3.111  11.624  0.00  0.00    +0.000 C 
BRANCH   8   9
ATOM      9  N   UNL     1      44.030   2.523  10.351  0.00  0.00    +0.000 NA
ATOM     10  H   UNL     1      43.315   1.883  10.018  0.00  0.00    +0.000 HD
BRANCH   9  11
ATOM     11  C   UNL     1      44.345   3.518   9.324  0.00  0.00    +0.000 C 
BRANCH  11  12
ATOM     12  C   UNL     1      45.125   2.859   8.175  0.00  0.00    +0.000 C 
ATOM     13  C   UNL     1      45.848   1.588   8.646  0.00  0.00    +0.000 C 
ATOM     14  C   UNL     1      46.674   0.964   7.529  0.00  0.00    +0.000 C 
ATOM     15  C   UNL     1      47.660   1.966   6.940  0.00  0.00    +0.000 C 
ATOM     16  C   UNL     1      46.951   3.227   6.456  0.00  0.00    +0.000 C 
ATOM     17  C   UNL     1      46.119   3.862   7.566  0.00  0.00    +0.000 C 
ENDBRANCH  11  12
ENDBRANCH   9  11
ENDBRANCH   8   9
ENDBRANCH   5   8
ENDBRANCH   1   2
BRANCH   1  20
ATOM     18  C   UNL     1      48.308   8.504  14.110  0.00  0.00    +0.000 C 
ATOM     19  O   UNL     1      48.054   8.652  15.298  0.00  0.00    +0.000 OA
ATOM     20  N   UNL     1      48.210   7.282  13.485  0.00  0.00    +0.000 N 
ATOM     21  H   UNL     1      48.526   7.170  12.533  0.00  0.00    +0.000 HD
BRANCH  18  25
ATOM     22  C   UNL     1      51.229  11.809  11.789  0.00  0.00    +0.000 C 
ATOM     23  N   UNL     1      50.058  11.073  12.204  0.00  0.00    +0.000 N 
ATOM     24  C   UNL     1      50.025  10.095  13.161  0.00  0.00    +0.000 A 
ATOM     25  C   UNL     1      48.727   9.602  13.245  0.00  0.00    +0.000 A 
ATOM     26  C   UNL     1      47.940  10.351  12.300  0.00  0.00    +0.000 A 
ATOM     27  C   UNL     1      46.623  10.448  11.856  0.00  0.00    +0.000 A 
ATOM     28 CL   UNL     1      45.382   9.531  12.555  0.00  0.00    +0.000 Cl
ATOM     29  N   UNL     1      46.246  11.323  10.907  0.00  0.00    +0.000 NA
ATOM     30  C   UNL     1      47.201  12.106  10.391  0.00  0.00    +0.000 A 
ATOM     31  N   UNL     1      48.501  12.138  10.719  0.00  0.00    +0.000 NA
ATOM     32  C   UNL     1      48.808  11.244  11.676  0.00  0.00    +0.000 A 
ENDBRANCH  18  25
ENDBRANCH   1  20
TORSDOF 7
ENDMDL
MODEL 8
REMARK VINA RESULT:    -7.060      2.224      2.898
REMARK INTER + INTRA:         -11.287
REMARK INTER:                 -10.417
REMARK INTRA:                  -0.869
REMARK UNBOUND:                -1.338
REMARK  Name = 
REMARK  8 active torsions:
REMARK  status: ('A' for Active; 'I' for Inactive)
REMARK    1  A    between atoms: C_1  and  N_2
REMARK    2  A    between atoms: C_4  and  C_5
REMARK    3  A    between atoms: N_7  and  C_8
REMARK    4  A    between atoms: C_8  and  C_9
REMARK    5  A    between atoms: C_12  and  C_13
REMARK    6  A    between atoms: C_13  and  N_14
REMARK    7  A    between atoms: N_14  and  C_15
REMARK    8  A    between atoms: C_15  and  C_16
REMARK                            x       y       z     vdW  Elec       q    Type
REMARK                         _______ _______ _______ _____ _____    ______ ____
ROOT
ATOM      1  C   UNL     1      47.284   4.574  14.763  0.00  0.00    +0.000 C 
ENDROOT
BRANCH   1   2
ATOM      2  C   UNL     1      46.304   4.795  13.649  0.00  0.00    +0.000 A 
ATOM      3  C   UNL     1      46.629   5.640  12.582  0.00  0.00    +0.000 A 
ATOM      4  C   UNL     1      45.727   5.835  11.538  0.00  0.00    +0.000 A 
ATOM      5  C   UNL     1      44.496   5.163  11.517  0.00  0.00    +0.000 A 
ATOM      6  C   UNL     1      44.154   4.359  12.613  0.00  0.00    +0.000 A 
ATOM      7  C   UNL     1      45.048   4.180  13.670  0.00  0.00    +0.000 A 
BRANCH   5   8
ATOM      8  C   UNL     1      43.519   5.287  10.366  0.00  0.00    +0.000 C 
BRANCH   8   9
ATOM      9  N   UNL     1      43.813   4.460   9.198  0.00  0.00    +0.000 NA
ATOM     10  H   UNL     1      44.498   4.922   8.608  0.00  0.00    +0.000 HD
BRANCH   9  11
ATOM     11  C   UNL     1      44.259   3.107   9.540  0.00  0.00    +0.000 C 
BRANCH  11  12
ATOM     12  C   UNL     1      45.584   2.795   8.825  0.00  0.00    +0.000 C 
ATOM     13  C   UNL     1      45.797   3.716   7.613  0.00  0.00    +0.000 C 
ATOM     14  C   UNL     1      47.078   3.371   6.863  0.00  0.00    +0.000 C 
ATOM     15  C   UNL     1      47.100   1.905   6.447  0.00  0.00    +0.000 C 
ATOM     16  C   UNL     1      46.904   0.981   7.644  0.00  0.00    +0.000 C 
ATOM     17  C   UNL     1      45.624   1.316   8.405  0.00  0.00    +0.000 C 
ENDBRANCH  11  12
ENDBRANCH   9  11
ENDBRANCH   8   9
ENDBRANCH   5   8
ENDBRANCH   1   2
BRANCH   1  20
ATOM     18  C   UNL     1      48.702   5.855  16.279  0.00  0.00    +0.000 C 
ATOM     19  O   UNL     1      49.311   4.848  16.612  0.00  0.00    +0.000 OA
ATOM     20  N   UNL     1      47.648   5.818  15.395  0.00  0.00    +0.000 N 
ATOM     21  H   UNL     1      47.233   6.675  15.059  0.00  0.00    +0.000 HD
BRANCH  18  25
ATOM     22  C   UNL     1      50.596  10.457  16.554  0.00  0.00    +0.000 C 
ATOM     23  N   UNL     1      49.875   9.252  16.892  0.00  0.00    +0.000 N 
ATOM     24  C   UNL     1      49.862   8.096  16.160  0.00  0.00    +0.000 A 
ATOM     25  C   UNL     1      49.023   7.183  16.793  0.00  0.00    +0.000 A 
ATOM     26  C   UNL     1      48.533   7.829  17.982  0.00  0.00    +0.000 A 
ATOM     27  C   UNL     1      47.718   7.557  19.079  0.00  0.00    +0.000 A 
ATOM     28 CL   UNL     1      47.034   6.026  19.316  0.00  0.00    +0.000 Cl
ATOM     29  N   UNL     1      47.489   8.461  20.047  0.00  0.00    +0.000 NA
ATOM     30  C   UNL     1      48.078   9.656  19.913  0.00  0.00    +0.000 A 
ATOM     31  N   UNL     1      48.892  10.061  18.927  0.00  0.00    +0.000 NA
ATOM     32  C   UNL     1      49.084   9.109  17.997  0.00  0.00    +0.000 A 
ENDBRANCH  18  25
ENDBRANCH   1  20
TORSDOF 7
ENDMDL
MODEL 9
REMARK VINA RESULT:    -6.856      3.685      9.244
REMARK INTER + INTRA:         -10.999
REMARK INTER:                  -8.783
REMARK INTRA:                  -2.217
REMARK UNBOUND:                -1.338
REMARK  Name = 
REMARK  8 active torsions:
REMARK  status: ('A' for Active; 'I' for Inactive)
REMARK    1  A    between atoms: C_1  and  N_2
REMARK    2  A    between atoms: C_4  and  C_5
REMARK    3  A    between atoms: N_7  and  C_8
REMARK    4  A    between atoms: C_8  and  C_9
REMARK    5  A    between atoms: C_12  and  C_13
REMARK    6  A    between atoms: C_13  and  N_14
REMARK    7  A    between atoms: N_14  and  C_15
REMARK    8  A    between atoms: C_15  and  C_16
REMARK                            x       y       z     vdW  Elec       q    Type
REMARK                         _______ _______ _______ _____ _____    ______ ____
ROOT
ATOM      1  C   UNL     1      47.637   3.623  16.522  0.00  0.00    +0.000 C 
ENDROOT
BRANCH   1   2
ATOM      2  C   UNL     1      47.814   4.313  17.843  0.00  0.00    +0.000 A 
ATOM      3  C   UNL     1      48.856   3.940  18.700  0.00  0.00    +0.000 A 
ATOM      4  C   UNL     1      49.032   4.590  19.919  0.00  0.00    +0.000 A 
ATOM      5  C   UNL     1      48.196   5.651  20.296  0.00  0.00    +0.000 A 
ATOM      6  C   UNL     1      47.123   5.986  19.458  0.00  0.00    +0.000 A 
ATOM      7  C   UNL     1      46.931   5.322  18.246  0.00  0.00    +0.000 A 
BRANCH   5   8
ATOM      8  C   UNL     1      48.398   6.434  21.576  0.00  0.00    +0.000 C 
BRANCH   8   9
ATOM      9  N   UNL     1      48.577   7.875  21.413  0.00  0.00    +0.000 NA
ATOM     10  H   UNL     1      48.469   8.342  22.308  0.00  0.00    +0.000 HD
BRANCH   9  11
ATOM     11  C   UNL     1      49.854   8.237  20.795  0.00  0.00    +0.000 C 
BRANCH  11  12
ATOM     12  C   UNL     1      49.607   8.951  19.456  0.00  0.00    +0.000 C 
ATOM     13  C   UNL     1      48.159   9.455  19.350  0.00  0.00    +0.000 C 
ATOM     14  C   UNL     1      47.889  10.109  18.000  0.00  0.00    +0.000 C 
ATOM     15  C   UNL     1      48.226   9.168  16.850  0.00  0.00    +0.000 C 
ATOM     16  C   UNL     1      49.666   8.673  16.937  0.00  0.00    +0.000 C 
ATOM     17  C   UNL     1      49.950   8.016  18.285  0.00  0.00    +0.000 C 
ENDBRANCH  11  12
ENDBRANCH   9  11
ENDBRANCH   8   9
ENDBRANCH   5   8
ENDBRANCH   1   2
BRANCH   1  20
ATOM     18  C   UNL     1      46.721   4.038  14.300  0.00  0.00    +0.000 C 
ATOM     19  O   UNL     1      47.303   3.063  13.844  0.00  0.00    +0.000 OA
ATOM     20  N   UNL     1      46.856   4.425  15.614  0.00  0.00    +0.000 N 
ATOM     21  H   UNL     1      46.284   5.169  15.987  0.00  0.00    +0.000 HD
BRANCH  18  25
ATOM     22  C   UNL     1      42.718   5.605  11.777  0.00  0.00    +0.000 C 
ATOM     23  N   UNL     1      44.032   5.575  12.378  0.00  0.00    +0.000 N 
ATOM     24  C   UNL     1      44.590   4.510  13.030  0.00  0.00    +0.000 A 
ATOM     25  C   UNL     1      45.844   4.887  13.499  0.00  0.00    +0.000 A 
ATOM     26  C   UNL     1      46.050   6.247  13.077  0.00  0.00    +0.000 A 
ATOM     27  C   UNL     1      47.023   7.242  13.139  0.00  0.00    +0.000 A 
ATOM     28 CL   UNL     1      48.543   6.953  13.831  0.00  0.00    +0.000 Cl
ATOM     29  N   UNL     1      46.848   8.457  12.590  0.00  0.00    +0.000 NA
ATOM     30  C   UNL     1      45.679   8.681  11.978  0.00  0.00    +0.000 A 
ATOM     31  N   UNL     1      44.656   7.827  11.827  0.00  0.00    +0.000 NA
ATOM     32  C   UNL     1      44.900   6.632  12.392  0.00  0.00    +0.000 A 
ENDBRANCH  18  25
ENDBRANCH   1  20
TORSDOF 7
ENDMDL
