MODEL 1
REMARK VINA RESULT:    -8.433      0.000      0.000
REMARK INTER + INTRA:         -10.711
REMARK INTER:                 -10.897
REMARK INTRA:                   0.187
REMARK UNBOUND:                 0.187
REMARK  Name = 
REMARK  5 active torsions:
REMARK  status: ('A' for Active; 'I' for Inactive)
REMARK    1  A    between atoms: C_2  and  C_4
REMARK    2  A    between atoms: C_8  and  C_9
REMARK    3  A    between atoms: C_9  and  O_10
REMARK    4  A    between atoms: O_10  and  C_11
REMARK    5  A    between atoms: C_16  and  C_17
REMARK                            x       y       z     vdW  Elec       q    Type
REMARK                         _______ _______ _______ _____ _____    ______ ____
ROOT
ATOM      1  C   UNL     1      45.054   4.898  11.932  0.00  0.00    +0.000 A 
ATOM      2  C   UNL     1      45.468   3.885  12.791  0.00  0.00    +0.000 A 
ATOM      3  F   UNL     1      44.836   2.701  12.796  0.00  0.00    +0.000 F 
ATOM      4  C   UNL     1      46.528   4.080  13.668  0.00  0.00    +0.000 A 
ATOM      5  C   UNL     1      47.183   5.315  13.707  0.00  0.00    +0.000 A 
ATOM      6  C   UNL     1      46.792   6.366  12.861  0.00  0.00    +0.000 A 
ATOM      7  C   UNL     1      45.763   6.103  11.941  0.00  0.00    +0.000 A 
ATOM      8  F   UNL     1      45.471   7.045  11.030  0.00  0.00    +0.000 F 
ENDROOT
BRANCH   6   9
ATOM      9  C   UNL     1      47.444   7.749  12.857  0.00  0.00    +0.000 C 
ATOM     10  C   UNL     1      48.470   8.015  11.738  0.00  0.00    +0.000 C 
ATOM     11  C   UNL     1      49.814   7.330  12.001  0.00  0.00    +0.000 C 
ATOM     12  N   UNL     1      50.383   7.694  13.297  0.00  0.00    +0.000 NA
ATOM     13  C   UNL     1      49.456   7.404  14.391  0.00  0.00    +0.000 C 
ATOM     14  C   UNL     1      48.118   8.115  14.202  0.00  0.00    +0.000 C 
ATOM     15  H   UNL     1      50.605   8.689  13.300  0.00  0.00    +0.000 HD
ENDBRANCH   6   9
BRANCH   1  16
ATOM     16  O   UNL     1      43.975   4.628  11.131  0.00  0.00    +0.000 OA
BRANCH  16  17
ATOM     17  C   UNL     1      43.992   3.330  10.534  0.00  0.00    +0.000 C 
BRANCH  17  22
ATOM     18  C   UNL     1      46.442   2.246   7.840  0.00  0.00    +0.000 A 
ATOM     19  C   UNL     1      46.699   3.488   7.279  0.00  0.00    +0.000 A 
ATOM     20  N   UNL     1      46.105   4.638   7.686  0.00  0.00    +0.000 NA
ATOM     21  C   UNL     1      45.226   4.538   8.707  0.00  0.00    +0.000 A 
ATOM     22  C   UNL     1      44.921   3.344   9.356  0.00  0.00    +0.000 A 
ATOM     23  C   UNL     1      45.551   2.178   8.911  0.00  0.00    +0.000 A 
BRANCH  18  25
ATOM     24  N   UNL     1      46.651  -0.168   7.670  0.00  0.00    +0.000 N 
ATOM     25  C   UNL     1      47.132   1.058   7.299  0.00  0.00    +0.000 C 
ATOM     26  O   UNL     1      48.074   1.161   6.525  0.00  0.00    +0.000 OA
ATOM     27  H   UNL     1      47.055  -0.965   7.196  0.00  0.00    +0.000 HD
ATOM     28  H   UNL     1      45.737  -0.288   8.082  0.00  0.00    +0.000 HD
ENDBRANCH  18  25
ENDBRANCH  17  22
ENDBRANCH  16  17
ENDBRANCH   1  16
TORSDOF 5
ENDMDL
MODEL 2
REMARK VINA RESULT:    -8.048      1.447      2.116
REMARK INTER + INTRA:         -10.214
REMARK INTER:                 -10.336
REMARK INTRA:                   0.122
REMARK UNBOUND:                 0.187
REMARK  Name = 
REMARK  5 active torsions:
REMARK  status: ('A' for Active; 'I' for Inactive)
REMARK    1  A    between atoms: C_2  and  C_4
REMARK    2  A    between atoms: C_8  and  C_9
REMARK    3  A    between atoms: C_9  and  O_10
REMARK    4  A    between atoms: O_10  and  C_11
REMARK    5  A    between atoms: C_16  and  C_17
REMARK                            x       y       z     vdW  Elec       q    Type
REMARK                         _______ _______ _______ _____ _____    ______ ____
ROOT
ATOM      1  C   UNL     1      44.914   4.343  12.347  0.00  0.00    +0.000 A 
ATOM      2  C   UNL     1      43.938   5.334  12.306  0.00  0.00    +0.000 A 
ATOM      3  F   UNL     1      42.663   5.017  12.027  0.00  0.00    +0.000 F 
ATOM      4  C   UNL     1      44.261   6.665  12.535  0.00  0.00    +0.000 A 
ATOM      5  C   UNL     1      45.587   7.027  12.795  0.00  0.00    +0.000 A 
ATOM      6  C   UNL     1      46.603   6.058  12.838  0.00  0.00    +0.000 A 
ATOM      7  C   UNL     1      46.221   4.716  12.671  0.00  0.00    +0.000 A 
ATOM      8  F   UNL     1      47.152   3.766  12.850  0.00  0.00    +0.000 F 
ENDROOT
BRANCH   6   9
ATOM      9  C   UNL     1      48.077   6.375  13.096  0.00  0.00    +0.000 C 
ATOM     10  C   UNL     1      48.400   7.072  14.432  0.00  0.00    +0.000 C 
ATOM     11  C   UNL     1      48.033   8.559  14.421  0.00  0.00    +0.000 C 
ATOM     12  N   UNL     1      48.661   9.281  13.316  0.00  0.00    +0.000 NA
ATOM     13  C   UNL     1      48.331   8.680  12.025  0.00  0.00    +0.000 C 
ATOM     14  C   UNL     1      48.734   7.207  11.968  0.00  0.00    +0.000 C 
ATOM     15  H   UNL     1      49.673   9.275  13.441  0.00  0.00    +0.000 HD
ENDBRANCH   6   9
BRANCH   1  16
ATOM     16  O   UNL     1      44.509   3.063  12.068  0.00  0.00    +0.000 OA
BRANCH  16  17
ATOM     17  C   UNL     1      43.730   2.936  10.878  0.00  0.00    +0.000 C 
BRANCH  17  22
ATOM     18  C   UNL     1      46.225   2.224   8.104  0.00  0.00    +0.000 A 
ATOM     19  C   UNL     1      46.331   3.506   7.583  0.00  0.00    +0.000 A 
ATOM     20  N   UNL     1      45.622   4.568   8.042  0.00  0.00    +0.000 NA
ATOM     21  C   UNL     1      44.782   4.335   9.075  0.00  0.00    +0.000 A 
ATOM     22  C   UNL     1      44.625   3.094   9.685  0.00  0.00    +0.000 A 
ATOM     23  C   UNL     1      45.371   2.021   9.187  0.00  0.00    +0.000 A 
BRANCH  18  25
ATOM     24  N   UNL     1      48.097   1.508   6.732  0.00  0.00    +0.000 N 
ATOM     25  C   UNL     1      47.031   1.140   7.507  0.00  0.00    +0.000 C 
ATOM     26  O   UNL     1      46.780  -0.038   7.722  0.00  0.00    +0.000 OA
ATOM     27  H   UNL     1      48.709   0.758   6.434  0.00  0.00    +0.000 HD
ATOM     28  H   UNL     1      48.484   2.440   6.751  0.00  0.00    +0.000 HD
ENDBRANCH  18  25
ENDBRANCH  17  22
ENDBRANCH  16  17
ENDBRANCH   1  16
TORSDOF 5
ENDMDL
MODEL 3
REMARK VINA RESULT:    -7.702      1.891      2.454
REMARK INTER + INTRA:          -9.767
REMARK INTER:                  -9.007
REMARK INTRA:                  -0.760
REMARK UNBOUND:                 0.187
REMARK  Name = 
REMARK  5 active torsions:
REMARK  status: ('A' for Active; 'I' for Inactive)
REMARK    1  A    between atoms: C_2  and  C_4
REMARK    2  A    between atoms: C_8  and  C_9
REMARK    3  A    between atoms: C_9  and  O_10
REMARK    4  A    between atoms: O_10  and  C_11
REMARK    5  A    between atoms: C_16  and  C_17
REMARK                            x       y       z     vdW  Elec       q    Type
REMARK                         _______ _______ _______ _____ _____    ______ ____
ROOT
ATOM      1  C   UNL     1      45.539   6.390  12.732  0.00  0.00    +0.000 A 
ATOM      2  C   UNL     1      46.265   5.368  13.336  0.00  0.00    +0.000 A 
ATOM      3  F   UNL     1      45.637   4.283  13.814  0.00  0.00    +0.000 F 
ATOM      4  C   UNL     1      47.645   5.456  13.471  0.00  0.00    +0.000 A 
ATOM      5  C   UNL     1      48.320   6.591  13.012  0.00  0.00    +0.000 A 
ATOM      6  C   UNL     1      47.624   7.647  12.402  0.00  0.00    +0.000 A 
ATOM      7  C   UNL     1      46.240   7.487  12.222  0.00  0.00    +0.000 A 
ATOM      8  F   UNL     1      45.580   8.419  11.516  0.00  0.00    +0.000 F 
ENDROOT
BRANCH   6   9
ATOM      9  C   UNL     1      48.286   8.928  11.892  0.00  0.00    +0.000 C 
ATOM     10  C   UNL     1      49.795   8.840  11.589  0.00  0.00    +0.000 C 
ATOM     11  C   UNL     1      50.649   8.849  12.861  0.00  0.00    +0.000 C 
ATOM     12  N   UNL     1      50.376  10.006  13.709  0.00  0.00    +0.000 NA
ATOM     13  C   UNL     1      48.960  10.091  14.063  0.00  0.00    +0.000 C 
ATOM     14  C   UNL     1      48.070  10.146  12.823  0.00  0.00    +0.000 C 
ATOM     15  H   UNL     1      50.651  10.857  13.218  0.00  0.00    +0.000 HD
ENDBRANCH   6   9
BRANCH   1  16
ATOM     16  O   UNL     1      44.178   6.235  12.679  0.00  0.00    +0.000 OA
BRANCH  16  17
ATOM     17  C   UNL     1      43.640   6.183  11.356  0.00  0.00    +0.000 C 
BRANCH  17  22
ATOM     18  C   UNL     1      45.133   3.558   9.052  0.00  0.00    +0.000 A 
ATOM     19  C   UNL     1      44.501   2.438   9.573  0.00  0.00    +0.000 A 
ATOM     20  N   UNL     1      43.661   2.473  10.638  0.00  0.00    +0.000 NA
ATOM     21  C   UNL     1      43.438   3.684  11.195  0.00  0.00    +0.000 A 
ATOM     22  C   UNL     1      44.001   4.869  10.730  0.00  0.00    +0.000 A 
ATOM     23  C   UNL     1      44.862   4.797   9.631  0.00  0.00    +0.000 A 
BRANCH  18  25
ATOM     24  N   UNL     1      46.518   2.135   7.653  0.00  0.00    +0.000 N 
ATOM     25  C   UNL     1      46.046   3.395   7.902  0.00  0.00    +0.000 C 
ATOM     26  O   UNL     1      46.343   4.338   7.182  0.00  0.00    +0.000 OA
ATOM     27  H   UNL     1      47.040   2.020   6.793  0.00  0.00    +0.000 HD
ATOM     28  H   UNL     1      46.096   1.310   8.052  0.00  0.00    +0.000 HD
ENDBRANCH  18  25
ENDBRANCH  17  22
ENDBRANCH  16  17
ENDBRANCH   1  16
TORSDOF 5
ENDMDL
MODEL 4
REMARK VINA RESULT:    -7.693      3.297      4.931
REMARK INTER + INTRA:          -9.755
REMARK INTER:                  -9.045
REMARK INTRA:                  -0.710
REMARK UNBOUND:                 0.187
REMARK  Name = 
REMARK  5 active torsions:
REMARK  status: ('A' for Active; 'I' for Inactive)
REMARK    1  A    between atoms: C_2  and  C_4
REMARK    2  A    between atoms: C_8  and  C_9
REMARK    3  A    between atoms: C_9  and  O_10
REMARK    4  A    between atoms: O_10  and  C_11
REMARK    5  A    between atoms: C_16  and  C_17
REMARK                            x       y       z     vdW  Elec       q    Type
REMARK                         _______ _______ _______ _____ _____    ______ ____
ROOT
ATOM      1  C   UNL     1      48.108   6.412  13.638  0.00  0.00    +0.000 A 
ATOM      2  C   UNL     1      49.103   7.262  14.109  0.00  0.00    +0.000 A 
ATOM      3  F   UNL     1      49.664   8.166  13.291  0.00  0.00    +0.000 F 
ATOM      4  C   UNL     1      49.547   7.185  15.423  0.00  0.00    +0.000 A 
ATOM      5  C   UNL     1      49.003   6.229  16.288  0.00  0.00    +0.000 A 
ATOM      6  C   UNL     1      48.001   5.347  15.850  0.00  0.00    +0.000 A 
ATOM      7  C   UNL     1      47.532   5.507  14.535  0.00  0.00    +0.000 A 
ATOM      8  F   UNL     1      46.480   4.771  14.144  0.00  0.00    +0.000 F 
ENDROOT
BRANCH   6   9
ATOM      9  C   UNL     1      47.371   4.264  16.728  0.00  0.00    +0.000 C 
ATOM     10  C   UNL     1      47.292   4.571  18.236  0.00  0.00    +0.000 C 
ATOM     11  C   UNL     1      48.645   4.417  18.937  0.00  0.00    +0.000 C 
ATOM     12  N   UNL     1      49.238   3.099  18.725  0.00  0.00    +0.000 NA
ATOM     13  C   UNL     1      49.380   2.795  17.302  0.00  0.00    +0.000 C 
ATOM     14  C   UNL     1      48.042   2.878  16.570  0.00  0.00    +0.000 C 
ATOM     15  H   UNL     1      48.649   2.390  19.162  0.00  0.00    +0.000 HD
ENDBRANCH   6   9
BRANCH   1  16
ATOM     16  O   UNL     1      47.763   6.533  12.317  0.00  0.00    +0.000 OA
BRANCH  16  17
ATOM     17  C   UNL     1      46.545   7.245  12.088  0.00  0.00    +0.000 C 
BRANCH  17  22
ATOM     18  C   UNL     1      44.835   4.776   9.762  0.00  0.00    +0.000 A 
ATOM     19  C   UNL     1      43.593   4.734  10.379  0.00  0.00    +0.000 A 
ATOM     20  N   UNL     1      43.289   5.415  11.511  0.00  0.00    +0.000 NA
ATOM     21  C   UNL     1      44.269   6.181  12.040  0.00  0.00    +0.000 A 
ATOM     22  C   UNL     1      45.538   6.313  11.483  0.00  0.00    +0.000 A 
ATOM     23  C   UNL     1      45.818   5.597  10.315  0.00  0.00    +0.000 A 
BRANCH  18  25
ATOM     24  N   UNL     1      44.319   2.830   8.404  0.00  0.00    +0.000 N 
ATOM     25  C   UNL     1      45.058   3.973   8.543  0.00  0.00    +0.000 C 
ATOM     26  O   UNL     1      45.845   4.328   7.676  0.00  0.00    +0.000 OA
ATOM     27  H   UNL     1      44.393   2.359   7.511  0.00  0.00    +0.000 HD
ATOM     28  H   UNL     1      43.492   2.650   8.954  0.00  0.00    +0.000 HD
ENDBRANCH  18  25
ENDBRANCH  17  22
ENDBRANCH  16  17
ENDBRANCH   1  16
TORSDOF 5
ENDMDL
MODEL 5
REMARK VINA RESULT:    -7.632      4.037      7.631
REMARK INTER + INTRA:          -9.676
REMARK INTER:                  -8.977
REMARK INTRA:                  -0.699
REMARK UNBOUND:                 0.187
REMARK  Name = 
REMARK  5 active torsions:
REMARK  status: ('A' for Active; 'I' for Inactive)
REMARK    1  A    between atoms: C_2  and  C_4
REMARK    2  A    between atoms: C_8  and  C_9
REMARK    3  A    between atoms: C_9  and  O_10
REMARK    4  A    between atoms: O_10  and  C_11
REMARK    5  A    between atoms: C_16  and  C_17
REMARK                            x       y       z     vdW  Elec       q    Type
REMARK                         _______ _______ _______ _____ _____    ______ ____
ROOT
ATOM      1  C   UNL     1      47.876   6.773  14.067  0.00  0.00    +0.000 A 
ATOM      2  C   UNL     1      47.642   8.051  13.570  0.00  0.00    +0.000 A 
ATOM      3  F   UNL     1      48.505   9.046  13.829  0.00  0.00    +0.000 F 
ATOM      4  C   UNL     1      46.510   8.328  12.813  0.00  0.00    +0.000 A 
ATOM      5  C   UNL     1      45.578   7.318  12.557  0.00  0.00    +0.000 A 
ATOM      6  C   UNL     1      45.773   6.015  13.046  0.00  0.00    +0.000 A 
ATOM      7  C   UNL     1      46.965   5.762  13.746  0.00  0.00    +0.000 A 
ATOM      8  F   UNL     1      47.236   4.495  14.097  0.00  0.00    +0.000 F 
ENDROOT
BRANCH   6   9
ATOM      9  C   UNL     1      44.792   4.862  12.826  0.00  0.00    +0.000 C 
ATOM     10  C   UNL     1      45.085   3.940  11.627  0.00  0.00    +0.000 C 
ATOM     11  C   UNL     1      44.707   4.580  10.288  0.00  0.00    +0.000 C 
ATOM     12  N   UNL     1      43.313   5.018  10.252  0.00  0.00    +0.000 NA
ATOM     13  C   UNL     1      43.012   5.941  11.346  0.00  0.00    +0.000 C 
ATOM     14  C   UNL     1      43.318   5.322  12.708  0.00  0.00    +0.000 C 
ATOM     15  H   UNL     1      42.702   4.205  10.321  0.00  0.00    +0.000 HD
ENDBRANCH   6   9
BRANCH   1  16
ATOM     16  O   UNL     1      48.997   6.603  14.836  0.00  0.00    +0.000 OA
BRANCH  16  17
ATOM     17  C   UNL     1      48.849   7.017  16.196  0.00  0.00    +0.000 C 
BRANCH  17  22
ATOM     18  C   UNL     1      49.348   3.480  17.490  0.00  0.00    +0.000 A 
ATOM     19  C   UNL     1      48.719   3.616  18.718  0.00  0.00    +0.000 A 
ATOM     20  N   UNL     1      48.183   4.779  19.168  0.00  0.00    +0.000 NA
ATOM     21  C   UNL     1      48.273   5.847  18.344  0.00  0.00    +0.000 A 
ATOM     22  C   UNL     1      48.859   5.806  17.081  0.00  0.00    +0.000 A 
ATOM     23  C   UNL     1      49.401   4.592  16.650  0.00  0.00    +0.000 A 
BRANCH  18  25
ATOM     24  N   UNL     1      50.844   1.626  17.960  0.00  0.00    +0.000 N 
ATOM     25  C   UNL     1      49.914   2.169  17.116  0.00  0.00    +0.000 C 
ATOM     26  O   UNL     1      49.546   1.574  16.112  0.00  0.00    +0.000 OA
ATOM     27  H   UNL     1      51.129   0.677  17.755  0.00  0.00    +0.000 HD
ATOM     28  H   UNL     1      50.972   1.953  18.907  0.00  0.00    +0.000 HD
ENDBRANCH  18  25
ENDBRANCH  17  22
ENDBRANCH  16  17
ENDBRANCH   1  16
TORSDOF 5
ENDMDL
MODEL 6
REMARK VINA RESULT:    -7.602      3.598      7.756
REMARK INTER + INTRA:          -9.638
REMARK INTER:                  -9.010
REMARK INTRA:                  -0.627
REMARK UNBOUND:                 0.187
REMARK  Name = 
REMARK  5 active torsions:
REMARK  status: ('A' for Active; 'I' for Inactive)
REMARK    1  A    between atoms: C_2  and  C_4
REMARK    2  A    between atoms: C_8  and  C_9
REMARK    3  A    between atoms: C_9  and  O_10
REMARK    4  A    between atoms: O_10  and  C_11
REMARK    5  A    between atoms: C_16  and  C_17
REMARK                            x       y       z     vdW  Elec       q    Type
REMARK                         _______ _______ _______ _____ _____    ______ ____
ROOT
ATOM      1  C   UNL     1      47.795   6.759  13.334  0.00  0.00    +0.000 A 
ATOM      2  C   UNL     1      47.335   7.914  12.710  0.00  0.00    +0.000 A 
ATOM      3  F   UNL     1      48.127   8.994  12.614  0.00  0.00    +0.000 F 
ATOM      4  C   UNL     1      46.049   7.981  12.189  0.00  0.00    +0.000 A 
ATOM      5  C   UNL     1      45.192   6.881  12.304  0.00  0.00    +0.000 A 
ATOM      6  C   UNL     1      45.615   5.699  12.933  0.00  0.00    +0.000 A 
ATOM      7  C   UNL     1      46.946   5.650  13.383  0.00  0.00    +0.000 A 
ATOM      8  F   UNL     1      47.411   4.484  13.857  0.00  0.00    +0.000 F 
ENDROOT
BRANCH   6   9
ATOM      9  C   UNL     1      44.733   4.463  13.116  0.00  0.00    +0.000 C 
ATOM     10  C   UNL     1      45.095   3.236  12.257  0.00  0.00    +0.000 C 
ATOM     11  C   UNL     1      44.655   3.393  10.798  0.00  0.00    +0.000 C 
ATOM     12  N   UNL     1      43.230   3.688  10.672  0.00  0.00    +0.000 NA
ATOM     13  C   UNL     1      42.860   4.882  11.431  0.00  0.00    +0.000 C 
ATOM     14  C   UNL     1      43.225   4.748  12.908  0.00  0.00    +0.000 C 
ATOM     15  H   UNL     1      42.689   2.893  11.011  0.00  0.00    +0.000 HD
ENDBRANCH   6   9
BRANCH   1  16
ATOM     16  O   UNL     1      49.063   6.800  13.853  0.00  0.00    +0.000 OA
BRANCH  16  17
ATOM     17  C   UNL     1      49.148   7.365  15.162  0.00  0.00    +0.000 C 
BRANCH  17  22
ATOM     18  C   UNL     1      48.832   4.434  17.558  0.00  0.00    +0.000 A 
ATOM     19  C   UNL     1      50.133   4.414  18.037  0.00  0.00    +0.000 A 
ATOM     20  N   UNL     1      51.108   5.254  17.609  0.00  0.00    +0.000 NA
ATOM     21  C   UNL     1      50.758   6.160  16.669  0.00  0.00    +0.000 A 
ATOM     22  C   UNL     1      49.474   6.281  16.146  0.00  0.00    +0.000 A 
ATOM     23  C   UNL     1      48.493   5.398  16.610  0.00  0.00    +0.000 A 
BRANCH  18  25
ATOM     24  N   UNL     1      48.117   2.919  19.316  0.00  0.00    +0.000 N 
ATOM     25  C   UNL     1      47.860   3.454  18.084  0.00  0.00    +0.000 C 
ATOM     26  O   UNL     1      46.850   3.156  17.461  0.00  0.00    +0.000 OA
ATOM     27  H   UNL     1      47.382   2.346  19.713  0.00  0.00    +0.000 HD
ATOM     28  H   UNL     1      48.780   3.329  19.957  0.00  0.00    +0.000 HD
ENDBRANCH  18  25
ENDBRANCH  17  22
ENDBRANCH  16  17
ENDBRANCH   1  16
TORSDOF 5
ENDMDL
MODEL 7
REMARK VINA RESULT:    -7.433      1.560      2.613
REMARK INTER + INTRA:          -9.419
REMARK INTER:                  -9.997
REMARK INTRA:                   0.578
REMARK UNBOUND:                 0.187
REMARK  Name = 
REMARK  5 active torsions:
REMARK  status: ('A' for Active; 'I' for Inactive)
REMARK    1  A    between atoms: C_2  and  C_4
REMARK    2  A    between atoms: C_8  and  C_9
REMARK    3  A    between atoms: C_9  and  O_10
REMARK    4  A    between atoms: O_10  and  C_11
REMARK    5  A    between atoms: C_16  and  C_17
REMARK                            x       y       z     vdW  Elec       q    Type
REMARK                         _______ _______ _______ _____ _____    ______ ____
ROOT
ATOM      1  C   UNL     1      44.146   4.884  11.693  0.00  0.00    +0.000 A 
ATOM      2  C   UNL     1      43.859   6.245  11.650  0.00  0.00    +0.000 A 
ATOM      3  F   UNL     1      42.735   6.681  11.059  0.00  0.00    +0.000 F 
ATOM      4  C   UNL     1      44.729   7.177  12.201  0.00  0.00    +0.000 A 
ATOM      5  C   UNL     1      45.923   6.752  12.793  0.00  0.00    +0.000 A 
ATOM      6  C   UNL     1      46.254   5.388  12.850  0.00  0.00    +0.000 A 
ATOM      7  C   UNL     1      45.313   4.475  12.345  0.00  0.00    +0.000 A 
ATOM      8  F   UNL     1      45.546   3.165  12.518  0.00  0.00    +0.000 F 
ENDROOT
BRANCH   6   9
ATOM      9  C   UNL     1      47.547   4.846  13.463  0.00  0.00    +0.000 C 
ATOM     10  C   UNL     1      47.384   3.898  14.667  0.00  0.00    +0.000 C 
ATOM     11  C   UNL     1      47.029   4.644  15.957  0.00  0.00    +0.000 C 
ATOM     12  N   UNL     1      47.991   5.696  16.276  0.00  0.00    +0.000 NA
ATOM     13  C   UNL     1      48.131   6.649  15.176  0.00  0.00    +0.000 C 
ATOM     14  C   UNL     1      48.543   5.957  13.878  0.00  0.00    +0.000 C 
ATOM     15  H   UNL     1      48.899   5.275  16.473  0.00  0.00    +0.000 HD
ENDBRANCH   6   9
BRANCH   1  16
ATOM     16  O   UNL     1      43.249   4.042  11.088  0.00  0.00    +0.000 OA
BRANCH  16  17
ATOM     17  C   UNL     1      43.785   2.767  10.729  0.00  0.00    +0.000 C 
BRANCH  17  22
ATOM     18  C   UNL     1      46.208   2.081   7.885  0.00  0.00    +0.000 A 
ATOM     19  C   UNL     1      46.139   3.312   7.250  0.00  0.00    +0.000 A 
ATOM     20  N   UNL     1      45.336   4.327   7.656  0.00  0.00    +0.000 NA
ATOM     21  C   UNL     1      44.579   4.100   8.752  0.00  0.00    +0.000 A 
ATOM     22  C   UNL     1      44.597   2.911   9.477  0.00  0.00    +0.000 A 
ATOM     23  C   UNL     1      45.437   1.886   9.030  0.00  0.00    +0.000 A 
BRANCH  18  25
ATOM     24  N   UNL     1      46.785  -0.262   7.607  0.00  0.00    +0.000 N 
ATOM     25  C   UNL     1      47.104   1.042   7.339  0.00  0.00    +0.000 C 
ATOM     26  O   UNL     1      48.072   1.328   6.649  0.00  0.00    +0.000 OA
ATOM     27  H   UNL     1      47.336  -0.961   7.125  0.00  0.00    +0.000 HD
ATOM     28  H   UNL     1      45.872  -0.539   7.937  0.00  0.00    +0.000 HD
ENDBRANCH  18  25
ENDBRANCH  17  22
ENDBRANCH  16  17
ENDBRANCH   1  16
TORSDOF 5
ENDMDL
MODEL 8
REMARK VINA RESULT:    -7.090      3.362      6.923
REMARK INTER + INTRA:          -8.976
REMARK INTER:                  -8.493
REMARK INTRA:                  -0.483
REMARK UNBOUND:                 0.187
REMARK  Name = 
REMARK  5 active torsions:
REMARK  status: ('A' for Active; 'I' for Inactive)
REMARK    1  A    between atoms: C_2  and  C_4
REMARK    2  A    between atoms: C_8  and  C_9
REMARK    3  A    between atoms: C_9  and  O_10
REMARK    4  A    between atoms: O_10  and  C_11
REMARK    5  A    between atoms: C_16  and  C_17
REMARK                            x       y       z     vdW  Elec       q    Type
REMARK                         _______ _______ _______ _____ _____    ______ ____
ROOT
ATOM      1  C   UNL     1      46.142   5.868  12.188  0.00  0.00    +0.000 A 
ATOM      2  C   UNL     1      46.472   4.977  13.204  0.00  0.00    +0.000 A 
ATOM      3  F   UNL     1      47.156   5.399  14.279  0.00  0.00    +0.000 F 
ATOM      4  C   UNL     1      46.117   3.636  13.122  0.00  0.00    +0.000 A 
ATOM      5  C   UNL     1      45.433   3.163  11.997  0.00  0.00    +0.000 A 
ATOM      6  C   UNL     1      45.087   4.029  10.947  0.00  0.00    +0.000 A 
ATOM      7  C   UNL     1      45.402   5.389  11.103  0.00  0.00    +0.000 A 
ATOM      8  F   UNL     1      44.955   6.253  10.178  0.00  0.00    +0.000 F 
ENDROOT
BRANCH   6   9
ATOM      9  C   UNL     1      44.357   3.586   9.678  0.00  0.00    +0.000 C 
ATOM     10  C   UNL     1      44.415   2.081   9.349  0.00  0.00    +0.000 C 
ATOM     11  C   UNL     1      45.770   1.659   8.774  0.00  0.00    +0.000 C 
ATOM     12  N   UNL     1      46.148   2.441   7.600  0.00  0.00    +0.000 NA
ATOM     13  C   UNL     1      46.158   3.874   7.889  0.00  0.00    +0.000 C 
ATOM     14  C   UNL     1      44.805   4.355   8.411  0.00  0.00    +0.000 C 
ATOM     15  H   UNL     1      45.487   2.256   6.845  0.00  0.00    +0.000 HD
ENDBRANCH   6   9
BRANCH   1  16
ATOM     16  O   UNL     1      46.568   7.162  12.337  0.00  0.00    +0.000 OA
BRANCH  16  17
ATOM     17  C   UNL     1      45.612   8.034  12.943  0.00  0.00    +0.000 C 
BRANCH  17  22
ATOM     18  C   UNL     1      44.280  10.550  10.427  0.00  0.00    +0.000 A 
ATOM     19  C   UNL     1      45.318  11.469  10.481  0.00  0.00    +0.000 A 
ATOM     20  N   UNL     1      46.392  11.347  11.301  0.00  0.00    +0.000 NA
ATOM     21  C   UNL     1      46.431  10.252  12.092  0.00  0.00    +0.000 A 
ATOM     22  C   UNL     1      45.455   9.259  12.091  0.00  0.00    +0.000 A 
ATOM     23  C   UNL     1      44.362   9.415  11.234  0.00  0.00    +0.000 A 
BRANCH  18  25
ATOM     24  N   UNL     1      43.385  10.638   8.171  0.00  0.00    +0.000 N 
ATOM     25  C   UNL     1      43.150  10.798   9.510  0.00  0.00    +0.000 C 
ATOM     26  O   UNL     1      42.041  11.102   9.927  0.00  0.00    +0.000 OA
ATOM     27  H   UNL     1      42.573  10.692   7.569  0.00  0.00    +0.000 HD
ATOM     28  H   UNL     1      44.191  10.143   7.818  0.00  0.00    +0.000 HD
ENDBRANCH  18  25
ENDBRANCH  17  22
ENDBRANCH  16  17
ENDBRANCH   1  16
TORSDOF 5
ENDMDL
MODEL 9
REMARK VINA RESULT:    -6.619      2.634      4.284
REMARK INTER + INTRA:          -8.366
REMARK INTER:                  -7.602
REMARK INTRA:                  -0.765
REMARK UNBOUND:                 0.187
REMARK  Name = 
REMARK  5 active torsions:
REMARK  status: ('A' for Active; 'I' for Inactive)
REMARK    1  A    between atoms: C_2  and  C_4
REMARK    2  A    between atoms: C_8  and  C_9
REMARK    3  A    between atoms: C_9  and  O_10
REMARK    4  A    between atoms: O_10  and  C_11
REMARK    5  A    between atoms: C_16  and  C_17
REMARK                            x       y       z     vdW  Elec       q    Type
REMARK                         _______ _______ _______ _____ _____    ______ ____
ROOT
ATOM      1  C   UNL     1      47.932   6.147  13.499  0.00  0.00    +0.000 A 
ATOM      2  C   UNL     1      47.871   6.991  12.395  0.00  0.00    +0.000 A 
ATOM      3  F   UNL     1      47.239   6.598  11.277  0.00  0.00    +0.000 F 
ATOM      4  C   UNL     1      48.470   8.244  12.419  0.00  0.00    +0.000 A 
ATOM      5  C   UNL     1      49.163   8.664  13.559  0.00  0.00    +0.000 A 
ATOM      6  C   UNL     1      49.255   7.840  14.692  0.00  0.00    +0.000 A 
ATOM      7  C   UNL     1      48.574   6.611  14.651  0.00  0.00    +0.000 A 
ATOM      8  F   UNL     1      48.531   5.874  15.772  0.00  0.00    +0.000 F 
ENDROOT
BRANCH   6   9
ATOM      9  C   UNL     1      50.009   8.219  15.968  0.00  0.00    +0.000 C 
ATOM     10  C   UNL     1      50.417   9.699  16.103  0.00  0.00    +0.000 C 
ATOM     11  C   UNL     1      51.622  10.056  15.228  0.00  0.00    +0.000 C 
ATOM     12  N   UNL     1      52.774   9.195  15.483  0.00  0.00    +0.000 NA
ATOM     13  C   UNL     1      52.438   7.782  15.310  0.00  0.00    +0.000 C 
ATOM     14  C   UNL     1      51.277   7.363  16.209  0.00  0.00    +0.000 C 
ATOM     15  H   UNL     1      53.104   9.347  16.436  0.00  0.00    +0.000 HD
ENDBRANCH   6   9
BRANCH   1  16
ATOM     16  O   UNL     1      47.347   4.914  13.370  0.00  0.00    +0.000 OA
BRANCH  16  17
ATOM     17  C   UNL     1      46.058   4.806  13.977  0.00  0.00    +0.000 C 
BRANCH  17  22
ATOM     18  C   UNL     1      44.282   3.997  10.718  0.00  0.00    +0.000 A 
ATOM     19  C   UNL     1      43.101   4.687  10.946  0.00  0.00    +0.000 A 
ATOM     20  N   UNL     1      42.828   5.358  12.094  0.00  0.00    +0.000 NA
ATOM     21  C   UNL     1      43.787   5.345  13.046  0.00  0.00    +0.000 A 
ATOM     22  C   UNL     1      45.016   4.707  12.903  0.00  0.00    +0.000 A 
ATOM     23  C   UNL     1      45.264   4.025  11.708  0.00  0.00    +0.000 A 
BRANCH  18  25
ATOM     24  N   UNL     1      44.579   1.921   9.493  0.00  0.00    +0.000 N 
ATOM     25  C   UNL     1      44.459   3.283   9.437  0.00  0.00    +0.000 C 
ATOM     26  O   UNL     1      44.466   3.877   8.368  0.00  0.00    +0.000 OA
ATOM     27  H   UNL     1      44.575   1.439   8.602  0.00  0.00    +0.000 HD
ATOM     28  H   UNL     1      44.317   1.387  10.309  0.00  0.00    +0.000 HD
ENDBRANCH  18  25
ENDBRANCH  17  22
ENDBRANCH  16  17
ENDBRANCH   1  16
TORSDOF 5
ENDMDL
