MODEL 1
REMARK VINA RESULT:    -7.501      0.000      0.000
REMARK INTER + INTRA:          -8.799
REMARK INTER:                  -8.377
REMARK INTRA:                  -0.422
REMARK UNBOUND:                -0.422
REMARK  Name = 
REMARK  2 active torsions:
REMARK  status: ('A' for Active; 'I' for Inactive)
REMARK    1  A    between atoms: N_6  and  C_7
REMARK    2  A    between atoms: C_7  and  C_8
REMARK                            x       y       z     vdW  Elec       q    Type
REMARK                         _______ _______ _______ _____ _____    ______ ____
ROOT
ATOM      1  C   UNL     1      44.406   4.332  11.260  0.00  0.00    +0.000 C 
ATOM      2  C   UNL     1      43.639   5.641  11.261  0.00  0.00    +0.000 C 
ATOM      3  C   UNL     1      42.886   4.360  11.398  0.00  0.00    +0.000 C 
ENDROOT
BRANCH   1   9
ATOM      4  F   UNL     1      48.947   6.565  15.365  0.00  0.00    +0.000 F 
ATOM      5  C   UNL     1      48.018   5.957  14.620  0.00  0.00    +0.000 A 
ATOM      6  C   UNL     1      47.741   6.400  13.341  0.00  0.00    +0.000 A 
ATOM      7  C   UNL     1      46.769   5.737  12.586  0.00  0.00    +0.000 A 
ATOM      8  C   UNL     1      46.100   4.646  13.138  0.00  0.00    +0.000 A 
ATOM      9  N   UNL     1      45.154   3.898  12.442  0.00  0.00    +0.000 N 
ATOM     10  N   UNL     1      46.367   4.213  14.390  0.00  0.00    +0.000 NA
ATOM     11  C   UNL     1      47.313   4.874  15.105  0.00  0.00    +0.000 A 
ATOM     12  H   UNL     1      44.756   3.212  13.075  0.00  0.00    +0.000 HD
ENDBRANCH   1   9
BRANCH   1  13
ATOM     13  C   UNL     1      44.922   3.784   9.929  0.00  0.00    +0.000 A 
ATOM     14  C   UNL     1      45.442   4.647   8.941  0.00  0.00    +0.000 A 
ATOM     15  C   UNL     1      46.077   4.150   7.798  0.00  0.00    +0.000 A 
ATOM     16  C   UNL     1      46.183   2.778   7.617  0.00  0.00    +0.000 A 
ATOM     17  F   UNL     1      46.844   2.300   6.555  0.00  0.00    +0.000 F 
ATOM     18  C   UNL     1      45.626   1.909   8.544  0.00  0.00    +0.000 A 
ATOM     19  F   UNL     1      45.725   0.584   8.374  0.00  0.00    +0.000 F 
ATOM     20  C   UNL     1      44.993   2.401   9.680  0.00  0.00    +0.000 A 
ENDBRANCH   1  13
TORSDOF 2
ENDMDL
MODEL 2
REMARK VINA RESULT:    -7.150      1.726      5.901
REMARK INTER + INTRA:          -8.408
REMARK INTER:                  -8.600
REMARK INTRA:                   0.193
REMARK UNBOUND:                -0.422
REMARK  Name = 
REMARK  2 active torsions:
REMARK  status: ('A' for Active; 'I' for Inactive)
REMARK    1  A    between atoms: N_6  and  C_7
REMARK    2  A    between atoms: C_7  and  C_8
REMARK                            x       y       z     vdW  Elec       q    Type
REMARK                         _______ _______ _______ _____ _____    ______ ____
ROOT
ATOM      1  C   UNL     1      44.270   3.897  11.177  0.00  0.00    +0.000 C 
ATOM      2  C   UNL     1      42.878   4.110  11.739  0.00  0.00    +0.000 C 
ATOM      3  C   UNL     1      43.320   4.928  10.573  0.00  0.00    +0.000 C 
ENDROOT
BRANCH   1   9
ATOM      4  F   UNL     1      47.551   2.388   5.753  0.00  0.00    +0.000 F 
ATOM      5  C   UNL     1      46.834   2.525   6.874  0.00  0.00    +0.000 A 
ATOM      6  C   UNL     1      46.365   3.764   7.263  0.00  0.00    +0.000 A 
ATOM      7  C   UNL     1      45.613   3.871   8.436  0.00  0.00    +0.000 A 
ATOM      8  C   UNL     1      45.353   2.726   9.189  0.00  0.00    +0.000 A 
ATOM      9  N   UNL     1      44.574   2.732  10.343  0.00  0.00    +0.000 N 
ATOM     10  N   UNL     1      45.814   1.514   8.812  0.00  0.00    +0.000 NA
ATOM     11  C   UNL     1      46.545   1.435   7.670  0.00  0.00    +0.000 A 
ATOM     12  H   UNL     1      44.595   1.803  10.751  0.00  0.00    +0.000 HD
ENDBRANCH   1   9
BRANCH   1  13
ATOM     13  C   UNL     1      45.465   4.485  11.928  0.00  0.00    +0.000 A 
ATOM     14  C   UNL     1      46.038   5.713  11.533  0.00  0.00    +0.000 A 
ATOM     15  C   UNL     1      47.012   6.349  12.312  0.00  0.00    +0.000 A 
ATOM     16  C   UNL     1      47.441   5.753  13.489  0.00  0.00    +0.000 A 
ATOM     17  F   UNL     1      48.327   6.389  14.266  0.00  0.00    +0.000 F 
ATOM     18  C   UNL     1      46.938   4.517  13.867  0.00  0.00    +0.000 A 
ATOM     19  F   UNL     1      47.350   3.937  15.003  0.00  0.00    +0.000 F 
ATOM     20  C   UNL     1      45.971   3.882  13.094  0.00  0.00    +0.000 A 
ENDBRANCH   1  13
TORSDOF 2
ENDMDL
MODEL 3
REMARK VINA RESULT:    -6.918      1.745      6.392
REMARK INTER + INTRA:          -8.149
REMARK INTER:                  -7.789
REMARK INTRA:                  -0.359
REMARK UNBOUND:                -0.422
REMARK  Name = 
REMARK  2 active torsions:
REMARK  status: ('A' for Active; 'I' for Inactive)
REMARK    1  A    between atoms: N_6  and  C_7
REMARK    2  A    between atoms: C_7  and  C_8
REMARK                            x       y       z     vdW  Elec       q    Type
REMARK                         _______ _______ _______ _____ _____    ______ ____
ROOT
ATOM      1  C   UNL     1      44.608   5.012  10.795  0.00  0.00    +0.000 C 
ATOM      2  C   UNL     1      43.380   4.143  10.990  0.00  0.00    +0.000 C 
ATOM      3  C   UNL     1      43.207   5.618  10.853  0.00  0.00    +0.000 C 
ENDROOT
BRANCH   1   9
ATOM      4  F   UNL     1      46.849   1.020   6.159  0.00  0.00    +0.000 F 
ATOM      5  C   UNL     1      46.449   1.973   7.008  0.00  0.00    +0.000 A 
ATOM      6  C   UNL     1      46.187   1.672   8.330  0.00  0.00    +0.000 A 
ATOM      7  C   UNL     1      45.777   2.693   9.193  0.00  0.00    +0.000 A 
ATOM      8  C   UNL     1      45.642   3.991   8.702  0.00  0.00    +0.000 A 
ATOM      9  N   UNL     1      45.287   5.076   9.499  0.00  0.00    +0.000 N 
ATOM     10  N   UNL     1      45.894   4.286   7.408  0.00  0.00    +0.000 NA
ATOM     11  C   UNL     1      46.288   3.277   6.588  0.00  0.00    +0.000 A 
ATOM     12  H   UNL     1      45.179   5.891   8.905  0.00  0.00    +0.000 HD
ENDBRANCH   1   9
BRANCH   1  13
ATOM     13  C   UNL     1      45.492   5.318  12.005  0.00  0.00    +0.000 A 
ATOM     14  C   UNL     1      45.513   4.459  13.124  0.00  0.00    +0.000 A 
ATOM     15  C   UNL     1      46.441   4.628  14.158  0.00  0.00    +0.000 A 
ATOM     16  C   UNL     1      47.350   5.675  14.095  0.00  0.00    +0.000 A 
ATOM     17  F   UNL     1      48.279   5.802  15.052  0.00  0.00    +0.000 F 
ATOM     18  C   UNL     1      47.309   6.569  13.036  0.00  0.00    +0.000 A 
ATOM     19  F   UNL     1      48.184   7.582  12.971  0.00  0.00    +0.000 F 
ATOM     20  C   UNL     1      46.386   6.404  12.008  0.00  0.00    +0.000 A 
ENDBRANCH   1  13
TORSDOF 2
ENDMDL
MODEL 4
REMARK VINA RESULT:    -6.525      2.014      2.601
REMARK INTER + INTRA:          -7.710
REMARK INTER:                  -8.231
REMARK INTRA:                   0.521
REMARK UNBOUND:                -0.422
REMARK  Name = 
REMARK  2 active torsions:
REMARK  status: ('A' for Active; 'I' for Inactive)
REMARK    1  A    between atoms: N_6  and  C_7
REMARK    2  A    between atoms: C_7  and  C_8
REMARK                            x       y       z     vdW  Elec       q    Type
REMARK                         _______ _______ _______ _____ _____    ______ ____
ROOT
ATOM      1  C   UNL     1      44.112   3.933  11.102  0.00  0.00    +0.000 C 
ATOM      2  C   UNL     1      43.352   2.874  11.879  0.00  0.00    +0.000 C 
ATOM      3  C   UNL     1      44.697   3.301  12.363  0.00  0.00    +0.000 C 
ENDROOT
BRANCH   1   9
ATOM      4  F   UNL     1      46.777   9.666  12.677  0.00  0.00    +0.000 F 
ATOM      5  C   UNL     1      46.079   8.581  12.324  0.00  0.00    +0.000 A 
ATOM      6  C   UNL     1      46.515   7.319  12.678  0.00  0.00    +0.000 A 
ATOM      7  C   UNL     1      45.758   6.206  12.300  0.00  0.00    +0.000 A 
ATOM      8  C   UNL     1      44.582   6.392  11.575  0.00  0.00    +0.000 A 
ATOM      9  N   UNL     1      43.743   5.347  11.199  0.00  0.00    +0.000 N 
ATOM     10  N   UNL     1      44.157   7.625  11.224  0.00  0.00    +0.000 NA
ATOM     11  C   UNL     1      44.909   8.691  11.600  0.00  0.00    +0.000 A 
ATOM     12  H   UNL     1      43.000   5.722  10.619  0.00  0.00    +0.000 HD
ENDBRANCH   1   9
BRANCH   1  13
ATOM     13  C   UNL     1      44.805   3.532   9.799  0.00  0.00    +0.000 A 
ATOM     14  C   UNL     1      45.339   4.508   8.931  0.00  0.00    +0.000 A 
ATOM     15  C   UNL     1      46.127   4.154   7.830  0.00  0.00    +0.000 A 
ATOM     16  C   UNL     1      46.376   2.814   7.571  0.00  0.00    +0.000 A 
ATOM     17  F   UNL     1      47.180   2.476   6.555  0.00  0.00    +0.000 F 
ATOM     18  C   UNL     1      45.812   1.834   8.374  0.00  0.00    +0.000 A 
ATOM     19  F   UNL     1      46.049   0.538   8.127  0.00  0.00    +0.000 F 
ATOM     20  C   UNL     1      45.027   2.183   9.468  0.00  0.00    +0.000 A 
ENDBRANCH   1  13
TORSDOF 2
ENDMDL
MODEL 5
REMARK VINA RESULT:    -6.121      1.589      2.297
REMARK INTER + INTRA:          -7.258
REMARK INTER:                  -7.595
REMARK INTRA:                   0.337
REMARK UNBOUND:                -0.422
REMARK  Name = 
REMARK  2 active torsions:
REMARK  status: ('A' for Active; 'I' for Inactive)
REMARK    1  A    between atoms: N_6  and  C_7
REMARK    2  A    between atoms: C_7  and  C_8
REMARK                            x       y       z     vdW  Elec       q    Type
REMARK                         _______ _______ _______ _____ _____    ______ ____
ROOT
ATOM      1  C   UNL     1      43.857   5.421  11.604  0.00  0.00    +0.000 C 
ATOM      2  C   UNL     1      42.348   5.432  11.757  0.00  0.00    +0.000 C 
ATOM      3  C   UNL     1      43.172   4.717  12.773  0.00  0.00    +0.000 C 
ENDROOT
BRANCH   1   9
ATOM      4  F   UNL     1      49.475   6.954  14.527  0.00  0.00    +0.000 F 
ATOM      5  C   UNL     1      48.301   6.814  13.902  0.00  0.00    +0.000 A 
ATOM      6  C   UNL     1      47.561   5.657  14.043  0.00  0.00    +0.000 A 
ATOM      7  C   UNL     1      46.335   5.547  13.382  0.00  0.00    +0.000 A 
ATOM      8  C   UNL     1      45.885   6.605  12.593  0.00  0.00    +0.000 A 
ATOM      9  N   UNL     1      44.656   6.601  11.938  0.00  0.00    +0.000 N 
ATOM     10  N   UNL     1      46.609   7.736  12.450  0.00  0.00    +0.000 NA
ATOM     11  C   UNL     1      47.798   7.820  13.100  0.00  0.00    +0.000 A 
ATOM     12  H   UNL     1      44.590   7.440  11.372  0.00  0.00    +0.000 HD
ENDBRANCH   1   9
BRANCH   1  13
ATOM     13  C   UNL     1      44.484   4.486  10.568  0.00  0.00    +0.000 A 
ATOM     14  C   UNL     1      44.082   3.137  10.471  0.00  0.00    +0.000 A 
ATOM     15  C   UNL     1      44.514   2.320   9.420  0.00  0.00    +0.000 A 
ATOM     16  C   UNL     1      45.373   2.838   8.461  0.00  0.00    +0.000 A 
ATOM     17  F   UNL     1      45.738   2.077   7.422  0.00  0.00    +0.000 F 
ATOM     18  C   UNL     1      45.831   4.142   8.569  0.00  0.00    +0.000 A 
ATOM     19  F   UNL     1      46.661   4.647   7.646  0.00  0.00    +0.000 F 
ATOM     20  C   UNL     1      45.404   4.956   9.614  0.00  0.00    +0.000 A 
ENDBRANCH   1  13
TORSDOF 2
ENDMDL
MODEL 6
REMARK VINA RESULT:    -5.764      3.294      6.439
REMARK INTER + INTRA:          -6.860
REMARK INTER:                  -6.516
REMARK INTRA:                  -0.343
REMARK UNBOUND:                -0.422
REMARK  Name = 
REMARK  2 active torsions:
REMARK  status: ('A' for Active; 'I' for Inactive)
REMARK    1  A    between atoms: N_6  and  C_7
REMARK    2  A    between atoms: C_7  and  C_8
REMARK                            x       y       z     vdW  Elec       q    Type
REMARK                         _______ _______ _______ _____ _____    ______ ____
ROOT
ATOM      1  C   UNL     1      45.547   5.726  12.306  0.00  0.00    +0.000 C 
ATOM      2  C   UNL     1      46.935   5.327  12.772  0.00  0.00    +0.000 C 
ATOM      3  C   UNL     1      45.801   5.262  13.739  0.00  0.00    +0.000 C 
ENDROOT
BRANCH   1   9
ATOM      4  F   UNL     1      45.675   3.044   6.369  0.00  0.00    +0.000 F 
ATOM      5  C   UNL     1      45.494   3.508   7.611  0.00  0.00    +0.000 A 
ATOM      6  C   UNL     1      46.166   4.634   8.046  0.00  0.00    +0.000 A 
ATOM      7  C   UNL     1      45.949   5.096   9.347  0.00  0.00    +0.000 A 
ATOM      8  C   UNL     1      45.061   4.413  10.177  0.00  0.00    +0.000 A 
ATOM      9  N   UNL     1      44.748   4.829  11.468  0.00  0.00    +0.000 N 
ATOM     10  N   UNL     1      44.406   3.310   9.754  0.00  0.00    +0.000 NA
ATOM     11  C   UNL     1      44.635   2.878   8.487  0.00  0.00    +0.000 A 
ATOM     12  H   UNL     1      44.145   4.133  11.895  0.00  0.00    +0.000 HD
ENDBRANCH   1   9
BRANCH   1  13
ATOM     13  C   UNL     1      45.220   7.213  12.160  0.00  0.00    +0.000 A 
ATOM     14  C   UNL     1      46.076   8.200  12.694  0.00  0.00    +0.000 A 
ATOM     15  C   UNL     1      45.885   9.559  12.418  0.00  0.00    +0.000 A 
ATOM     16  C   UNL     1      44.821   9.950  11.619  0.00  0.00    +0.000 A 
ATOM     17  F   UNL     1      44.673  11.243  11.303  0.00  0.00    +0.000 F 
ATOM     18  C   UNL     1      43.931   9.004  11.133  0.00  0.00    +0.000 A 
ATOM     19  F   UNL     1      42.901   9.378  10.360  0.00  0.00    +0.000 F 
ATOM     20  C   UNL     1      44.117   7.653  11.407  0.00  0.00    +0.000 A 
ENDBRANCH   1  13
TORSDOF 2
ENDMDL
MODEL 7
REMARK VINA RESULT:    -5.701      3.668      6.682
REMARK INTER + INTRA:          -6.789
REMARK INTER:                  -6.412
REMARK INTRA:                  -0.377
REMARK UNBOUND:                -0.422
REMARK  Name = 
REMARK  2 active torsions:
REMARK  status: ('A' for Active; 'I' for Inactive)
REMARK    1  A    between atoms: N_6  and  C_7
REMARK    2  A    between atoms: C_7  and  C_8
REMARK                            x       y       z     vdW  Elec       q    Type
REMARK                         _______ _______ _______ _____ _____    ______ ____
ROOT
ATOM      1  C   UNL     1      47.172   7.322  13.162  0.00  0.00    +0.000 C 
ATOM      2  C   UNL     1      48.600   6.880  12.903  0.00  0.00    +0.000 C 
ATOM      3  C   UNL     1      48.223   7.340  14.271  0.00  0.00    +0.000 C 
ENDROOT
BRANCH   1   9
ATOM      4  F   UNL     1      43.918   2.948   9.593  0.00  0.00    +0.000 F 
ATOM      5  C   UNL     1      44.482   3.795  10.462  0.00  0.00    +0.000 A 
ATOM      6  C   UNL     1      45.201   4.886  10.015  0.00  0.00    +0.000 A 
ATOM      7  C   UNL     1      45.771   5.755  10.949  0.00  0.00    +0.000 A 
ATOM      8  C   UNL     1      45.604   5.502  12.310  0.00  0.00    +0.000 A 
ATOM      9  N   UNL     1      46.096   6.340  13.308  0.00  0.00    +0.000 N 
ATOM     10  N   UNL     1      44.905   4.433  12.749  0.00  0.00    +0.000 NA
ATOM     11  C   UNL     1      44.362   3.602  11.823  0.00  0.00    +0.000 A 
ATOM     12  H   UNL     1      45.917   5.908  14.209  0.00  0.00    +0.000 HD
ENDBRANCH   1   9
BRANCH   1  13
ATOM     13  C   UNL     1      46.729   8.701  12.672  0.00  0.00    +0.000 A 
ATOM     14  C   UNL     1      47.663   9.617  12.141  0.00  0.00    +0.000 A 
ATOM     15  C   UNL     1      47.251  10.807  11.529  0.00  0.00    +0.000 A 
ATOM     16  C   UNL     1      45.899  11.106  11.459  0.00  0.00    +0.000 A 
ATOM     17  F   UNL     1      45.499  12.213  10.819  0.00  0.00    +0.000 F 
ATOM     18  C   UNL     1      44.966  10.252  12.028  0.00  0.00    +0.000 A 
ATOM     19  F   UNL     1      43.658  10.536  11.962  0.00  0.00    +0.000 F 
ATOM     20  C   UNL     1      45.372   9.069  12.638  0.00  0.00    +0.000 A 
ENDBRANCH   1  13
TORSDOF 2
ENDMDL
MODEL 8
REMARK VINA RESULT:    -5.698      3.681      5.088
REMARK INTER + INTRA:          -6.786
REMARK INTER:                  -6.245
REMARK INTRA:                  -0.541
REMARK UNBOUND:                -0.422
REMARK  Name = 
REMARK  2 active torsions:
REMARK  status: ('A' for Active; 'I' for Inactive)
REMARK    1  A    between atoms: N_6  and  C_7
REMARK    2  A    between atoms: C_7  and  C_8
REMARK                            x       y       z     vdW  Elec       q    Type
REMARK                         _______ _______ _______ _____ _____    ______ ____
ROOT
ATOM      1  C   UNL     1      45.901   4.307  13.013  0.00  0.00    +0.000 C 
ATOM      2  C   UNL     1      44.457   3.894  13.225  0.00  0.00    +0.000 C 
ATOM      3  C   UNL     1      45.119   3.574  11.927  0.00  0.00    +0.000 C 
ENDROOT
BRANCH   1   9
ATOM      4  F   UNL     1      48.611   3.421  18.873  0.00  0.00    +0.000 F 
ATOM      5  C   UNL     1      48.178   3.490  17.609  0.00  0.00    +0.000 A 
ATOM      6  C   UNL     1      47.390   4.544  17.191  0.00  0.00    +0.000 A 
ATOM      7  C   UNL     1      46.961   4.589  15.861  0.00  0.00    +0.000 A 
ATOM      8  C   UNL     1      47.337   3.571  14.986  0.00  0.00    +0.000 A 
ATOM      9  N   UNL     1      46.996   3.561  13.636  0.00  0.00    +0.000 N 
ATOM     10  N   UNL     1      48.105   2.537  15.394  0.00  0.00    +0.000 NA
ATOM     11  C   UNL     1      48.507   2.513  16.691  0.00  0.00    +0.000 A 
ATOM     12  H   UNL     1      47.315   2.687  13.230  0.00  0.00    +0.000 HD
ENDBRANCH   1   9
BRANCH   1  13
ATOM     13  C   UNL     1      46.209   5.774  12.707  0.00  0.00    +0.000 A 
ATOM     14  C   UNL     1      45.226   6.772  12.877  0.00  0.00    +0.000 A 
ATOM     15  C   UNL     1      45.540   8.132  12.772  0.00  0.00    +0.000 A 
ATOM     16  C   UNL     1      46.841   8.511  12.474  0.00  0.00    +0.000 A 
ATOM     17  F   UNL     1      47.157   9.812  12.434  0.00  0.00    +0.000 F 
ATOM     18  C   UNL     1      47.811   7.547  12.243  0.00  0.00    +0.000 A 
ATOM     19  F   UNL     1      49.069   7.908  11.955  0.00  0.00    +0.000 F 
ATOM     20  C   UNL     1      47.501   6.195  12.345  0.00  0.00    +0.000 A 
ENDBRANCH   1  13
TORSDOF 2
ENDMDL
MODEL 9
REMARK VINA RESULT:    -5.588      2.115      2.950
REMARK INTER + INTRA:          -6.663
REMARK INTER:                  -6.380
REMARK INTRA:                  -0.284
REMARK UNBOUND:                -0.422
REMARK  Name = 
REMARK  2 active torsions:
REMARK  status: ('A' for Active; 'I' for Inactive)
REMARK    1  A    between atoms: N_6  and  C_7
REMARK    2  A    between atoms: C_7  and  C_8
REMARK                            x       y       z     vdW  Elec       q    Type
REMARK                         _______ _______ _______ _____ _____    ______ ____
ROOT
ATOM      1  C   UNL     1      45.396   6.223  11.969  0.00  0.00    +0.000 C 
ATOM      2  C   UNL     1      44.899   7.558  11.447  0.00  0.00    +0.000 C 
ATOM      3  C   UNL     1      44.077   6.822  12.452  0.00  0.00    +0.000 C 
ENDROOT
BRANCH   1   9
ATOM      4  F   UNL     1      51.435   8.491  12.891  0.00  0.00    +0.000 F 
ATOM      5  C   UNL     1      50.215   7.943  12.859  0.00  0.00    +0.000 A 
ATOM      6  C   UNL     1      49.528   7.824  11.666  0.00  0.00    +0.000 A 
ATOM      7  C   UNL     1      48.258   7.240  11.667  0.00  0.00    +0.000 A 
ATOM      8  C   UNL     1      47.711   6.792  12.869  0.00  0.00    +0.000 A 
ATOM      9  N   UNL     1      46.476   6.156  12.956  0.00  0.00    +0.000 N 
ATOM     10  N   UNL     1      48.380   6.911  14.037  0.00  0.00    +0.000 NA
ATOM     11  C   UNL     1      49.611   7.484  14.012  0.00  0.00    +0.000 A 
ATOM     12  H   UNL     1      46.264   5.996  13.935  0.00  0.00    +0.000 HD
ENDBRANCH   1   9
BRANCH   1  13
ATOM     13  C   UNL     1      45.254   4.987  11.079  0.00  0.00    +0.000 A 
ATOM     14  C   UNL     1      44.794   3.762  11.608  0.00  0.00    +0.000 A 
ATOM     15  C   UNL     1      44.492   2.676  10.779  0.00  0.00    +0.000 A 
ATOM     16  C   UNL     1      44.665   2.795   9.407  0.00  0.00    +0.000 A 
ATOM     17  F   UNL     1      44.318   1.779   8.606  0.00  0.00    +0.000 F 
ATOM     18  C   UNL     1      45.174   3.968   8.869  0.00  0.00    +0.000 A 
ATOM     19  F   UNL     1      45.343   4.088   7.546  0.00  0.00    +0.000 F 
ATOM     20  C   UNL     1      45.477   5.048   9.692  0.00  0.00    +0.000 A 
ENDBRANCH   1  13
TORSDOF 2
ENDMDL
