MODEL 1
REMARK VINA RESULT:    -8.326      0.000      0.000
REMARK INTER + INTRA:         -13.578
REMARK INTER:                 -12.464
REMARK INTRA:                  -1.114
REMARK UNBOUND:                -1.114
REMARK  Name = 
REMARK  11 active torsions:
REMARK  status: ('A' for Active; 'I' for Inactive)
REMARK    1  A    between atoms: C_1  and  C_2
REMARK    2  A    between atoms: N_4  and  C_5
REMARK    3  A    between atoms: C_7  and  C_8
REMARK    4  A    between atoms: C_8  and  C_9
REMARK    5  A    between atoms: C_9  and  C_10
REMARK    6  A    between atoms: C_10  and  O_11
REMARK    7  A    between atoms: C_13  and  C_14
REMARK    8  A    between atoms: C_14  and  C_15
REMARK    9  A    between atoms: C_15  and  N_16
REMARK   10  A    between atoms: C_20  and  C_21
REMARK   11  A    between atoms: C_28  and  C_29
REMARK                            x       y       z     vdW  Elec       q    Type
REMARK                         _______ _______ _______ _____ _____    ______ ____
ROOT
ATOM      1  C   UNL     1      47.000   7.104  13.171  0.00  0.00    +0.000 A 
ATOM      2  C   UNL     1      47.485   6.003  13.891  0.00  0.00    +0.000 A 
ATOM      3  C   UNL     1      46.752   4.814  14.034  0.00  0.00    +0.000 A 
ATOM      4  C   UNL     1      45.497   4.709  13.423  0.00  0.00    +0.000 A 
ATOM      5  C   UNL     1      44.959   5.792  12.727  0.00  0.00    +0.000 A 
ATOM      6  C   UNL     1      45.725   6.962  12.596  0.00  0.00    +0.000 A 
ENDROOT
BRANCH   1  10
ATOM      7  C   UNL     1      50.531   8.063  14.594  0.00  0.00    +0.000 C 
ATOM      8  C   UNL     1      49.736   9.284  14.120  0.00  0.00    +0.000 C 
ATOM      9  C   UNL     1      48.204   9.033  14.217  0.00  0.00    +0.000 C 
ATOM     10  N   UNL     1      47.728   8.270  13.055  0.00  0.00    +0.000 N 
ATOM     11  C   UNL     1      48.087   8.851  11.758  0.00  0.00    +0.000 C 
ATOM     12  C   UNL     1      49.618   9.055  11.653  0.00  0.00    +0.000 C 
ATOM     13  C   UNL     1      50.349   7.741  11.365  0.00  0.00    +0.000 C 
ATOM     14  N   UNL     1      50.204   9.790  12.802  0.00  0.00    +0.000 NA
ATOM     15  H   UNL     1      49.866  10.751  12.729  0.00  0.00    +0.000 HD
ENDBRANCH   1  10
BRANCH   3  16
ATOM     16  C   UNL     1      47.282   3.701  14.902  0.00  0.00    +0.000 C 
BRANCH  16  17
ATOM     17  C   UNL     1      47.607   4.117  16.334  0.00  0.00    +0.000 C 
BRANCH  17  18
ATOM     18  C   UNL     1      47.745   2.928  17.277  0.00  0.00    +0.000 C 
BRANCH  18  19
ATOM     19  O   UNL     1      46.476   2.612  17.837  0.00  0.00    +0.000 OA
ATOM     20  H   UNL     1      45.800   3.092  17.331  0.00  0.00    +0.000 HD
ENDBRANCH  18  19
ENDBRANCH  17  18
ENDBRANCH  16  17
ENDBRANCH   3  16
BRANCH   5  21
ATOM     21  C   UNL     1      43.561   5.728  12.155  0.00  0.00    +0.000 C 
BRANCH  21  22
ATOM     22  C   UNL     1      43.529   5.268  10.698  0.00  0.00    +0.000 C 
BRANCH  22  23
ATOM     23  N   UNL     1      43.699   3.807  10.607  0.00  0.00    +0.000 N 
ATOM     24  C   UNL     1      44.606   3.439   9.592  0.00  0.00    +0.000 A 
ATOM     25  C   UNL     1      44.891   2.094   9.378  0.00  0.00    +0.000 A 
ATOM     26  C   UNL     1      45.808   1.741   8.379  0.00  0.00    +0.000 A 
ATOM     27  C   UNL     1      46.417   2.736   7.612  0.00  0.00    +0.000 A 
ATOM     28  C   UNL     1      46.077   4.041   7.900  0.00  0.00    +0.000 A 
ATOM     29  N   UNL     1      45.200   4.402   8.865  0.00  0.00    +0.000 NA
ATOM     30  H   UNL     1      42.819   3.325  10.440  0.00  0.00    +0.000 HD
BRANCH  27  31
ATOM     31  C   UNL     1      47.382   2.367   6.548  0.00  0.00    +0.000 C 
ATOM     32  N   UNL     1      47.352   3.049   5.359  0.00  0.00    +0.000 N 
ATOM     33  O   UNL     1      48.192   1.468   6.716  0.00  0.00    +0.000 OA
ATOM     34  H   UNL     1      46.735   3.807   5.119  0.00  0.00    +0.000 HD
ATOM     35  H   UNL     1      48.029   2.766   4.662  0.00  0.00    +0.000 HD
ENDBRANCH  27  31
ENDBRANCH  22  23
ENDBRANCH  21  22
ENDBRANCH   5  21
TORSDOF 9
ENDMDL
MODEL 2
REMARK VINA RESULT:    -7.508      2.909      3.958
REMARK INTER + INTRA:         -12.353
REMARK INTER:                 -11.158
REMARK INTRA:                  -1.195
REMARK UNBOUND:                -1.114
REMARK  Name = 
REMARK  11 active torsions:
REMARK  status: ('A' for Active; 'I' for Inactive)
REMARK    1  A    between atoms: C_1  and  C_2
REMARK    2  A    between atoms: N_4  and  C_5
REMARK    3  A    between atoms: C_7  and  C_8
REMARK    4  A    between atoms: C_8  and  C_9
REMARK    5  A    between atoms: C_9  and  C_10
REMARK    6  A    between atoms: C_10  and  O_11
REMARK    7  A    between atoms: C_13  and  C_14
REMARK    8  A    between atoms: C_14  and  C_15
REMARK    9  A    between atoms: C_15  and  N_16
REMARK   10  A    between atoms: C_20  and  C_21
REMARK   11  A    between atoms: C_28  and  C_29
REMARK                            x       y       z     vdW  Elec       q    Type
REMARK                         _______ _______ _______ _____ _____    ______ ____
ROOT
ATOM      1  C   UNL     1      45.476   9.118  11.794  0.00  0.00    +0.000 A 
ATOM      2  C   UNL     1      46.848   8.851  11.906  0.00  0.00    +0.000 A 
ATOM      3  C   UNL     1      47.355   7.545  12.009  0.00  0.00    +0.000 A 
ATOM      4  C   UNL     1      46.466   6.464  11.981  0.00  0.00    +0.000 A 
ATOM      5  C   UNL     1      45.090   6.684  11.906  0.00  0.00    +0.000 A 
ATOM      6  C   UNL     1      44.619   8.003  11.795  0.00  0.00    +0.000 A 
ENDROOT
BRANCH   1  10
ATOM      7  C   UNL     1      46.515  12.084   9.441  0.00  0.00    +0.000 C 
ATOM      8  C   UNL     1      45.681  12.548  10.639  0.00  0.00    +0.000 C 
ATOM      9  C   UNL     1      45.856  11.591  11.853  0.00  0.00    +0.000 C 
ATOM     10  N   UNL     1      44.996  10.409  11.709  0.00  0.00    +0.000 N 
ATOM     11  C   UNL     1      43.580  10.711  11.475  0.00  0.00    +0.000 C 
ATOM     12  C   UNL     1      43.413  11.626  10.237  0.00  0.00    +0.000 C 
ATOM     13  C   UNL     1      43.555  10.845   8.928  0.00  0.00    +0.000 C 
ATOM     14  N   UNL     1      44.270  12.838  10.269  0.00  0.00    +0.000 NA
ATOM     15  H   UNL     1      43.897  13.432  11.012  0.00  0.00    +0.000 HD
ENDBRANCH   1  10
BRANCH   3  16
ATOM     16  C   UNL     1      48.830   7.324  12.226  0.00  0.00    +0.000 C 
BRANCH  16  17
ATOM     17  C   UNL     1      49.349   7.811  13.577  0.00  0.00    +0.000 C 
BRANCH  17  18
ATOM     18  C   UNL     1      48.569   7.234  14.751  0.00  0.00    +0.000 C 
BRANCH  18  19
ATOM     19  O   UNL     1      47.959   8.289  15.485  0.00  0.00    +0.000 OA
ATOM     20  H   UNL     1      47.921   9.069  14.907  0.00  0.00    +0.000 HD
ENDBRANCH  18  19
ENDBRANCH  17  18
ENDBRANCH  16  17
ENDBRANCH   3  16
BRANCH   5  21
ATOM     21  C   UNL     1      44.115   5.532  11.984  0.00  0.00    +0.000 C 
BRANCH  21  22
ATOM     22  C   UNL     1      43.615   5.076  10.615  0.00  0.00    +0.000 C 
BRANCH  22  23
ATOM     23  N   UNL     1      43.789   3.621  10.451  0.00  0.00    +0.000 N 
ATOM     24  C   UNL     1      44.723   3.308   9.441  0.00  0.00    +0.000 A 
ATOM     25  C   UNL     1      45.016   1.976   9.164  0.00  0.00    +0.000 A 
ATOM     26  C   UNL     1      45.959   1.678   8.172  0.00  0.00    +0.000 A 
ATOM     27  C   UNL     1      46.586   2.711   7.475  0.00  0.00    +0.000 A 
ATOM     28  C   UNL     1      46.236   4.000   7.822  0.00  0.00    +0.000 A 
ATOM     29  N   UNL     1      45.334   4.308   8.781  0.00  0.00    +0.000 NA
ATOM     30  H   UNL     1      42.915   3.149  10.235  0.00  0.00    +0.000 HD
BRANCH  27  31
ATOM     31  C   UNL     1      47.579   2.400   6.418  0.00  0.00    +0.000 C 
ATOM     32  N   UNL     1      47.498   3.056   5.217  0.00  0.00    +0.000 N 
ATOM     33  O   UNL     1      48.456   1.571   6.603  0.00  0.00    +0.000 OA
ATOM     34  H   UNL     1      46.823   3.759   4.963  0.00  0.00    +0.000 HD
ATOM     35  H   UNL     1      48.196   2.814   4.526  0.00  0.00    +0.000 HD
ENDBRANCH  27  31
ENDBRANCH  22  23
ENDBRANCH  21  22
ENDBRANCH   5  21
TORSDOF 9
ENDMDL
MODEL 3
REMARK VINA RESULT:    -7.450      2.759      4.224
REMARK INTER + INTRA:         -12.266
REMARK INTER:                 -11.232
REMARK INTRA:                  -1.033
REMARK UNBOUND:                -1.114
REMARK  Name = 
REMARK  11 active torsions:
REMARK  status: ('A' for Active; 'I' for Inactive)
REMARK    1  A    between atoms: C_1  and  C_2
REMARK    2  A    between atoms: N_4  and  C_5
REMARK    3  A    between atoms: C_7  and  C_8
REMARK    4  A    between atoms: C_8  and  C_9
REMARK    5  A    between atoms: C_9  and  C_10
REMARK    6  A    between atoms: C_10  and  O_11
REMARK    7  A    between atoms: C_13  and  C_14
REMARK    8  A    between atoms: C_14  and  C_15
REMARK    9  A    between atoms: C_15  and  N_16
REMARK   10  A    between atoms: C_20  and  C_21
REMARK   11  A    between atoms: C_28  and  C_29
REMARK                            x       y       z     vdW  Elec       q    Type
REMARK                         _______ _______ _______ _____ _____    ______ ____
ROOT
ATOM      1  C   UNL     1      46.875   8.258  12.777  0.00  0.00    +0.000 A 
ATOM      2  C   UNL     1      46.121   9.299  12.217  0.00  0.00    +0.000 A 
ATOM      3  C   UNL     1      44.840   9.096  11.679  0.00  0.00    +0.000 A 
ATOM      4  C   UNL     1      44.281   7.814  11.715  0.00  0.00    +0.000 A 
ATOM      5  C   UNL     1      45.009   6.740  12.229  0.00  0.00    +0.000 A 
ATOM      6  C   UNL     1      46.284   6.983  12.769  0.00  0.00    +0.000 A 
ENDROOT
BRANCH   1  10
ATOM      7  C   UNL     1      48.026   9.457  16.334  0.00  0.00    +0.000 C 
ATOM      8  C   UNL     1      49.142   9.561  15.289  0.00  0.00    +0.000 C 
ATOM      9  C   UNL     1      48.559   9.760  13.860  0.00  0.00    +0.000 C 
ATOM     10  N   UNL     1      48.139   8.474  13.287  0.00  0.00    +0.000 N 
ATOM     11  C   UNL     1      49.175   7.436  13.295  0.00  0.00    +0.000 C 
ATOM     12  C   UNL     1      49.716   7.213  14.728  0.00  0.00    +0.000 C 
ATOM     13  C   UNL     1      48.751   6.380  15.577  0.00  0.00    +0.000 C 
ATOM     14  N   UNL     1      50.137   8.462  15.411  0.00  0.00    +0.000 NA
ATOM     15  H   UNL     1      50.977   8.784  14.925  0.00  0.00    +0.000 HD
ENDBRANCH   1  10
BRANCH   3  16
ATOM     16  C   UNL     1      44.118  10.233  11.002  0.00  0.00    +0.000 C 
BRANCH  16  17
ATOM     17  C   UNL     1      42.757   9.860  10.420  0.00  0.00    +0.000 C 
BRANCH  17  18
ATOM     18  C   UNL     1      41.595  10.385  11.254  0.00  0.00    +0.000 C 
BRANCH  18  19
ATOM     19  O   UNL     1      40.618   9.364  11.410  0.00  0.00    +0.000 OA
ATOM     20  H   UNL     1      40.899   8.599  10.881  0.00  0.00    +0.000 HD
ENDBRANCH  18  19
ENDBRANCH  17  18
ENDBRANCH  16  17
ENDBRANCH   3  16
BRANCH   5  21
ATOM     21  C   UNL     1      44.460   5.333  12.175  0.00  0.00    +0.000 C 
BRANCH  21  22
ATOM     22  C   UNL     1      43.784   5.004  10.846  0.00  0.00    +0.000 C 
BRANCH  22  23
ATOM     23  N   UNL     1      43.857   3.559  10.565  0.00  0.00    +0.000 N 
ATOM     24  C   UNL     1      44.758   3.266   9.519  0.00  0.00    +0.000 A 
ATOM     25  C   UNL     1      44.958   1.944   9.133  0.00  0.00    +0.000 A 
ATOM     26  C   UNL     1      45.868   1.663   8.106  0.00  0.00    +0.000 A 
ATOM     27  C   UNL     1      46.556   2.706   7.483  0.00  0.00    +0.000 A 
ATOM     28  C   UNL     1      46.298   3.982   7.937  0.00  0.00    +0.000 A 
ATOM     29  N   UNL     1      45.428   4.273   8.932  0.00  0.00    +0.000 NA
ATOM     30  H   UNL     1      42.951   3.165  10.326  0.00  0.00    +0.000 HD
BRANCH  27  31
ATOM     31  C   UNL     1      47.515   2.415   6.390  0.00  0.00    +0.000 C 
ATOM     32  N   UNL     1      47.409   3.108   5.212  0.00  0.00    +0.000 N 
ATOM     33  O   UNL     1      48.387   1.569   6.525  0.00  0.00    +0.000 OA
ATOM     34  H   UNL     1      46.738   3.826   4.998  0.00  0.00    +0.000 HD
ATOM     35  H   UNL     1      48.085   2.878   4.495  0.00  0.00    +0.000 HD
ENDBRANCH  27  31
ENDBRANCH  22  23
ENDBRANCH  21  22
ENDBRANCH   5  21
TORSDOF 9
ENDMDL
MODEL 4
REMARK VINA RESULT:    -7.396      0.990      1.728
REMARK INTER + INTRA:         -12.186
REMARK INTER:                 -10.900
REMARK INTRA:                  -1.286
REMARK UNBOUND:                -1.114
REMARK  Name = 
REMARK  11 active torsions:
REMARK  status: ('A' for Active; 'I' for Inactive)
REMARK    1  A    between atoms: C_1  and  C_2
REMARK    2  A    between atoms: N_4  and  C_5
REMARK    3  A    between atoms: C_7  and  C_8
REMARK    4  A    between atoms: C_8  and  C_9
REMARK    5  A    between atoms: C_9  and  C_10
REMARK    6  A    between atoms: C_10  and  O_11
REMARK    7  A    between atoms: C_13  and  C_14
REMARK    8  A    between atoms: C_14  and  C_15
REMARK    9  A    between atoms: C_15  and  N_16
REMARK   10  A    between atoms: C_20  and  C_21
REMARK   11  A    between atoms: C_28  and  C_29
REMARK                            x       y       z     vdW  Elec       q    Type
REMARK                         _______ _______ _______ _____ _____    ______ ____
ROOT
ATOM      1  C   UNL     1      47.636   6.650  12.969  0.00  0.00    +0.000 A 
ATOM      2  C   UNL     1      47.935   5.599  13.848  0.00  0.00    +0.000 A 
ATOM      3  C   UNL     1      46.989   4.625  14.206  0.00  0.00    +0.000 A 
ATOM      4  C   UNL     1      45.704   4.686  13.654  0.00  0.00    +0.000 A 
ATOM      5  C   UNL     1      45.352   5.734  12.802  0.00  0.00    +0.000 A 
ATOM      6  C   UNL     1      46.326   6.686  12.459  0.00  0.00    +0.000 A 
ENDROOT
BRANCH   1  10
ATOM      7  C   UNL     1      47.216  10.470  12.165  0.00  0.00    +0.000 C 
ATOM      8  C   UNL     1      48.581   9.925  11.733  0.00  0.00    +0.000 C 
ATOM      9  C   UNL     1      48.505   8.405  11.410  0.00  0.00    +0.000 C 
ATOM     10  N   UNL     1      48.574   7.608  12.642  0.00  0.00    +0.000 N 
ATOM     11  C   UNL     1      49.726   7.909  13.497  0.00  0.00    +0.000 C 
ATOM     12  C   UNL     1      49.767   9.415  13.852  0.00  0.00    +0.000 C 
ATOM     13  C   UNL     1      48.753   9.772  14.942  0.00  0.00    +0.000 C 
ATOM     14  N   UNL     1      49.668  10.311  12.672  0.00  0.00    +0.000 NA
ATOM     15  H   UNL     1      50.543  10.200  12.155  0.00  0.00    +0.000 HD
ENDBRANCH   1  10
BRANCH   3  16
ATOM     16  C   UNL     1      47.338   3.576  15.231  0.00  0.00    +0.000 C 
BRANCH  16  17
ATOM     17  C   UNL     1      47.152   4.022  16.679  0.00  0.00    +0.000 C 
BRANCH  17  18
ATOM     18  C   UNL     1      48.421   3.877  17.509  0.00  0.00    +0.000 C 
BRANCH  18  19
ATOM     19  O   UNL     1      49.325   4.927  17.190  0.00  0.00    +0.000 OA
ATOM     20  H   UNL     1      49.450   4.929  16.226  0.00  0.00    +0.000 HD
ENDBRANCH  18  19
ENDBRANCH  17  18
ENDBRANCH  16  17
ENDBRANCH   3  16
BRANCH   5  21
ATOM     21  C   UNL     1      43.938   5.872  12.286  0.00  0.00    +0.000 C 
BRANCH  21  22
ATOM     22  C   UNL     1      43.783   5.425  10.834  0.00  0.00    +0.000 C 
BRANCH  22  23
ATOM     23  N   UNL     1      43.864   3.957  10.726  0.00  0.00    +0.000 N 
ATOM     24  C   UNL     1      44.720   3.546   9.682  0.00  0.00    +0.000 A 
ATOM     25  C   UNL     1      44.919   2.189   9.450  0.00  0.00    +0.000 A 
ATOM     26  C   UNL     1      45.786   1.793   8.422  0.00  0.00    +0.000 A 
ATOM     27  C   UNL     1      46.430   2.758   7.646  0.00  0.00    +0.000 A 
ATOM     28  C   UNL     1      46.176   4.078   7.954  0.00  0.00    +0.000 A 
ATOM     29  N   UNL     1      45.349   4.480   8.946  0.00  0.00    +0.000 NA
ATOM     30  H   UNL     1      42.953   3.529  10.580  0.00  0.00    +0.000 HD
BRANCH  27  31
ATOM     31  C   UNL     1      47.342   2.344   6.552  0.00  0.00    +0.000 C 
ATOM     32  N   UNL     1      47.353   3.067   5.388  0.00  0.00    +0.000 N 
ATOM     33  O   UNL     1      48.072   1.372   6.674  0.00  0.00    +0.000 OA
ATOM     34  H   UNL     1      46.801   3.885   5.186  0.00  0.00    +0.000 HD
ATOM     35  H   UNL     1      47.991   2.751   4.669  0.00  0.00    +0.000 HD
ENDBRANCH  27  31
ENDBRANCH  22  23
ENDBRANCH  21  22
ENDBRANCH   5  21
TORSDOF 9
ENDMDL
MODEL 5
REMARK VINA RESULT:    -7.368      2.716      4.126
REMARK INTER + INTRA:         -12.143
REMARK INTER:                 -11.072
REMARK INTRA:                  -1.071
REMARK UNBOUND:                -1.114
REMARK  Name = 
REMARK  11 active torsions:
REMARK  status: ('A' for Active; 'I' for Inactive)
REMARK    1  A    between atoms: C_1  and  C_2
REMARK    2  A    between atoms: N_4  and  C_5
REMARK    3  A    between atoms: C_7  and  C_8
REMARK    4  A    between atoms: C_8  and  C_9
REMARK    5  A    between atoms: C_9  and  C_10
REMARK    6  A    between atoms: C_10  and  O_11
REMARK    7  A    between atoms: C_13  and  C_14
REMARK    8  A    between atoms: C_14  and  C_15
REMARK    9  A    between atoms: C_15  and  N_16
REMARK   10  A    between atoms: C_20  and  C_21
REMARK   11  A    between atoms: C_28  and  C_29
REMARK                            x       y       z     vdW  Elec       q    Type
REMARK                         _______ _______ _______ _____ _____    ______ ____
ROOT
ATOM      1  C   UNL     1      46.802   7.842  13.034  0.00  0.00    +0.000 A 
ATOM      2  C   UNL     1      46.121   8.881  12.383  0.00  0.00    +0.000 A 
ATOM      3  C   UNL     1      44.876   8.691  11.762  0.00  0.00    +0.000 A 
ATOM      4  C   UNL     1      44.278   7.427  11.804  0.00  0.00    +0.000 A 
ATOM      5  C   UNL     1      44.936   6.355  12.410  0.00  0.00    +0.000 A 
ATOM      6  C   UNL     1      46.176   6.584  13.030  0.00  0.00    +0.000 A 
ENDROOT
BRANCH   1  10
ATOM      7  C   UNL     1      50.312   8.590  11.442  0.00  0.00    +0.000 C 
ATOM      8  C   UNL     1      50.413   8.147  12.905  0.00  0.00    +0.000 C 
ATOM      9  C   UNL     1      49.216   7.236  13.302  0.00  0.00    +0.000 C 
ATOM     10  N   UNL     1      48.032   8.044  13.625  0.00  0.00    +0.000 N 
ATOM     11  C   UNL     1      48.263   9.083  14.635  0.00  0.00    +0.000 C 
ATOM     12  C   UNL     1      49.424  10.013  14.208  0.00  0.00    +0.000 C 
ATOM     13  C   UNL     1      48.986  11.021  13.143  0.00  0.00    +0.000 C 
ATOM     14  N   UNL     1      50.662   9.288  13.827  0.00  0.00    +0.000 NA
ATOM     15  H   UNL     1      51.033   8.881  14.688  0.00  0.00    +0.000 HD
ENDBRANCH   1  10
BRANCH   3  16
ATOM     16  C   UNL     1      44.237   9.820  10.993  0.00  0.00    +0.000 C 
BRANCH  16  17
ATOM     17  C   UNL     1      42.862   9.493  10.416  0.00  0.00    +0.000 C 
BRANCH  17  18
ATOM     18  C   UNL     1      41.739  10.271  11.090  0.00  0.00    +0.000 C 
BRANCH  18  19
ATOM     19  O   UNL     1      40.687   9.382  11.444  0.00  0.00    +0.000 OA
ATOM     20  H   UNL     1      39.855   9.882  11.419  0.00  0.00    +0.000 HD
ENDBRANCH  18  19
ENDBRANCH  17  18
ENDBRANCH  16  17
ENDBRANCH   3  16
BRANCH   5  21
ATOM     21  C   UNL     1      44.351   4.962  12.368  0.00  0.00    +0.000 C 
BRANCH  21  22
ATOM     22  C   UNL     1      43.644   4.648  11.051  0.00  0.00    +0.000 C 
BRANCH  22  23
ATOM     23  N   UNL     1      43.855   3.240  10.666  0.00  0.00    +0.000 N 
ATOM     24  C   UNL     1      44.718   3.115   9.558  0.00  0.00    +0.000 A 
ATOM     25  C   UNL     1      45.035   1.850   9.071  0.00  0.00    +0.000 A 
ATOM     26  C   UNL     1      45.908   1.738   7.981  0.00  0.00    +0.000 A 
ATOM     27  C   UNL     1      46.443   2.887   7.398  0.00  0.00    +0.000 A 
ATOM     28  C   UNL     1      46.078   4.096   7.952  0.00  0.00    +0.000 A 
ATOM     29  N   UNL     1      45.242   4.225   9.008  0.00  0.00    +0.000 NA
ATOM     30  H   UNL     1      42.983   2.764  10.448  0.00  0.00    +0.000 HD
BRANCH  27  31
ATOM     31  C   UNL     1      47.362   2.774   6.239  0.00  0.00    +0.000 C 
ATOM     32  N   UNL     1      48.694   2.543   6.467  0.00  0.00    +0.000 N 
ATOM     33  O   UNL     1      46.949   2.887   5.095  0.00  0.00    +0.000 OA
ATOM     34  H   UNL     1      49.136   2.426   7.364  0.00  0.00    +0.000 HD
ATOM     35  H   UNL     1      49.283   2.471   5.648  0.00  0.00    +0.000 HD
ENDBRANCH  27  31
ENDBRANCH  22  23
ENDBRANCH  21  22
ENDBRANCH   5  21
TORSDOF 9
ENDMDL
MODEL 6
REMARK VINA RESULT:    -7.251      3.277      4.612
REMARK INTER + INTRA:         -11.968
REMARK INTER:                 -10.827
REMARK INTRA:                  -1.141
REMARK UNBOUND:                -1.114
REMARK  Name = 
REMARK  11 active torsions:
REMARK  status: ('A' for Active; 'I' for Inactive)
REMARK    1  A    between atoms: C_1  and  C_2
REMARK    2  A    between atoms: N_4  and  C_5
REMARK    3  A    between atoms: C_7  and  C_8
REMARK    4  A    between atoms: C_8  and  C_9
REMARK    5  A    between atoms: C_9  and  C_10
REMARK    6  A    between atoms: C_10  and  O_11
REMARK    7  A    between atoms: C_13  and  C_14
REMARK    8  A    between atoms: C_14  and  C_15
REMARK    9  A    between atoms: C_15  and  N_16
REMARK   10  A    between atoms: C_20  and  C_21
REMARK   11  A    between atoms: C_28  and  C_29
REMARK                            x       y       z     vdW  Elec       q    Type
REMARK                         _______ _______ _______ _____ _____    ______ ____
ROOT
ATOM      1  C   UNL     1      45.079   9.595  11.432  0.00  0.00    +0.000 A 
ATOM      2  C   UNL     1      46.420   9.502  11.830  0.00  0.00    +0.000 A 
ATOM      3  C   UNL     1      47.006   8.288  12.223  0.00  0.00    +0.000 A 
ATOM      4  C   UNL     1      46.235   7.121  12.204  0.00  0.00    +0.000 A 
ATOM      5  C   UNL     1      44.886   7.172  11.851  0.00  0.00    +0.000 A 
ATOM      6  C   UNL     1      44.336   8.402  11.453  0.00  0.00    +0.000 A 
ENDROOT
BRANCH   1  10
ATOM      7  C   UNL     1      43.723  10.828   7.960  0.00  0.00    +0.000 C 
ATOM      8  C   UNL     1      43.940  11.978   8.949  0.00  0.00    +0.000 C 
ATOM      9  C   UNL     1      45.053  11.633   9.980  0.00  0.00    +0.000 C 
ATOM     10  N   UNL     1      44.516  10.800  11.064  0.00  0.00    +0.000 N 
ATOM     11  C   UNL     1      43.334  11.356  11.730  0.00  0.00    +0.000 C 
ATOM     12  C   UNL     1      42.215  11.652  10.701  0.00  0.00    +0.000 C 
ATOM     13  C   UNL     1      41.483  10.378  10.273  0.00  0.00    +0.000 C 
ATOM     14  N   UNL     1      42.666  12.464   9.543  0.00  0.00    +0.000 NA
ATOM     15  H   UNL     1      42.860  13.399   9.907  0.00  0.00    +0.000 HD
ENDBRANCH   1  10
BRANCH   3  16
ATOM     16  C   UNL     1      48.425   8.266  12.734  0.00  0.00    +0.000 C 
BRANCH  16  17
ATOM     17  C   UNL     1      48.866   6.926  13.317  0.00  0.00    +0.000 C 
BRANCH  17  18
ATOM     18  C   UNL     1      49.207   7.012  14.799  0.00  0.00    +0.000 C 
BRANCH  18  19
ATOM     19  O   UNL     1      48.083   7.497  15.522  0.00  0.00    +0.000 OA
ATOM     20  H   UNL     1      48.371   7.677  16.432  0.00  0.00    +0.000 HD
ENDBRANCH  18  19
ENDBRANCH  17  18
ENDBRANCH  16  17
ENDBRANCH   3  16
BRANCH   5  21
ATOM     21  C   UNL     1      44.016   5.938  11.930  0.00  0.00    +0.000 C 
BRANCH  21  22
ATOM     22  C   UNL     1      43.637   5.383  10.558  0.00  0.00    +0.000 C 
BRANCH  22  23
ATOM     23  N   UNL     1      43.815   3.920  10.519  0.00  0.00    +0.000 N 
ATOM     24  C   UNL     1      44.716   3.521   9.510  0.00  0.00    +0.000 A 
ATOM     25  C   UNL     1      45.008   2.170   9.342  0.00  0.00    +0.000 A 
ATOM     26  C   UNL     1      45.919   1.788   8.348  0.00  0.00    +0.000 A 
ATOM     27  C   UNL     1      46.515   2.757   7.541  0.00  0.00    +0.000 A 
ATOM     28  C   UNL     1      46.169   4.070   7.784  0.00  0.00    +0.000 A 
ATOM     29  N   UNL     1      45.298   4.460   8.743  0.00  0.00    +0.000 NA
ATOM     30  H   UNL     1      42.937   3.428  10.376  0.00  0.00    +0.000 HD
BRANCH  27  31
ATOM     31  C   UNL     1      47.473   2.356   6.482  0.00  0.00    +0.000 C 
ATOM     32  N   UNL     1      47.520   3.081   5.320  0.00  0.00    +0.000 N 
ATOM     33  O   UNL     1      48.210   1.394   6.632  0.00  0.00    +0.000 OA
ATOM     34  H   UNL     1      46.966   3.891   5.097  0.00  0.00    +0.000 HD
ATOM     35  H   UNL     1      48.189   2.773   4.626  0.00  0.00    +0.000 HD
ENDBRANCH  27  31
ENDBRANCH  22  23
ENDBRANCH  21  22
ENDBRANCH   5  21
TORSDOF 9
ENDMDL
MODEL 7
REMARK VINA RESULT:    -6.710      2.933      4.628
REMARK INTER + INTRA:         -11.159
REMARK INTER:                 -10.163
REMARK INTRA:                  -0.996
REMARK UNBOUND:                -1.114
REMARK  Name = 
REMARK  11 active torsions:
REMARK  status: ('A' for Active; 'I' for Inactive)
REMARK    1  A    between atoms: C_1  and  C_2
REMARK    2  A    between atoms: N_4  and  C_5
REMARK    3  A    between atoms: C_7  and  C_8
REMARK    4  A    between atoms: C_8  and  C_9
REMARK    5  A    between atoms: C_9  and  C_10
REMARK    6  A    between atoms: C_10  and  O_11
REMARK    7  A    between atoms: C_13  and  C_14
REMARK    8  A    between atoms: C_14  and  C_15
REMARK    9  A    between atoms: C_15  and  N_16
REMARK   10  A    between atoms: C_20  and  C_21
REMARK   11  A    between atoms: C_28  and  C_29
REMARK                            x       y       z     vdW  Elec       q    Type
REMARK                         _______ _______ _______ _____ _____    ______ ____
ROOT
ATOM      1  C   UNL     1      46.413   8.908  12.449  0.00  0.00    +0.000 A 
ATOM      2  C   UNL     1      45.549   9.783  11.776  0.00  0.00    +0.000 A 
ATOM      3  C   UNL     1      44.339   9.355  11.204  0.00  0.00    +0.000 A 
ATOM      4  C   UNL     1      43.967   8.011  11.323  0.00  0.00    +0.000 A 
ATOM      5  C   UNL     1      44.813   7.097  11.952  0.00  0.00    +0.000 A 
ATOM      6  C   UNL     1      46.011   7.563  12.521  0.00  0.00    +0.000 A 
ENDROOT
BRANCH   1  10
ATOM      7  C   UNL     1      49.179   6.961  14.443  0.00  0.00    +0.000 C 
ATOM      8  C   UNL     1      49.316   8.481  14.578  0.00  0.00    +0.000 C 
ATOM      9  C   UNL     1      47.941   9.188  14.412  0.00  0.00    +0.000 C 
ATOM     10  N   UNL     1      47.605   9.343  12.990  0.00  0.00    +0.000 N 
ATOM     11  C   UNL     1      48.641  10.006  12.190  0.00  0.00    +0.000 C 
ATOM     12  C   UNL     1      49.994   9.267  12.325  0.00  0.00    +0.000 C 
ATOM     13  C   UNL     1      50.034   7.991  11.481  0.00  0.00    +0.000 C 
ATOM     14  N   UNL     1      50.408   9.030  13.731  0.00  0.00    +0.000 NA
ATOM     15  H   UNL     1      50.637   9.946  14.120  0.00  0.00    +0.000 HD
ENDBRANCH   1  10
BRANCH   3  16
ATOM     16  C   UNL     1      43.498  10.321  10.409  0.00  0.00    +0.000 C 
BRANCH  16  17
ATOM     17  C   UNL     1      44.186  11.646  10.094  0.00  0.00    +0.000 C 
BRANCH  17  18
ATOM     18  C   UNL     1      44.790  11.681   8.696  0.00  0.00    +0.000 C 
BRANCH  18  19
ATOM     19  O   UNL     1      44.233  12.764   7.961  0.00  0.00    +0.000 OA
ATOM     20  H   UNL     1      43.327  12.519   7.713  0.00  0.00    +0.000 HD
ENDBRANCH  18  19
ENDBRANCH  17  18
ENDBRANCH  16  17
ENDBRANCH   3  16
BRANCH   5  21
ATOM     21  C   UNL     1      44.473   5.625  11.992  0.00  0.00    +0.000 C 
BRANCH  21  22
ATOM     22  C   UNL     1      43.702   5.155  10.760  0.00  0.00    +0.000 C 
BRANCH  22  23
ATOM     23  N   UNL     1      43.815   3.694  10.598  0.00  0.00    +0.000 N 
ATOM     24  C   UNL     1      44.706   3.341   9.563  0.00  0.00    +0.000 A 
ATOM     25  C   UNL     1      44.939   1.998   9.284  0.00  0.00    +0.000 A 
ATOM     26  C   UNL     1      45.841   1.659   8.266  0.00  0.00    +0.000 A 
ATOM     27  C   UNL     1      46.487   2.666   7.546  0.00  0.00    +0.000 A 
ATOM     28  C   UNL     1      46.198   3.968   7.898  0.00  0.00    +0.000 A 
ATOM     29  N   UNL     1      45.336   4.315   8.881  0.00  0.00    +0.000 NA
ATOM     30  H   UNL     1      42.917   3.255  10.410  0.00  0.00    +0.000 HD
BRANCH  27  31
ATOM     31  C   UNL     1      47.436   2.313   6.463  0.00  0.00    +0.000 C 
ATOM     32  N   UNL     1      47.472   3.088   5.333  0.00  0.00    +0.000 N 
ATOM     33  O   UNL     1      48.174   1.345   6.563  0.00  0.00    +0.000 OA
ATOM     34  H   UNL     1      46.916   3.908   5.151  0.00  0.00    +0.000 HD
ATOM     35  H   UNL     1      48.136   2.812   4.621  0.00  0.00    +0.000 HD
ENDBRANCH  27  31
ENDBRANCH  22  23
ENDBRANCH  21  22
ENDBRANCH   5  21
TORSDOF 9
ENDMDL
MODEL 8
REMARK VINA RESULT:    -6.502      3.547      8.410
REMARK INTER + INTRA:         -10.847
REMARK INTER:                  -9.492
REMARK INTRA:                  -1.355
REMARK UNBOUND:                -1.114
REMARK  Name = 
REMARK  11 active torsions:
REMARK  status: ('A' for Active; 'I' for Inactive)
REMARK    1  A    between atoms: C_1  and  C_2
REMARK    2  A    between atoms: N_4  and  C_5
REMARK    3  A    between atoms: C_7  and  C_8
REMARK    4  A    between atoms: C_8  and  C_9
REMARK    5  A    between atoms: C_9  and  C_10
REMARK    6  A    between atoms: C_10  and  O_11
REMARK    7  A    between atoms: C_13  and  C_14
REMARK    8  A    between atoms: C_14  and  C_15
REMARK    9  A    between atoms: C_15  and  N_16
REMARK   10  A    between atoms: C_20  and  C_21
REMARK   11  A    between atoms: C_28  and  C_29
REMARK                            x       y       z     vdW  Elec       q    Type
REMARK                         _______ _______ _______ _____ _____    ______ ____
ROOT
ATOM      1  C   UNL     1      44.805   7.389  11.994  0.00  0.00    +0.000 A 
ATOM      2  C   UNL     1      44.261   8.515  11.359  0.00  0.00    +0.000 A 
ATOM      3  C   UNL     1      44.947   9.737  11.276  0.00  0.00    +0.000 A 
ATOM      4  C   UNL     1      46.228   9.839  11.830  0.00  0.00    +0.000 A 
ATOM      5  C   UNL     1      46.794   8.755  12.504  0.00  0.00    +0.000 A 
ATOM      6  C   UNL     1      46.083   7.545  12.558  0.00  0.00    +0.000 A 
ENDROOT
BRANCH   1  10
ATOM      7  C   UNL     1      44.756   4.278   9.600  0.00  0.00    +0.000 C 
ATOM      8  C   UNL     1      43.586   4.277  10.589  0.00  0.00    +0.000 C 
ATOM      9  C   UNL     1      43.210   5.724  11.019  0.00  0.00    +0.000 C 
ATOM     10  N   UNL     1      44.108   6.201  12.079  0.00  0.00    +0.000 N 
ATOM     11  C   UNL     1      44.202   5.312  13.242  0.00  0.00    +0.000 C 
ATOM     12  C   UNL     1      44.622   3.886  12.809  0.00  0.00    +0.000 C 
ATOM     13  C   UNL     1      46.121   3.800  12.511  0.00  0.00    +0.000 C 
ATOM     14  N   UNL     1      43.793   3.325  11.713  0.00  0.00    +0.000 NA
ATOM     15  H   UNL     1      42.869   3.152  12.113  0.00  0.00    +0.000 HD
ENDBRANCH   1  10
BRANCH   3  16
ATOM     16  C   UNL     1      44.273  10.941  10.667  0.00  0.00    +0.000 C 
BRANCH  16  17
ATOM     17  C   UNL     1      43.231  10.609   9.602  0.00  0.00    +0.000 C 
BRANCH  17  18
ATOM     18  C   UNL     1      43.638  11.082   8.212  0.00  0.00    +0.000 C 
BRANCH  18  19
ATOM     19  O   UNL     1      42.832  12.188   7.827  0.00  0.00    +0.000 OA
ATOM     20  H   UNL     1      42.014  12.155   8.350  0.00  0.00    +0.000 HD
ENDBRANCH  18  19
ENDBRANCH  17  18
ENDBRANCH  16  17
ENDBRANCH   3  16
BRANCH   5  21
ATOM     21  C   UNL     1      48.130   8.886  13.198  0.00  0.00    +0.000 C 
BRANCH  21  22
ATOM     22  C   UNL     1      48.886   7.563  13.298  0.00  0.00    +0.000 C 
BRANCH  22  23
ATOM     23  N   UNL     1      49.618   7.472  14.575  0.00  0.00    +0.000 N 
ATOM     24  C   UNL     1      49.109   6.454  15.408  0.00  0.00    +0.000 A 
ATOM     25  C   UNL     1      49.694   6.224  16.649  0.00  0.00    +0.000 A 
ATOM     26  C   UNL     1      49.192   5.198  17.460  0.00  0.00    +0.000 A 
ATOM     27  C   UNL     1      48.117   4.426  17.019  0.00  0.00    +0.000 A 
ATOM     28  C   UNL     1      47.606   4.723  15.772  0.00  0.00    +0.000 A 
ATOM     29  N   UNL     1      48.081   5.704  14.972  0.00  0.00    +0.000 NA
ATOM     30  H   UNL     1      49.601   8.347  15.092  0.00  0.00    +0.000 HD
BRANCH  27  31
ATOM     31  C   UNL     1      47.577   3.344  17.877  0.00  0.00    +0.000 C 
ATOM     32  N   UNL     1      48.208   3.056  19.059  0.00  0.00    +0.000 N 
ATOM     33  O   UNL     1      46.587   2.710  17.544  0.00  0.00    +0.000 OA
ATOM     34  H   UNL     1      49.021   3.519  19.432  0.00  0.00    +0.000 HD
ATOM     35  H   UNL     1      47.804   2.312  19.614  0.00  0.00    +0.000 HD
ENDBRANCH  27  31
ENDBRANCH  22  23
ENDBRANCH  21  22
ENDBRANCH   5  21
TORSDOF 9
ENDMDL
MODEL 9
REMARK VINA RESULT:    -6.456      3.768      5.867
REMARK INTER + INTRA:         -10.779
REMARK INTER:                  -9.546
REMARK INTRA:                  -1.233
REMARK UNBOUND:                -1.114
REMARK  Name = 
REMARK  11 active torsions:
REMARK  status: ('A' for Active; 'I' for Inactive)
REMARK    1  A    between atoms: C_1  and  C_2
REMARK    2  A    between atoms: N_4  and  C_5
REMARK    3  A    between atoms: C_7  and  C_8
REMARK    4  A    between atoms: C_8  and  C_9
REMARK    5  A    between atoms: C_9  and  C_10
REMARK    6  A    between atoms: C_10  and  O_11
REMARK    7  A    between atoms: C_13  and  C_14
REMARK    8  A    between atoms: C_14  and  C_15
REMARK    9  A    between atoms: C_15  and  N_16
REMARK   10  A    between atoms: C_20  and  C_21
REMARK   11  A    between atoms: C_28  and  C_29
REMARK                            x       y       z     vdW  Elec       q    Type
REMARK                         _______ _______ _______ _____ _____    ______ ____
ROOT
ATOM      1  C   UNL     1      48.909   7.014  17.791  0.00  0.00    +0.000 A 
ATOM      2  C   UNL     1      48.539   5.670  17.635  0.00  0.00    +0.000 A 
ATOM      3  C   UNL     1      48.191   5.125  16.389  0.00  0.00    +0.000 A 
ATOM      4  C   UNL     1      48.231   5.940  15.253  0.00  0.00    +0.000 A 
ATOM      5  C   UNL     1      48.558   7.293  15.365  0.00  0.00    +0.000 A 
ATOM      6  C   UNL     1      48.910   7.801  16.627  0.00  0.00    +0.000 A 
ENDROOT
BRANCH   1  10
ATOM      7  C   UNL     1      47.353   6.347  21.334  0.00  0.00    +0.000 C 
ATOM      8  C   UNL     1      48.224   7.607  21.302  0.00  0.00    +0.000 C 
ATOM      9  C   UNL     1      48.258   8.233  19.878  0.00  0.00    +0.000 C 
ATOM     10  N   UNL     1      49.232   7.536  19.027  0.00  0.00    +0.000 N 
ATOM     11  C   UNL     1      50.580   7.444  19.595  0.00  0.00    +0.000 C 
ATOM     12  C   UNL     1      50.542   6.777  20.992  0.00  0.00    +0.000 C 
ATOM     13  C   UNL     1      50.384   5.257  20.893  0.00  0.00    +0.000 C 
ATOM     14  N   UNL     1      49.559   7.390  21.921  0.00  0.00    +0.000 NA
ATOM     15  H   UNL     1      49.921   8.317  22.149  0.00  0.00    +0.000 HD
ENDBRANCH   1  10
BRANCH   3  16
ATOM     16  C   UNL     1      47.708   3.700  16.298  0.00  0.00    +0.000 C 
BRANCH  16  17
ATOM     17  C   UNL     1      48.212   2.790  17.415  0.00  0.00    +0.000 C 
BRANCH  17  18
ATOM     18  C   UNL     1      49.594   2.215  17.129  0.00  0.00    +0.000 C 
BRANCH  18  19
ATOM     19  O   UNL     1      49.644   1.731  15.793  0.00  0.00    +0.000 OA
ATOM     20  H   UNL     1      48.737   1.510  15.523  0.00  0.00    +0.000 HD
ENDBRANCH  18  19
ENDBRANCH  17  18
ENDBRANCH  16  17
ENDBRANCH   3  16
BRANCH   5  21
ATOM     21  C   UNL     1      48.499   8.208  14.164  0.00  0.00    +0.000 C 
BRANCH  21  22
ATOM     22  C   UNL     1      47.087   8.372  13.604  0.00  0.00    +0.000 C 
BRANCH  22  23
ATOM     23  N   UNL     1      47.033   7.953  12.191  0.00  0.00    +0.000 N 
ATOM     24  C   UNL     1      46.289   6.767  12.017  0.00  0.00    +0.000 A 
ATOM     25  C   UNL     1      46.127   6.238  10.740  0.00  0.00    +0.000 A 
ATOM     26  C   UNL     1      45.370   5.070  10.577  0.00  0.00    +0.000 A 
ATOM     27  C   UNL     1      44.796   4.453  11.689  0.00  0.00    +0.000 A 
ATOM     28  C   UNL     1      45.005   5.053  12.913  0.00  0.00    +0.000 A 
ATOM     29  N   UNL     1      45.726   6.184  13.090  0.00  0.00    +0.000 NA
ATOM     30  H   UNL     1      47.958   7.811  11.794  0.00  0.00    +0.000 HD
BRANCH  27  31
ATOM     31  C   UNL     1      44.001   3.211  11.523  0.00  0.00    +0.000 C 
ATOM     32  N   UNL     1      43.675   2.478  12.634  0.00  0.00    +0.000 N 
ATOM     33  O   UNL     1      43.642   2.837  10.417  0.00  0.00    +0.000 OA
ATOM     34  H   UNL     1      43.912   2.697  13.587  0.00  0.00    +0.000 HD
ATOM     35  H   UNL     1      43.131   1.640  12.473  0.00  0.00    +0.000 HD
ENDBRANCH  27  31
ENDBRANCH  22  23
ENDBRANCH  21  22
ENDBRANCH   5  21
TORSDOF 9
ENDMDL
