MODEL 1
REMARK VINA RESULT:    -8.527      0.000      0.000
REMARK INTER + INTRA:         -12.598
REMARK INTER:                 -11.518
REMARK INTRA:                  -1.081
REMARK UNBOUND:                -1.081
REMARK  Name = 
REMARK  7 active torsions:
REMARK  status: ('A' for Active; 'I' for Inactive)
REMARK    1  A    between atoms: C_1  and  C_2
REMARK    2  A    between atoms: C_2  and  N_3
REMARK    3  A    between atoms: C_2  and  C_16
REMARK    4  A    between atoms: C_4  and  C_6
REMARK    5  A    between atoms: C_19  and  C_20
REMARK    6  A    between atoms: C_20  and  N_21
REMARK    7  A    between atoms: C_22  and  C_24
REMARK                            x       y       z     vdW  Elec       q    Type
REMARK                         _______ _______ _______ _____ _____    ______ ____
ROOT
ATOM      1  C   UNL     1      48.756   8.041  14.425  0.00  0.00    +0.000 C 
ATOM      2  C   UNL     1      48.236   6.791  15.135  0.00  0.00    +0.000 C 
ENDROOT
BRANCH   2   3
ATOM      3  C   UNL     1      47.433   5.872  14.220  0.00  0.00    +0.000 A 
ATOM      4  C   UNL     1      46.681   6.430  13.186  0.00  0.00    +0.000 A 
ATOM      5  C   UNL     1      45.866   5.605  12.410  0.00  0.00    +0.000 A 
ATOM      6  C   UNL     1      45.797   4.239  12.689  0.00  0.00    +0.000 A 
ATOM      7  C   UNL     1      46.595   3.764  13.724  0.00  0.00    +0.000 A 
ATOM      8  N   UNL     1      47.394   4.543  14.494  0.00  0.00    +0.000 NA
BRANCH   6   9
ATOM      9  C   UNL     1      44.884   3.322  11.928  0.00  0.00    +0.000 C 
BRANCH   9  10
ATOM     10  N   UNL     1      45.480   2.830  10.709  0.00  0.00    +0.000 N 
ATOM     11  C   UNL     1      45.127   3.385   9.495  0.00  0.00    +0.000 C 
ATOM     12  O   UNL     1      44.319   4.304   9.387  0.00  0.00    +0.000 OA
ATOM     13  H   UNL     1      46.317   2.265  10.771  0.00  0.00    +0.000 HD
BRANCH  11  14
ATOM     14  C   UNL     1      45.791   2.825   8.286  0.00  0.00    +0.000 A 
ATOM     15  C   UNL     1      46.066   3.619   7.165  0.00  0.00    +0.000 A 
ATOM     16  C   UNL     1      46.738   3.077   6.068  0.00  0.00    +0.000 A 
ATOM     17  C   UNL     1      47.143   1.742   6.086  0.00  0.00    +0.000 A 
ATOM     18  C   UNL     1      46.876   0.946   7.199  0.00  0.00    +0.000 A 
ATOM     19  C   UNL     1      46.206   1.485   8.299  0.00  0.00    +0.000 A 
ENDBRANCH  11  14
ENDBRANCH   9  10
ENDBRANCH   6   9
ENDBRANCH   2   3
BRANCH   2  20
ATOM     20  N   UNL     1      49.348   6.059  15.726  0.00  0.00    +0.000 N 
ATOM     21  C   UNL     1      49.415   5.757  17.058  0.00  0.00    +0.000 C 
ATOM     22  O   UNL     1      48.518   6.050  17.845  0.00  0.00    +0.000 OA
ATOM     23  H   UNL     1      50.119   5.838  15.106  0.00  0.00    +0.000 HD
BRANCH  21  24
ATOM     24  C   UNL     1      50.591   4.999  17.498  0.00  0.00    +0.000 A 
ATOM     25  C   UNL     1      51.694   5.670  18.008  0.00  0.00    +0.000 A 
ATOM     26  S   UNL     1      52.972   4.637  18.462  0.00  0.00    +0.000 S 
ATOM     27  C   UNL     1      52.115   3.261  17.943  0.00  0.00    +0.000 A 
ATOM     28  N   UNL     1      52.674   2.023  18.011  0.00  0.00    +0.000 NA
ATOM     29  C   UNL     1      51.932   1.076  17.541  0.00  0.00    +0.000 A 
ATOM     30  N   UNL     1      50.675   1.255  17.023  0.00  0.00    +0.000 N 
ATOM     31  C   UNL     1      50.046   2.477  16.988  0.00  0.00    +0.000 A 
ATOM     32  O   UNL     1      48.884   2.587  16.612  0.00  0.00    +0.000 OA
ATOM     33  C   UNL     1      50.857   3.582  17.465  0.00  0.00    +0.000 A 
ATOM     34  H   UNL     1      50.135   0.467  16.695  0.00  0.00    +0.000 HD
ENDBRANCH  21  24
ENDBRANCH   2  20
TORSDOF 6
ENDMDL
MODEL 2
REMARK VINA RESULT:    -8.388      1.668      2.084
REMARK INTER + INTRA:         -12.411
REMARK INTER:                 -11.174
REMARK INTRA:                  -1.237
REMARK UNBOUND:                -1.081
REMARK  Name = 
REMARK  7 active torsions:
REMARK  status: ('A' for Active; 'I' for Inactive)
REMARK    1  A    between atoms: C_1  and  C_2
REMARK    2  A    between atoms: C_2  and  N_3
REMARK    3  A    between atoms: C_2  and  C_16
REMARK    4  A    between atoms: C_4  and  C_6
REMARK    5  A    between atoms: C_19  and  C_20
REMARK    6  A    between atoms: C_20  and  N_21
REMARK    7  A    between atoms: C_22  and  C_24
REMARK                            x       y       z     vdW  Elec       q    Type
REMARK                         _______ _______ _______ _____ _____    ______ ____
ROOT
ATOM      1  C   UNL     1      48.351   9.327  13.416  0.00  0.00    +0.000 C 
ATOM      2  C   UNL     1      47.553   8.268  14.175  0.00  0.00    +0.000 C 
ENDROOT
BRANCH   2   3
ATOM      3  C   UNL     1      46.591   7.489  13.284  0.00  0.00    +0.000 A 
ATOM      4  C   UNL     1      46.754   6.110  13.149  0.00  0.00    +0.000 A 
ATOM      5  C   UNL     1      45.941   5.409  12.259  0.00  0.00    +0.000 A 
ATOM      6  C   UNL     1      44.990   6.095  11.501  0.00  0.00    +0.000 A 
ATOM      7  C   UNL     1      44.881   7.464  11.713  0.00  0.00    +0.000 A 
ATOM      8  N   UNL     1      45.659   8.171  12.570  0.00  0.00    +0.000 NA
BRANCH   6   9
ATOM      9  C   UNL     1      44.140   5.396  10.480  0.00  0.00    +0.000 C 
BRANCH   9  10
ATOM     10  N   UNL     1      44.922   4.748   9.454  0.00  0.00    +0.000 N 
ATOM     11  C   UNL     1      44.798   3.388   9.248  0.00  0.00    +0.000 C 
ATOM     12  O   UNL     1      44.036   2.678   9.898  0.00  0.00    +0.000 OA
ATOM     13  H   UNL     1      45.360   5.320   8.744  0.00  0.00    +0.000 HD
BRANCH  11  14
ATOM     14  C   UNL     1      45.635   2.799   8.168  0.00  0.00    +0.000 A 
ATOM     15  C   UNL     1      46.002   3.539   7.036  0.00  0.00    +0.000 A 
ATOM     16  C   UNL     1      46.832   2.975   6.066  0.00  0.00    +0.000 A 
ATOM     17  C   UNL     1      47.304   1.671   6.222  0.00  0.00    +0.000 A 
ATOM     18  C   UNL     1      46.945   0.928   7.345  0.00  0.00    +0.000 A 
ATOM     19  C   UNL     1      46.117   1.490   8.320  0.00  0.00    +0.000 A 
ENDBRANCH  11  14
ENDBRANCH   9  10
ENDBRANCH   6   9
ENDBRANCH   2   3
BRANCH   2  20
ATOM     20  N   UNL     1      48.463   7.350  14.849  0.00  0.00    +0.000 N 
ATOM     21  C   UNL     1      48.859   7.516  16.147  0.00  0.00    +0.000 C 
ATOM     22  O   UNL     1      48.442   8.432  16.850  0.00  0.00    +0.000 OA
ATOM     23  H   UNL     1      48.851   6.606  14.280  0.00  0.00    +0.000 HD
BRANCH  21  24
ATOM     24  C   UNL     1      49.765   6.497  16.688  0.00  0.00    +0.000 A 
ATOM     25  C   UNL     1      51.064   6.842  17.035  0.00  0.00    +0.000 A 
ATOM     26  S   UNL     1      51.979   5.536  17.639  0.00  0.00    +0.000 S 
ATOM     27  C   UNL     1      50.686   4.454  17.409  0.00  0.00    +0.000 A 
ATOM     28  N   UNL     1      50.824   3.130  17.691  0.00  0.00    +0.000 NA
ATOM     29  C   UNL     1      49.780   2.418  17.425  0.00  0.00    +0.000 A 
ATOM     30  N   UNL     1      48.606   2.911  16.917  0.00  0.00    +0.000 N 
ATOM     31  C   UNL     1      48.401   4.249  16.673  0.00  0.00    +0.000 A 
ATOM     32  O   UNL     1      47.307   4.671  16.314  0.00  0.00    +0.000 OA
ATOM     33  C   UNL     1      49.560   5.087  16.914  0.00  0.00    +0.000 A 
ATOM     34  H   UNL     1      47.817   2.303  16.756  0.00  0.00    +0.000 HD
ENDBRANCH  21  24
ENDBRANCH   2  20
TORSDOF 6
ENDMDL
MODEL 3
REMARK VINA RESULT:    -8.221      2.802      4.562
REMARK INTER + INTRA:         -12.185
REMARK INTER:                 -11.096
REMARK INTRA:                  -1.089
REMARK UNBOUND:                -1.081
REMARK  Name = 
REMARK  7 active torsions:
REMARK  status: ('A' for Active; 'I' for Inactive)
REMARK    1  A    between atoms: C_1  and  C_2
REMARK    2  A    between atoms: C_2  and  N_3
REMARK    3  A    between atoms: C_2  and  C_16
REMARK    4  A    between atoms: C_4  and  C_6
REMARK    5  A    between atoms: C_19  and  C_20
REMARK    6  A    between atoms: C_20  and  N_21
REMARK    7  A    between atoms: C_22  and  C_24
REMARK                            x       y       z     vdW  Elec       q    Type
REMARK                         _______ _______ _______ _____ _____    ______ ____
ROOT
ATOM      1  C   UNL     1      47.363   3.191  16.769  0.00  0.00    +0.000 C 
ATOM      2  C   UNL     1      47.821   4.436  16.011  0.00  0.00    +0.000 C 
ENDROOT
BRANCH   2   3
ATOM      3  C   UNL     1      47.125   4.609  14.665  0.00  0.00    +0.000 A 
ATOM      4  C   UNL     1      47.026   5.885  14.110  0.00  0.00    +0.000 A 
ATOM      5  C   UNL     1      46.304   6.063  12.930  0.00  0.00    +0.000 A 
ATOM      6  C   UNL     1      45.674   4.971  12.331  0.00  0.00    +0.000 A 
ATOM      7  C   UNL     1      45.841   3.732  12.940  0.00  0.00    +0.000 A 
ATOM      8  N   UNL     1      46.536   3.531  14.087  0.00  0.00    +0.000 NA
BRANCH   6   9
ATOM      9  C   UNL     1      44.829   5.124  11.099  0.00  0.00    +0.000 C 
BRANCH   9  10
ATOM     10  N   UNL     1      45.456   4.570   9.923  0.00  0.00    +0.000 N 
ATOM     11  C   UNL     1      45.100   3.312   9.478  0.00  0.00    +0.000 C 
ATOM     12  O   UNL     1      44.252   2.620  10.035  0.00  0.00    +0.000 OA
ATOM     13  H   UNL     1      45.959   5.192   9.303  0.00  0.00    +0.000 HD
BRANCH  11  14
ATOM     14  C   UNL     1      45.789   2.817   8.255  0.00  0.00    +0.000 A 
ATOM     15  C   UNL     1      46.068   3.666   7.175  0.00  0.00    +0.000 A 
ATOM     16  C   UNL     1      46.763   3.184   6.065  0.00  0.00    +0.000 A 
ATOM     17  C   UNL     1      47.187   1.855   6.028  0.00  0.00    +0.000 A 
ATOM     18  C   UNL     1      46.915   1.005   7.098  0.00  0.00    +0.000 A 
ATOM     19  C   UNL     1      46.222   1.483   8.213  0.00  0.00    +0.000 A 
ENDBRANCH  11  14
ENDBRANCH   9  10
ENDBRANCH   6   9
ENDBRANCH   2   3
BRANCH   2  20
ATOM     20  N   UNL     1      47.616   5.620  16.835  0.00  0.00    +0.000 N 
ATOM     21  C   UNL     1      48.488   6.003  17.816  0.00  0.00    +0.000 C 
ATOM     22  O   UNL     1      49.529   5.393  18.046  0.00  0.00    +0.000 OA
ATOM     23  H   UNL     1      46.746   6.121  16.692  0.00  0.00    +0.000 HD
BRANCH  21  24
ATOM     24  C   UNL     1      48.151   7.229  18.547  0.00  0.00    +0.000 A 
ATOM     25  C   UNL     1      47.797   7.158  19.888  0.00  0.00    +0.000 A 
ATOM     26  S   UNL     1      47.429   8.674  20.577  0.00  0.00    +0.000 S 
ATOM     27  C   UNL     1      47.681   9.470  19.094  0.00  0.00    +0.000 A 
ATOM     28  N   UNL     1      47.484  10.811  18.979  0.00  0.00    +0.000 NA
ATOM     29  C   UNL     1      47.665  11.275  17.787  0.00  0.00    +0.000 A 
ATOM     30  N   UNL     1      48.041  10.522  16.705  0.00  0.00    +0.000 N 
ATOM     31  C   UNL     1      48.308   9.176  16.787  0.00  0.00    +0.000 A 
ATOM     32  O   UNL     1      48.739   8.551  15.824  0.00  0.00    +0.000 OA
ATOM     33  C   UNL     1      48.076   8.597  18.097  0.00  0.00    +0.000 A 
ATOM     34  H   UNL     1      48.192  10.952  15.804  0.00  0.00    +0.000 HD
ENDBRANCH  21  24
ENDBRANCH   2  20
TORSDOF 6
ENDMDL
MODEL 4
REMARK VINA RESULT:    -8.079      3.098      4.276
REMARK INTER + INTRA:         -11.994
REMARK INTER:                 -11.046
REMARK INTRA:                  -0.947
REMARK UNBOUND:                -1.081
REMARK  Name = 
REMARK  7 active torsions:
REMARK  status: ('A' for Active; 'I' for Inactive)
REMARK    1  A    between atoms: C_1  and  C_2
REMARK    2  A    between atoms: C_2  and  N_3
REMARK    3  A    between atoms: C_2  and  C_16
REMARK    4  A    between atoms: C_4  and  C_6
REMARK    5  A    between atoms: C_19  and  C_20
REMARK    6  A    between atoms: C_20  and  N_21
REMARK    7  A    between atoms: C_22  and  C_24
REMARK                            x       y       z     vdW  Elec       q    Type
REMARK                         _______ _______ _______ _____ _____    ______ ____
ROOT
ATOM      1  C   UNL     1      47.680   3.322  16.689  0.00  0.00    +0.000 C 
ATOM      2  C   UNL     1      48.003   4.597  15.910  0.00  0.00    +0.000 C 
ENDROOT
BRANCH   2   3
ATOM      3  C   UNL     1      47.250   4.699  14.588  0.00  0.00    +0.000 A 
ATOM      4  C   UNL     1      47.167   5.934  13.946  0.00  0.00    +0.000 A 
ATOM      5  C   UNL     1      46.396   6.054  12.790  0.00  0.00    +0.000 A 
ATOM      6  C   UNL     1      45.702   4.946  12.301  0.00  0.00    +0.000 A 
ATOM      7  C   UNL     1      45.857   3.749  12.990  0.00  0.00    +0.000 A 
ATOM      8  N   UNL     1      46.598   3.605  14.117  0.00  0.00    +0.000 NA
BRANCH   6   9
ATOM      9  C   UNL     1      44.805   5.041  11.101  0.00  0.00    +0.000 C 
BRANCH   9  10
ATOM     10  N   UNL     1      45.426   4.532   9.901  0.00  0.00    +0.000 N 
ATOM     11  C   UNL     1      45.126   3.260   9.456  0.00  0.00    +0.000 C 
ATOM     12  O   UNL     1      44.335   2.517  10.031  0.00  0.00    +0.000 OA
ATOM     13  H   UNL     1      45.875   5.185   9.273  0.00  0.00    +0.000 HD
BRANCH  11  14
ATOM     14  C   UNL     1      45.804   2.813   8.209  0.00  0.00    +0.000 A 
ATOM     15  C   UNL     1      45.987   3.678   7.122  0.00  0.00    +0.000 A 
ATOM     16  C   UNL     1      46.674   3.245   5.987  0.00  0.00    +0.000 A 
ATOM     17  C   UNL     1      47.185   1.947   5.932  0.00  0.00    +0.000 A 
ATOM     18  C   UNL     1      47.009   1.081   7.009  0.00  0.00    +0.000 A 
ATOM     19  C   UNL     1      46.325   1.511   8.148  0.00  0.00    +0.000 A 
ENDBRANCH  11  14
ENDBRANCH   9  10
ENDBRANCH   6   9
ENDBRANCH   2   3
BRANCH   2  20
ATOM     20  N   UNL     1      47.724   5.765  16.735  0.00  0.00    +0.000 N 
ATOM     21  C   UNL     1      48.658   6.338  17.554  0.00  0.00    +0.000 C 
ATOM     22  O   UNL     1      49.813   5.927  17.621  0.00  0.00    +0.000 OA
ATOM     23  H   UNL     1      46.767   6.101  16.727  0.00  0.00    +0.000 HD
BRANCH  21  24
ATOM     24  C   UNL     1      48.228   7.520  18.308  0.00  0.00    +0.000 A 
ATOM     25  C   UNL     1      48.218   8.764  17.693  0.00  0.00    +0.000 A 
ATOM     26  S   UNL     1      47.700  10.026  18.716  0.00  0.00    +0.000 S 
ATOM     27  C   UNL     1      47.519   8.960  20.030  0.00  0.00    +0.000 A 
ATOM     28  N   UNL     1      47.137   9.416  21.253  0.00  0.00    +0.000 NA
ATOM     29  C   UNL     1      47.086   8.507  22.169  0.00  0.00    +0.000 A 
ATOM     30  N   UNL     1      47.368   7.180  21.968  0.00  0.00    +0.000 N 
ATOM     31  C   UNL     1      47.701   6.664  20.738  0.00  0.00    +0.000 A 
ATOM     32  O   UNL     1      47.849   5.458  20.571  0.00  0.00    +0.000 OA
ATOM     33  C   UNL     1      47.815   7.654  19.683  0.00  0.00    +0.000 A 
ATOM     34  H   UNL     1      47.284   6.515  22.722  0.00  0.00    +0.000 HD
ENDBRANCH  21  24
ENDBRANCH   2  20
TORSDOF 6
ENDMDL
MODEL 5
REMARK VINA RESULT:    -7.937      2.212      2.743
REMARK INTER + INTRA:         -11.802
REMARK INTER:                 -10.778
REMARK INTRA:                  -1.024
REMARK UNBOUND:                -1.081
REMARK  Name = 
REMARK  7 active torsions:
REMARK  status: ('A' for Active; 'I' for Inactive)
REMARK    1  A    between atoms: C_1  and  C_2
REMARK    2  A    between atoms: C_2  and  N_3
REMARK    3  A    between atoms: C_2  and  C_16
REMARK    4  A    between atoms: C_4  and  C_6
REMARK    5  A    between atoms: C_19  and  C_20
REMARK    6  A    between atoms: C_20  and  N_21
REMARK    7  A    between atoms: C_22  and  C_24
REMARK                            x       y       z     vdW  Elec       q    Type
REMARK                         _______ _______ _______ _____ _____    ______ ____
ROOT
ATOM      1  C   UNL     1      49.113   7.507  13.416  0.00  0.00    +0.000 C 
ATOM      2  C   UNL     1      48.016   7.033  14.368  0.00  0.00    +0.000 C 
ENDROOT
BRANCH   2   3
ATOM      3  C   UNL     1      47.017   6.087  13.709  0.00  0.00    +0.000 A 
ATOM      4  C   UNL     1      47.083   4.723  13.992  0.00  0.00    +0.000 A 
ATOM      5  C   UNL     1      46.238   3.842  13.317  0.00  0.00    +0.000 A 
ATOM      6  C   UNL     1      45.353   4.331  12.354  0.00  0.00    +0.000 A 
ATOM      7  C   UNL     1      45.339   5.706  12.149  0.00  0.00    +0.000 A 
ATOM      8  N   UNL     1      46.150   6.584  12.790  0.00  0.00    +0.000 NA
BRANCH   6   9
ATOM      9  C   UNL     1      44.474   3.416  11.552  0.00  0.00    +0.000 C 
BRANCH   9  10
ATOM     10  N   UNL     1      45.160   2.834  10.423  0.00  0.00    +0.000 N 
ATOM     11  C   UNL     1      45.045   3.411   9.174  0.00  0.00    +0.000 C 
ATOM     12  O   UNL     1      44.382   4.423   8.961  0.00  0.00    +0.000 OA
ATOM     13  H   UNL     1      45.901   2.169  10.596  0.00  0.00    +0.000 HD
BRANCH  11  14
ATOM     14  C   UNL     1      45.787   2.753   8.064  0.00  0.00    +0.000 A 
ATOM     15  C   UNL     1      46.099   3.438   6.882  0.00  0.00    +0.000 A 
ATOM     16  C   UNL     1      46.843   2.810   5.882  0.00  0.00    +0.000 A 
ATOM     17  C   UNL     1      47.284   1.498   6.058  0.00  0.00    +0.000 A 
ATOM     18  C   UNL     1      46.981   0.811   7.232  0.00  0.00    +0.000 A 
ATOM     19  C   UNL     1      46.239   1.436   8.237  0.00  0.00    +0.000 A 
ENDBRANCH  11  14
ENDBRANCH   9  10
ENDBRANCH   6   9
ENDBRANCH   2   3
BRANCH   2  20
ATOM     20  N   UNL     1      48.613   6.394  15.533  0.00  0.00    +0.000 N 
ATOM     21  C   UNL     1      49.037   7.094  16.629  0.00  0.00    +0.000 C 
ATOM     22  O   UNL     1      48.906   8.311  16.723  0.00  0.00    +0.000 OA
ATOM     23  H   UNL     1      48.768   5.394  15.466  0.00  0.00    +0.000 HD
BRANCH  21  24
ATOM     24  C   UNL     1      49.602   6.305  17.729  0.00  0.00    +0.000 A 
ATOM     25  C   UNL     1      50.863   5.742  17.598  0.00  0.00    +0.000 A 
ATOM     26  S   UNL     1      51.359   4.853  18.966  0.00  0.00    +0.000 S 
ATOM     27  C   UNL     1      49.883   5.148  19.760  0.00  0.00    +0.000 A 
ATOM     28  N   UNL     1      49.632   4.617  20.987  0.00  0.00    +0.000 NA
ATOM     29  C   UNL     1      48.456   4.882  21.451  0.00  0.00    +0.000 A 
ATOM     30  N   UNL     1      47.516   5.643  20.805  0.00  0.00    +0.000 N 
ATOM     31  C   UNL     1      47.747   6.248  19.592  0.00  0.00    +0.000 A 
ATOM     32  O   UNL     1      46.923   7.004  19.089  0.00  0.00    +0.000 OA
ATOM     33  C   UNL     1      49.039   5.944  19.007  0.00  0.00    +0.000 A 
ATOM     34  H   UNL     1      46.623   5.835  21.236  0.00  0.00    +0.000 HD
ENDBRANCH  21  24
ENDBRANCH   2  20
TORSDOF 6
ENDMDL
MODEL 6
REMARK VINA RESULT:    -7.755      2.530      3.268
REMARK INTER + INTRA:         -11.555
REMARK INTER:                 -10.959
REMARK INTRA:                  -0.596
REMARK UNBOUND:                -1.081
REMARK  Name = 
REMARK  7 active torsions:
REMARK  status: ('A' for Active; 'I' for Inactive)
REMARK    1  A    between atoms: C_1  and  C_2
REMARK    2  A    between atoms: C_2  and  N_3
REMARK    3  A    between atoms: C_2  and  C_16
REMARK    4  A    between atoms: C_4  and  C_6
REMARK    5  A    between atoms: C_19  and  C_20
REMARK    6  A    between atoms: C_20  and  N_21
REMARK    7  A    between atoms: C_22  and  C_24
REMARK                            x       y       z     vdW  Elec       q    Type
REMARK                         _______ _______ _______ _____ _____    ______ ____
ROOT
ATOM      1  C   UNL     1      48.957   9.461  13.340  0.00  0.00    +0.000 C 
ATOM      2  C   UNL     1      47.578   9.085  13.879  0.00  0.00    +0.000 C 
ENDROOT
BRANCH   2   3
ATOM      3  C   UNL     1      46.785   8.193  12.930  0.00  0.00    +0.000 A 
ATOM      4  C   UNL     1      45.513   8.596  12.521  0.00  0.00    +0.000 A 
ATOM      5  C   UNL     1      44.744   7.739  11.734  0.00  0.00    +0.000 A 
ATOM      6  C   UNL     1      45.244   6.484  11.382  0.00  0.00    +0.000 A 
ATOM      7  C   UNL     1      46.528   6.172  11.815  0.00  0.00    +0.000 A 
ATOM      8  N   UNL     1      47.297   6.985  12.582  0.00  0.00    +0.000 NA
BRANCH   6   9
ATOM      9  C   UNL     1      44.428   5.500  10.596  0.00  0.00    +0.000 C 
BRANCH   9  10
ATOM     10  N   UNL     1      45.206   4.805   9.598  0.00  0.00    +0.000 N 
ATOM     11  C   UNL     1      44.912   3.492   9.286  0.00  0.00    +0.000 C 
ATOM     12  O   UNL     1      43.998   2.865   9.816  0.00  0.00    +0.000 OA
ATOM     13  H   UNL     1      45.786   5.346   8.971  0.00  0.00    +0.000 HD
BRANCH  11  14
ATOM     14  C   UNL     1      45.757   2.849   8.243  0.00  0.00    +0.000 A 
ATOM     15  C   UNL     1      46.124   1.499   8.324  0.00  0.00    +0.000 A 
ATOM     16  C   UNL     1      46.872   0.912   7.302  0.00  0.00    +0.000 A 
ATOM     17  C   UNL     1      47.254   1.667   6.192  0.00  0.00    +0.000 A 
ATOM     18  C   UNL     1      46.891   3.010   6.103  0.00  0.00    +0.000 A 
ATOM     19  C   UNL     1      46.140   3.601   7.121  0.00  0.00    +0.000 A 
ENDBRANCH  11  14
ENDBRANCH   9  10
ENDBRANCH   6   9
ENDBRANCH   2   3
BRANCH   2  20
ATOM     20  N   UNL     1      47.714   8.436  15.177  0.00  0.00    +0.000 N 
ATOM     21  C   UNL     1      48.376   9.008  16.228  0.00  0.00    +0.000 C 
ATOM     22  O   UNL     1      48.869  10.130  16.163  0.00  0.00    +0.000 OA
ATOM     23  H   UNL     1      47.349   7.493  15.247  0.00  0.00    +0.000 HD
BRANCH  21  24
ATOM     24  C   UNL     1      48.411   8.235  17.475  0.00  0.00    +0.000 A 
ATOM     25  C   UNL     1      48.210   8.876  18.690  0.00  0.00    +0.000 A 
ATOM     26  S   UNL     1      48.293   7.831  20.034  0.00  0.00    +0.000 S 
ATOM     27  C   UNL     1      48.652   6.495  19.042  0.00  0.00    +0.000 A 
ATOM     28  N   UNL     1      48.893   5.269  19.580  0.00  0.00    +0.000 NA
ATOM     29  C   UNL     1      49.198   4.359  18.717  0.00  0.00    +0.000 A 
ATOM     30  N   UNL     1      49.271   4.561  17.362  0.00  0.00    +0.000 N 
ATOM     31  C   UNL     1      48.979   5.767  16.769  0.00  0.00    +0.000 A 
ATOM     32  O   UNL     1      48.954   5.888  15.549  0.00  0.00    +0.000 OA
ATOM     33  C   UNL     1      48.672   6.835  17.701  0.00  0.00    +0.000 A 
ATOM     34  H   UNL     1      49.490   3.799  16.738  0.00  0.00    +0.000 HD
ENDBRANCH  21  24
ENDBRANCH   2  20
TORSDOF 6
ENDMDL
MODEL 7
REMARK VINA RESULT:    -7.516      4.962      7.246
REMARK INTER + INTRA:         -11.232
REMARK INTER:                 -10.200
REMARK INTRA:                  -1.032
REMARK UNBOUND:                -1.081
REMARK  Name = 
REMARK  7 active torsions:
REMARK  status: ('A' for Active; 'I' for Inactive)
REMARK    1  A    between atoms: C_1  and  C_2
REMARK    2  A    between atoms: C_2  and  N_3
REMARK    3  A    between atoms: C_2  and  C_16
REMARK    4  A    between atoms: C_4  and  C_6
REMARK    5  A    between atoms: C_19  and  C_20
REMARK    6  A    between atoms: C_20  and  N_21
REMARK    7  A    between atoms: C_22  and  C_24
REMARK                            x       y       z     vdW  Elec       q    Type
REMARK                         _______ _______ _______ _____ _____    ______ ____
ROOT
ATOM      1  C   UNL     1      44.717   4.243  13.012  0.00  0.00    +0.000 C 
ATOM      2  C   UNL     1      45.935   5.167  13.002  0.00  0.00    +0.000 C 
ENDROOT
BRANCH   2   3
ATOM      3  C   UNL     1      45.611   6.581  12.531  0.00  0.00    +0.000 A 
ATOM      4  C   UNL     1      46.273   7.661  13.115  0.00  0.00    +0.000 A 
ATOM      5  C   UNL     1      45.910   8.960  12.760  0.00  0.00    +0.000 A 
ATOM      6  C   UNL     1      44.878   9.165  11.843  0.00  0.00    +0.000 A 
ATOM      7  C   UNL     1      44.286   8.033  11.294  0.00  0.00    +0.000 A 
ATOM      8  N   UNL     1      44.618   6.760  11.623  0.00  0.00    +0.000 NA
BRANCH   6   9
ATOM      9  C   UNL     1      44.405  10.542  11.481  0.00  0.00    +0.000 C 
BRANCH   9  10
ATOM     10  N   UNL     1      43.087  10.831  11.995  0.00  0.00    +0.000 N 
ATOM     11  C   UNL     1      41.993  10.782  11.153  0.00  0.00    +0.000 C 
ATOM     12  O   UNL     1      42.075  10.492   9.963  0.00  0.00    +0.000 OA
ATOM     13  H   UNL     1      42.944  10.823  12.996  0.00  0.00    +0.000 HD
BRANCH  11  14
ATOM     14  C   UNL     1      40.669  11.086  11.762  0.00  0.00    +0.000 A 
ATOM     15  C   UNL     1      39.502  10.431  11.348  0.00  0.00    +0.000 A 
ATOM     16  C   UNL     1      38.285  10.699  11.975  0.00  0.00    +0.000 A 
ATOM     17  C   UNL     1      38.226  11.621  13.022  0.00  0.00    +0.000 A 
ATOM     18  C   UNL     1      39.383  12.275  13.442  0.00  0.00    +0.000 A 
ATOM     19  C   UNL     1      40.603  12.007  12.819  0.00  0.00    +0.000 A 
ENDBRANCH  11  14
ENDBRANCH   9  10
ENDBRANCH   6   9
ENDBRANCH   2   3
BRANCH   2  20
ATOM     20  N   UNL     1      46.535   5.209  14.329  0.00  0.00    +0.000 N 
ATOM     21  C   UNL     1      47.216   4.153  14.870  0.00  0.00    +0.000 C 
ATOM     22  O   UNL     1      47.402   3.106  14.256  0.00  0.00    +0.000 OA
ATOM     23  H   UNL     1      46.364   6.047  14.873  0.00  0.00    +0.000 HD
BRANCH  21  24
ATOM     24  C   UNL     1      47.777   4.356  16.210  0.00  0.00    +0.000 A 
ATOM     25  C   UNL     1      47.384   3.532  17.255  0.00  0.00    +0.000 A 
ATOM     26  S   UNL     1      48.128   3.913  18.741  0.00  0.00    +0.000 S 
ATOM     27  C   UNL     1      48.961   5.225  18.049  0.00  0.00    +0.000 A 
ATOM     28  N   UNL     1      49.760   6.024  18.807  0.00  0.00    +0.000 NA
ATOM     29  C   UNL     1      50.293   7.009  18.164  0.00  0.00    +0.000 A 
ATOM     30  N   UNL     1      50.111   7.258  16.828  0.00  0.00    +0.000 N 
ATOM     31  C   UNL     1      49.362   6.445  16.010  0.00  0.00    +0.000 A 
ATOM     32  O   UNL     1      49.301   6.638  14.801  0.00  0.00    +0.000 OA
ATOM     33  C   UNL     1      48.705   5.348  16.696  0.00  0.00    +0.000 A 
ATOM     34  H   UNL     1      50.579   8.031  16.379  0.00  0.00    +0.000 HD
ENDBRANCH  21  24
ENDBRANCH   2  20
TORSDOF 6
ENDMDL
MODEL 8
REMARK VINA RESULT:    -6.919      5.385      7.488
REMARK INTER + INTRA:         -10.427
REMARK INTER:                  -9.640
REMARK INTRA:                  -0.787
REMARK UNBOUND:                -1.081
REMARK  Name = 
REMARK  7 active torsions:
REMARK  status: ('A' for Active; 'I' for Inactive)
REMARK    1  A    between atoms: C_1  and  C_2
REMARK    2  A    between atoms: C_2  and  N_3
REMARK    3  A    between atoms: C_2  and  C_16
REMARK    4  A    between atoms: C_4  and  C_6
REMARK    5  A    between atoms: C_19  and  C_20
REMARK    6  A    between atoms: C_20  and  N_21
REMARK    7  A    between atoms: C_22  and  C_24
REMARK                            x       y       z     vdW  Elec       q    Type
REMARK                         _______ _______ _______ _____ _____    ______ ____
ROOT
ATOM      1  C   UNL     1      44.577   4.853  13.247  0.00  0.00    +0.000 C 
ATOM      2  C   UNL     1      45.724   5.803  12.901  0.00  0.00    +0.000 C 
ENDROOT
BRANCH   2   3
ATOM      3  C   UNL     1      45.248   7.140  12.344  0.00  0.00    +0.000 A 
ATOM      4  C   UNL     1      45.831   8.318  12.812  0.00  0.00    +0.000 A 
ATOM      5  C   UNL     1      45.332   9.547  12.381  0.00  0.00    +0.000 A 
ATOM      6  C   UNL     1      44.246   9.585  11.505  0.00  0.00    +0.000 A 
ATOM      7  C   UNL     1      43.739   8.365  11.073  0.00  0.00    +0.000 A 
ATOM      8  N   UNL     1      44.204   7.156  11.478  0.00  0.00    +0.000 NA
BRANCH   6   9
ATOM      9  C   UNL     1      43.629  10.882  11.067  0.00  0.00    +0.000 C 
BRANCH   9  10
ATOM     10  N   UNL     1      42.499  11.263  11.881  0.00  0.00    +0.000 N 
ATOM     11  C   UNL     1      41.216  10.992  11.450  0.00  0.00    +0.000 C 
ATOM     12  O   UNL     1      40.971  10.422  10.390  0.00  0.00    +0.000 OA
ATOM     13  H   UNL     1      42.658  11.498  12.852  0.00  0.00    +0.000 HD
BRANCH  11  14
ATOM     14  C   UNL     1      40.107  11.413  12.350  0.00  0.00    +0.000 A 
ATOM     15  C   UNL     1      40.349  12.137  13.525  0.00  0.00    +0.000 A 
ATOM     16  C   UNL     1      39.285  12.563  14.319  0.00  0.00    +0.000 A 
ATOM     17  C   UNL     1      37.972  12.273  13.944  0.00  0.00    +0.000 A 
ATOM     18  C   UNL     1      37.722  11.555  12.776  0.00  0.00    +0.000 A 
ATOM     19  C   UNL     1      38.785  11.130  11.976  0.00  0.00    +0.000 A 
ENDBRANCH  11  14
ENDBRANCH   9  10
ENDBRANCH   6   9
ENDBRANCH   2   3
BRANCH   2  20
ATOM     20  N   UNL     1      46.558   6.020  14.077  0.00  0.00    +0.000 N 
ATOM     21  C   UNL     1      47.386   5.059  14.588  0.00  0.00    +0.000 C 
ATOM     22  O   UNL     1      47.514   3.955  14.066  0.00  0.00    +0.000 OA
ATOM     23  H   UNL     1      46.444   6.909  14.549  0.00  0.00    +0.000 HD
BRANCH  21  24
ATOM     24  C   UNL     1      48.175   5.437  15.766  0.00  0.00    +0.000 A 
ATOM     25  C   UNL     1      49.081   6.485  15.682  0.00  0.00    +0.000 A 
ATOM     26  S   UNL     1      49.916   6.782  17.139  0.00  0.00    +0.000 S 
ATOM     27  C   UNL     1      49.132   5.487  17.916  0.00  0.00    +0.000 A 
ATOM     28  N   UNL     1      49.431   5.160  19.202  0.00  0.00    +0.000 NA
ATOM     29  C   UNL     1      48.796   4.128  19.650  0.00  0.00    +0.000 A 
ATOM     30  N   UNL     1      47.878   3.405  18.933  0.00  0.00    +0.000 N 
ATOM     31  C   UNL     1      47.501   3.734  17.652  0.00  0.00    +0.000 A 
ATOM     32  O   UNL     1      46.604   3.128  17.075  0.00  0.00    +0.000 OA
ATOM     33  C   UNL     1      48.219   4.861  17.087  0.00  0.00    +0.000 A 
ATOM     34  H   UNL     1      47.396   2.623  19.352  0.00  0.00    +0.000 HD
ENDBRANCH  21  24
ENDBRANCH   2  20
TORSDOF 6
ENDMDL
MODEL 9
REMARK VINA RESULT:    -6.797      3.437      4.314
REMARK INTER + INTRA:         -10.262
REMARK INTER:                  -9.200
REMARK INTRA:                  -1.062
REMARK UNBOUND:                -1.081
REMARK  Name = 
REMARK  7 active torsions:
REMARK  status: ('A' for Active; 'I' for Inactive)
REMARK    1  A    between atoms: C_1  and  C_2
REMARK    2  A    between atoms: C_2  and  N_3
REMARK    3  A    between atoms: C_2  and  C_16
REMARK    4  A    between atoms: C_4  and  C_6
REMARK    5  A    between atoms: C_19  and  C_20
REMARK    6  A    between atoms: C_20  and  N_21
REMARK    7  A    between atoms: C_22  and  C_24
REMARK                            x       y       z     vdW  Elec       q    Type
REMARK                         _______ _______ _______ _____ _____    ______ ____
ROOT
ATOM      1  C   UNL     1      47.035  10.597  11.527  0.00  0.00    +0.000 C 
ATOM      2  C   UNL     1      47.303   9.541  12.599  0.00  0.00    +0.000 C 
ENDROOT
BRANCH   2   3
ATOM      3  C   UNL     1      46.550   8.237  12.360  0.00  0.00    +0.000 A 
ATOM      4  C   UNL     1      47.246   7.030  12.414  0.00  0.00    +0.000 A 
ATOM      5  C   UNL     1      46.585   5.843  12.097  0.00  0.00    +0.000 A 
ATOM      6  C   UNL     1      45.244   5.879  11.711  0.00  0.00    +0.000 A 
ATOM      7  C   UNL     1      44.621   7.122  11.704  0.00  0.00    +0.000 A 
ATOM      8  N   UNL     1      45.241   8.291  12.005  0.00  0.00    +0.000 NA
BRANCH   6   9
ATOM      9  C   UNL     1      44.508   4.639  11.294  0.00  0.00    +0.000 C 
BRANCH   9  10
ATOM     10  N   UNL     1      45.269   3.821  10.380  0.00  0.00    +0.000 N 
ATOM     11  C   UNL     1      44.931   3.785   9.042  0.00  0.00    +0.000 C 
ATOM     12  O   UNL     1      44.000   4.431   8.567  0.00  0.00    +0.000 OA
ATOM     13  H   UNL     1      46.176   3.482  10.673  0.00  0.00    +0.000 HD
BRANCH  11  14
ATOM     14  C   UNL     1      45.769   2.922   8.165  0.00  0.00    +0.000 A 
ATOM     15  C   UNL     1      46.488   3.450   7.085  0.00  0.00    +0.000 A 
ATOM     16  C   UNL     1      47.307   2.624   6.315  0.00  0.00    +0.000 A 
ATOM     17  C   UNL     1      47.417   1.267   6.620  0.00  0.00    +0.000 A 
ATOM     18  C   UNL     1      46.708   0.733   7.695  0.00  0.00    +0.000 A 
ATOM     19  C   UNL     1      45.889   1.557   8.470  0.00  0.00    +0.000 A 
ENDBRANCH  11  14
ENDBRANCH   9  10
ENDBRANCH   6   9
ENDBRANCH   2   3
BRANCH   2  20
ATOM     20  N   UNL     1      48.734   9.281  12.691  0.00  0.00    +0.000 N 
ATOM     21  C   UNL     1      49.543   9.889  13.611  0.00  0.00    +0.000 C 
ATOM     22  O   UNL     1      49.109  10.671  14.453  0.00  0.00    +0.000 OA
ATOM     23  H   UNL     1      49.125   8.669  11.983  0.00  0.00    +0.000 HD
BRANCH  21  24
ATOM     24  C   UNL     1      50.960   9.509  13.587  0.00  0.00    +0.000 A 
ATOM     25  C   UNL     1      51.816  10.094  12.664  0.00  0.00    +0.000 A 
ATOM     26  S   UNL     1      53.422   9.532  12.772  0.00  0.00    +0.000 S 
ATOM     27  C   UNL     1      53.016   8.450  14.021  0.00  0.00    +0.000 A 
ATOM     28  N   UNL     1      53.948   7.612  14.551  0.00  0.00    +0.000 NA
ATOM     29  C   UNL     1      53.493   6.813  15.457  0.00  0.00    +0.000 A 
ATOM     30  N   UNL     1      52.193   6.787  15.893  0.00  0.00    +0.000 N 
ATOM     31  C   UNL     1      51.231   7.654  15.430  0.00  0.00    +0.000 A 
ATOM     32  O   UNL     1      50.104   7.672  15.912  0.00  0.00    +0.000 OA
ATOM     33  C   UNL     1      51.683   8.543  14.377  0.00  0.00    +0.000 A 
ATOM     34  H   UNL     1      51.907   6.154  16.625  0.00  0.00    +0.000 HD
ENDBRANCH  21  24
ENDBRANCH   2  20
TORSDOF 6
ENDMDL
