MODEL 1
REMARK VINA RESULT:    -8.593      0.000      0.000
REMARK INTER + INTRA:         -13.422
REMARK INTER:                 -12.109
REMARK INTRA:                  -1.313
REMARK UNBOUND:                -1.313
REMARK  Name = 
REMARK  10 active torsions:
REMARK  status: ('A' for Active; 'I' for Inactive)
REMARK    1  A    between atoms: C_1  and  N_2
REMARK    2  A    between atoms: C_4  and  C_5
REMARK    3  A    between atoms: N_7  and  C_8
REMARK    4  A    between atoms: C_8  and  C_9
REMARK    5  A    between atoms: C_12  and  C_13
REMARK    6  A    between atoms: C_13  and  C_14
REMARK    7  A    between atoms: C_14  and  C_15
REMARK    8  A    between atoms: C_14  and  C_16
REMARK    9  A    between atoms: C_14  and  C_17
REMARK   10  A    between atoms: C_17  and  N_18
REMARK                            x       y       z     vdW  Elec       q    Type
REMARK                         _______ _______ _______ _____ _____    ______ ____
ROOT
ATOM      1  C   UNL     1      46.471   7.548  12.519  0.00  0.00    +0.000 A 
ATOM      2  C   UNL     1      46.964   6.888  11.390  0.00  0.00    +0.000 A 
ATOM      3  C   UNL     1      46.135   6.031  10.664  0.00  0.00    +0.000 A 
ATOM      4  C   UNL     1      44.814   5.788  11.072  0.00  0.00    +0.000 A 
ATOM      5  C   UNL     1      44.306   6.498  12.163  0.00  0.00    +0.000 A 
ATOM      6  C   UNL     1      45.127   7.374  12.876  0.00  0.00    +0.000 A 
ENDROOT
BRANCH   1   7
ATOM      7  C   UNL     1      47.361   8.460  13.319  0.00  0.00    +0.000 C 
BRANCH   7  10
ATOM      8  C   UNL     1      48.835   7.099  14.736  0.00  0.00    +0.000 C 
ATOM      9  O   UNL     1      49.670   6.970  13.853  0.00  0.00    +0.000 OA
ATOM     10  N   UNL     1      47.697   7.865  14.587  0.00  0.00    +0.000 N 
ATOM     11  H   UNL     1      46.965   7.774  15.275  0.00  0.00    +0.000 HD
BRANCH   8  15
ATOM     12  C   UNL     1      50.466   6.165  19.341  0.00  0.00    +0.000 C 
ATOM     13  N   UNL     1      49.726   6.057  18.107  0.00  0.00    +0.000 N 
ATOM     14  C   UNL     1      49.770   6.950  17.070  0.00  0.00    +0.000 A 
ATOM     15  C   UNL     1      48.963   6.470  16.043  0.00  0.00    +0.000 A 
ATOM     16  C   UNL     1      48.377   5.247  16.517  0.00  0.00    +0.000 A 
ATOM     17  C   UNL     1      47.478   4.270  16.092  0.00  0.00    +0.000 A 
ATOM     18 CL   UNL     1      46.647   4.416  14.622  0.00  0.00    +0.000 Cl
ATOM     19  N   UNL     1      47.159   3.206  16.852  0.00  0.00    +0.000 NA
ATOM     20  C   UNL     1      47.747   3.124  18.049  0.00  0.00    +0.000 A 
ATOM     21  N   UNL     1      48.613   3.986  18.601  0.00  0.00    +0.000 NA
ATOM     22  C   UNL     1      48.885   5.024  17.793  0.00  0.00    +0.000 A 
ENDBRANCH   8  15
ENDBRANCH   7  10
ENDBRANCH   1   7
BRANCH   4  23
ATOM     23  C   UNL     1      43.971   4.728  10.391  0.00  0.00    +0.000 C 
BRANCH  23  24
ATOM     24  C   UNL     1      44.314   3.249  10.787  0.00  0.00    +0.000 C 
ATOM     25  C   UNL     1      45.665   3.268  11.533  0.00  0.00    +0.000 C 
ATOM     26  C   UNL     1      43.211   2.761  11.751  0.00  0.00    +0.000 C 
BRANCH  24  27
ATOM     27  C   UNL     1      44.478   2.341   9.507  0.00  0.00    +0.000 C 
BRANCH  27  28
ATOM     28  N   UNL     1      45.716   2.495   8.689  0.00  0.00    +0.000 NA
ATOM     29  C   UNL     1      46.171   1.216   8.130  0.00  0.00    +0.000 C 
ATOM     30  C   UNL     1      47.394   1.320   7.228  0.00  0.00    +0.000 C 
ATOM     31  C   UNL     1      47.167   2.316   6.112  0.00  0.00    +0.000 C 
ATOM     32  C   UNL     1      46.725   3.645   6.709  0.00  0.00    +0.000 C 
ATOM     33  C   UNL     1      45.489   3.472   7.603  0.00  0.00    +0.000 C 
ENDBRANCH  27  28
ENDBRANCH  24  27
ENDBRANCH  23  24
ENDBRANCH   4  23
TORSDOF 7
ENDMDL
MODEL 2
REMARK VINA RESULT:    -7.355      1.519      2.299
REMARK INTER + INTRA:         -11.678
REMARK INTER:                 -10.888
REMARK INTRA:                  -0.790
REMARK UNBOUND:                -1.313
REMARK  Name = 
REMARK  10 active torsions:
REMARK  status: ('A' for Active; 'I' for Inactive)
REMARK    1  A    between atoms: C_1  and  N_2
REMARK    2  A    between atoms: C_4  and  C_5
REMARK    3  A    between atoms: N_7  and  C_8
REMARK    4  A    between atoms: C_8  and  C_9
REMARK    5  A    between atoms: C_12  and  C_13
REMARK    6  A    between atoms: C_13  and  C_14
REMARK    7  A    between atoms: C_14  and  C_15
REMARK    8  A    between atoms: C_14  and  C_16
REMARK    9  A    between atoms: C_14  and  C_17
REMARK   10  A    between atoms: C_17  and  N_18
REMARK                            x       y       z     vdW  Elec       q    Type
REMARK                         _______ _______ _______ _____ _____    ______ ____
ROOT
ATOM      1  C   UNL     1      46.560   7.471  12.526  0.00  0.00    +0.000 A 
ATOM      2  C   UNL     1      47.005   6.792  11.387  0.00  0.00    +0.000 A 
ATOM      3  C   UNL     1      46.134   5.957  10.687  0.00  0.00    +0.000 A 
ATOM      4  C   UNL     1      44.817   5.754  11.130  0.00  0.00    +0.000 A 
ATOM      5  C   UNL     1      44.358   6.482  12.230  0.00  0.00    +0.000 A 
ATOM      6  C   UNL     1      45.221   7.337  12.918  0.00  0.00    +0.000 A 
ENDROOT
BRANCH   1   7
ATOM      7  C   UNL     1      47.496   8.360  13.298  0.00  0.00    +0.000 C 
BRANCH   7  10
ATOM      8  C   UNL     1      48.811   7.097  14.944  0.00  0.00    +0.000 C 
ATOM      9  O   UNL     1      49.727   6.904  14.158  0.00  0.00    +0.000 OA
ATOM     10  N   UNL     1      47.701   7.854  14.631  0.00  0.00    +0.000 N 
ATOM     11  H   UNL     1      46.903   7.814  15.248  0.00  0.00    +0.000 HD
BRANCH   8  15
ATOM     12  C   UNL     1      48.416   3.849  18.690  0.00  0.00    +0.000 C 
ATOM     13  N   UNL     1      48.602   5.085  17.969  0.00  0.00    +0.000 N 
ATOM     14  C   UNL     1      48.674   5.210  16.608  0.00  0.00    +0.000 A 
ATOM     15  C   UNL     1      48.804   6.560  16.298  0.00  0.00    +0.000 A 
ATOM     16  C   UNL     1      48.853   7.267  17.548  0.00  0.00    +0.000 A 
ATOM     17  C   UNL     1      49.005   8.569  18.022  0.00  0.00    +0.000 A 
ATOM     18 CL   UNL     1      49.316   9.860  16.970  0.00  0.00    +0.000 Cl
ATOM     19  N   UNL     1      48.995   8.862  19.336  0.00  0.00    +0.000 NA
ATOM     20  C   UNL     1      48.834   7.839  20.179  0.00  0.00    +0.000 A 
ATOM     21  N   UNL     1      48.692   6.540  19.879  0.00  0.00    +0.000 NA
ATOM     22  C   UNL     1      48.714   6.317  18.554  0.00  0.00    +0.000 A 
ENDBRANCH   8  15
ENDBRANCH   7  10
ENDBRANCH   1   7
BRANCH   4  23
ATOM     23  C   UNL     1      43.927   4.715  10.475  0.00  0.00    +0.000 C 
BRANCH  23  24
ATOM     24  C   UNL     1      44.262   3.226  10.841  0.00  0.00    +0.000 C 
ATOM     25  C   UNL     1      45.613   3.222  11.586  0.00  0.00    +0.000 C 
ATOM     26  C   UNL     1      43.156   2.725  11.795  0.00  0.00    +0.000 C 
BRANCH  24  27
ATOM     27  C   UNL     1      44.420   2.344   9.543  0.00  0.00    +0.000 C 
BRANCH  27  28
ATOM     28  N   UNL     1      45.657   2.512   8.725  0.00  0.00    +0.000 NA
ATOM     29  C   UNL     1      46.124   1.238   8.162  0.00  0.00    +0.000 C 
ATOM     30  C   UNL     1      47.345   1.356   7.260  0.00  0.00    +0.000 C 
ATOM     31  C   UNL     1      47.109   2.352   6.147  0.00  0.00    +0.000 C 
ATOM     32  C   UNL     1      46.654   3.676   6.747  0.00  0.00    +0.000 C 
ATOM     33  C   UNL     1      45.420   3.489   7.641  0.00  0.00    +0.000 C 
ENDBRANCH  27  28
ENDBRANCH  24  27
ENDBRANCH  23  24
ENDBRANCH   4  23
TORSDOF 7
ENDMDL
MODEL 3
REMARK VINA RESULT:    -7.033      2.508      3.035
REMARK INTER + INTRA:         -11.224
REMARK INTER:                 -10.491
REMARK INTRA:                  -0.733
REMARK UNBOUND:                -1.313
REMARK  Name = 
REMARK  10 active torsions:
REMARK  status: ('A' for Active; 'I' for Inactive)
REMARK    1  A    between atoms: C_1  and  N_2
REMARK    2  A    between atoms: C_4  and  C_5
REMARK    3  A    between atoms: N_7  and  C_8
REMARK    4  A    between atoms: C_8  and  C_9
REMARK    5  A    between atoms: C_12  and  C_13
REMARK    6  A    between atoms: C_13  and  C_14
REMARK    7  A    between atoms: C_14  and  C_15
REMARK    8  A    between atoms: C_14  and  C_16
REMARK    9  A    between atoms: C_14  and  C_17
REMARK   10  A    between atoms: C_17  and  N_18
REMARK                            x       y       z     vdW  Elec       q    Type
REMARK                         _______ _______ _______ _____ _____    ______ ____
ROOT
ATOM      1  C   UNL     1      47.290   7.300  13.279  0.00  0.00    +0.000 A 
ATOM      2  C   UNL     1      47.462   6.188  14.109  0.00  0.00    +0.000 A 
ATOM      3  C   UNL     1      46.943   4.949  13.735  0.00  0.00    +0.000 A 
ATOM      4  C   UNL     1      46.211   4.803  12.546  0.00  0.00    +0.000 A 
ATOM      5  C   UNL     1      46.095   5.900  11.689  0.00  0.00    +0.000 A 
ATOM      6  C   UNL     1      46.634   7.136  12.051  0.00  0.00    +0.000 A 
ENDROOT
BRANCH   1   7
ATOM      7  C   UNL     1      47.830   8.644  13.683  0.00  0.00    +0.000 C 
BRANCH   7  10
ATOM      8  C   UNL     1      48.536   9.061  15.998  0.00  0.00    +0.000 C 
ATOM      9  O   UNL     1      49.722   9.067  15.702  0.00  0.00    +0.000 OA
ATOM     10  N   UNL     1      47.531   8.924  15.063  0.00  0.00    +0.000 N 
ATOM     11  H   UNL     1      46.595   8.736  15.391  0.00  0.00    +0.000 HD
BRANCH   8  15
ATOM     12  C   UNL     1      46.951  11.231  20.184  0.00  0.00    +0.000 C 
ATOM     13  N   UNL     1      47.368  10.217  19.245  0.00  0.00    +0.000 N 
ATOM     14  C   UNL     1      47.643  10.423  17.920  0.00  0.00    +0.000 A 
ATOM     15  C   UNL     1      48.062   9.217  17.366  0.00  0.00    +0.000 A 
ATOM     16  C   UNL     1      47.990   8.236  18.414  0.00  0.00    +0.000 A 
ATOM     17  C   UNL     1      48.200   6.871  18.600  0.00  0.00    +0.000 A 
ATOM     18 CL   UNL     1      48.595   5.854  17.304  0.00  0.00    +0.000 Cl
ATOM     19  N   UNL     1      48.025   6.273  19.794  0.00  0.00    +0.000 NA
ATOM     20  C   UNL     1      47.633   7.052  20.805  0.00  0.00    +0.000 A 
ATOM     21  N   UNL     1      47.377   8.368  20.778  0.00  0.00    +0.000 NA
ATOM     22  C   UNL     1      47.568   8.901  19.560  0.00  0.00    +0.000 A 
ENDBRANCH   8  15
ENDBRANCH   7  10
ENDBRANCH   1   7
BRANCH   4  23
ATOM     23  C   UNL     1      45.498   3.504  12.225  0.00  0.00    +0.000 C 
BRANCH  23  24
ATOM     24  C   UNL     1      44.046   3.665  11.651  0.00  0.00    +0.000 C 
ATOM     25  C   UNL     1      43.273   2.368  11.973  0.00  0.00    +0.000 C 
ATOM     26  C   UNL     1      43.384   4.846  12.394  0.00  0.00    +0.000 C 
BRANCH  24  27
ATOM     27  C   UNL     1      44.070   3.841  10.084  0.00  0.00    +0.000 C 
BRANCH  27  28
ATOM     28  N   UNL     1      45.268   3.353   9.340  0.00  0.00    +0.000 NA
ATOM     29  C   UNL     1      45.127   1.951   8.925  0.00  0.00    +0.000 C 
ATOM     30  C   UNL     1      46.291   1.418   8.101  0.00  0.00    +0.000 C 
ATOM     31  C   UNL     1      46.548   2.286   6.890  0.00  0.00    +0.000 C 
ATOM     32  C   UNL     1      46.721   3.731   7.338  0.00  0.00    +0.000 C 
ATOM     33  C   UNL     1      45.515   4.209   8.160  0.00  0.00    +0.000 C 
ENDBRANCH  27  28
ENDBRANCH  24  27
ENDBRANCH  23  24
ENDBRANCH   4  23
TORSDOF 7
ENDMDL
MODEL 4
REMARK VINA RESULT:    -6.320      2.964      3.849
REMARK INTER + INTRA:         -10.219
REMARK INTER:                  -9.345
REMARK INTRA:                  -0.873
REMARK UNBOUND:                -1.313
REMARK  Name = 
REMARK  10 active torsions:
REMARK  status: ('A' for Active; 'I' for Inactive)
REMARK    1  A    between atoms: C_1  and  N_2
REMARK    2  A    between atoms: C_4  and  C_5
REMARK    3  A    between atoms: N_7  and  C_8
REMARK    4  A    between atoms: C_8  and  C_9
REMARK    5  A    between atoms: C_12  and  C_13
REMARK    6  A    between atoms: C_13  and  C_14
REMARK    7  A    between atoms: C_14  and  C_15
REMARK    8  A    between atoms: C_14  and  C_16
REMARK    9  A    between atoms: C_14  and  C_17
REMARK   10  A    between atoms: C_17  and  N_18
REMARK                            x       y       z     vdW  Elec       q    Type
REMARK                         _______ _______ _______ _____ _____    ______ ____
ROOT
ATOM      1  C   UNL     1      47.847   6.715  14.333  0.00  0.00    +0.000 A 
ATOM      2  C   UNL     1      47.596   5.538  15.044  0.00  0.00    +0.000 A 
ATOM      3  C   UNL     1      46.979   4.458  14.413  0.00  0.00    +0.000 A 
ATOM      4  C   UNL     1      46.568   4.545  13.073  0.00  0.00    +0.000 A 
ATOM      5  C   UNL     1      46.877   5.698  12.348  0.00  0.00    +0.000 A 
ATOM      6  C   UNL     1      47.516   6.771  12.972  0.00  0.00    +0.000 A 
ENDROOT
BRANCH   1   7
ATOM      7  C   UNL     1      48.495   7.892  15.010  0.00  0.00    +0.000 C 
BRANCH   7  10
ATOM      8  C   UNL     1      49.152   7.929  17.377  0.00  0.00    +0.000 C 
ATOM      9  O   UNL     1      50.341   8.022  17.110  0.00  0.00    +0.000 OA
ATOM     10  N   UNL     1      48.166   7.922  16.412  0.00  0.00    +0.000 N 
ATOM     11  H   UNL     1      47.232   7.652  16.684  0.00  0.00    +0.000 HD
BRANCH   8  15
ATOM     12  C   UNL     1      47.987   6.002  21.812  0.00  0.00    +0.000 C 
ATOM     13  N   UNL     1      48.120   6.940  20.723  0.00  0.00    +0.000 N 
ATOM     14  C   UNL     1      48.800   6.716  19.556  0.00  0.00    +0.000 A 
ATOM     15  C   UNL     1      48.652   7.834  18.741  0.00  0.00    +0.000 A 
ATOM     16  C   UNL     1      47.877   8.788  19.486  0.00  0.00    +0.000 A 
ATOM     17  C   UNL     1      47.384  10.085  19.354  0.00  0.00    +0.000 A 
ATOM     18 CL   UNL     1      47.763  11.039  18.005  0.00  0.00    +0.000 Cl
ATOM     19  N   UNL     1      46.653  10.678  20.316  0.00  0.00    +0.000 NA
ATOM     20  C   UNL     1      46.418   9.964  21.420  0.00  0.00    +0.000 A 
ATOM     21  N   UNL     1      46.835   8.721  21.699  0.00  0.00    +0.000 NA
ATOM     22  C   UNL     1      47.561   8.188  20.701  0.00  0.00    +0.000 A 
ENDBRANCH   8  15
ENDBRANCH   7  10
ENDBRANCH   1   7
BRANCH   4  23
ATOM     23  C   UNL     1      45.743   3.441  12.439  0.00  0.00    +0.000 C 
BRANCH  23  24
ATOM     24  C   UNL     1      44.291   3.857  12.011  0.00  0.00    +0.000 C 
ATOM     25  C   UNL     1      43.349   2.689  12.371  0.00  0.00    +0.000 C 
ATOM     26  C   UNL     1      43.901   5.097  12.845  0.00  0.00    +0.000 C 
BRANCH  24  27
ATOM     27  C   UNL     1      44.203   4.092  10.454  0.00  0.00    +0.000 C 
BRANCH  27  28
ATOM     28  N   UNL     1      45.312   3.574   9.600  0.00  0.00    +0.000 NA
ATOM     29  C   UNL     1      45.044   2.215   9.114  0.00  0.00    +0.000 C 
ATOM     30  C   UNL     1      46.110   1.658   8.179  0.00  0.00    +0.000 C 
ATOM     31  C   UNL     1      46.349   2.583   7.008  0.00  0.00    +0.000 C 
ATOM     32  C   UNL     1      46.654   3.982   7.528  0.00  0.00    +0.000 C 
ATOM     33  C   UNL     1      45.542   4.486   8.459  0.00  0.00    +0.000 C 
ENDBRANCH  27  28
ENDBRANCH  24  27
ENDBRANCH  23  24
ENDBRANCH   4  23
TORSDOF 7
ENDMDL
MODEL 5
REMARK VINA RESULT:    -6.190      2.341      3.030
REMARK INTER + INTRA:         -10.036
REMARK INTER:                  -9.990
REMARK INTRA:                  -0.046
REMARK UNBOUND:                -1.313
REMARK  Name = 
REMARK  10 active torsions:
REMARK  status: ('A' for Active; 'I' for Inactive)
REMARK    1  A    between atoms: C_1  and  N_2
REMARK    2  A    between atoms: C_4  and  C_5
REMARK    3  A    between atoms: N_7  and  C_8
REMARK    4  A    between atoms: C_8  and  C_9
REMARK    5  A    between atoms: C_12  and  C_13
REMARK    6  A    between atoms: C_13  and  C_14
REMARK    7  A    between atoms: C_14  and  C_15
REMARK    8  A    between atoms: C_14  and  C_16
REMARK    9  A    between atoms: C_14  and  C_17
REMARK   10  A    between atoms: C_17  and  N_18
REMARK                            x       y       z     vdW  Elec       q    Type
REMARK                         _______ _______ _______ _____ _____    ______ ____
ROOT
ATOM      1  C   UNL     1      48.066   7.349  13.173  0.00  0.00    +0.000 A 
ATOM      2  C   UNL     1      48.007   5.965  13.363  0.00  0.00    +0.000 A 
ATOM      3  C   UNL     1      46.784   5.299  13.281  0.00  0.00    +0.000 A 
ATOM      4  C   UNL     1      45.593   6.004  13.045  0.00  0.00    +0.000 A 
ATOM      5  C   UNL     1      45.663   7.376  12.793  0.00  0.00    +0.000 A 
ATOM      6  C   UNL     1      46.890   8.041  12.851  0.00  0.00    +0.000 A 
ENDROOT
BRANCH   1   7
ATOM      7  C   UNL     1      49.377   8.078  13.277  0.00  0.00    +0.000 C 
BRANCH   7  10
ATOM      8  C   UNL     1      50.516   7.723  15.424  0.00  0.00    +0.000 C 
ATOM      9  O   UNL     1      49.869   8.595  15.984  0.00  0.00    +0.000 OA
ATOM     10  N   UNL     1      50.301   7.355  14.112  0.00  0.00    +0.000 N 
ATOM     11  H   UNL     1      50.989   6.771  13.659  0.00  0.00    +0.000 HD
BRANCH   8  15
ATOM     12  C   UNL     1      55.062   6.247  16.800  0.00  0.00    +0.000 C 
ATOM     13  N   UNL     1      53.625   6.310  16.680  0.00  0.00    +0.000 N 
ATOM     14  C   UNL     1      52.922   7.288  16.031  0.00  0.00    +0.000 A 
ATOM     15  C   UNL     1      51.569   6.969  16.090  0.00  0.00    +0.000 A 
ATOM     16  C   UNL     1      51.465   5.755  16.853  0.00  0.00    +0.000 A 
ATOM     17  C   UNL     1      50.485   4.894  17.343  0.00  0.00    +0.000 A 
ATOM     18 CL   UNL     1      48.836   5.238  17.157  0.00  0.00    +0.000 Cl
ATOM     19  N   UNL     1      50.786   3.792  18.055  0.00  0.00    +0.000 NA
ATOM     20  C   UNL     1      52.081   3.556  18.279  0.00  0.00    +0.000 A 
ATOM     21  N   UNL     1      53.131   4.294  17.890  0.00  0.00    +0.000 NA
ATOM     22  C   UNL     1      52.761   5.378  17.188  0.00  0.00    +0.000 A 
ENDBRANCH   8  15
ENDBRANCH   7  10
ENDBRANCH   1   7
BRANCH   4  23
ATOM     23  C   UNL     1      44.248   5.311  13.130  0.00  0.00    +0.000 C 
BRANCH  23  24
ATOM     24  C   UNL     1      43.664   4.820  11.758  0.00  0.00    +0.000 C 
ATOM     25  C   UNL     1      43.419   3.301  11.873  0.00  0.00    +0.000 C 
ATOM     26  C   UNL     1      42.311   5.536  11.550  0.00  0.00    +0.000 C 
BRANCH  24  27
ATOM     27  C   UNL     1      44.690   5.060  10.585  0.00  0.00    +0.000 C 
BRANCH  27  28
ATOM     28  N   UNL     1      44.749   4.053   9.485  0.00  0.00    +0.000 NA
ATOM     29  C   UNL     1      45.623   4.485   8.387  0.00  0.00    +0.000 C 
ATOM     30  C   UNL     1      45.779   3.467   7.266  0.00  0.00    +0.000 C 
ATOM     31  C   UNL     1      46.249   2.132   7.799  0.00  0.00    +0.000 C 
ATOM     32  C   UNL     1      45.316   1.683   8.916  0.00  0.00    +0.000 C 
ATOM     33  C   UNL     1      45.206   2.750  10.015  0.00  0.00    +0.000 C 
ENDBRANCH  27  28
ENDBRANCH  24  27
ENDBRANCH  23  24
ENDBRANCH   4  23
TORSDOF 7
ENDMDL
MODEL 6
REMARK VINA RESULT:    -6.046      2.195      2.892
REMARK INTER + INTRA:          -9.834
REMARK INTER:                  -9.189
REMARK INTRA:                  -0.645
REMARK UNBOUND:                -1.313
REMARK  Name = 
REMARK  10 active torsions:
REMARK  status: ('A' for Active; 'I' for Inactive)
REMARK    1  A    between atoms: C_1  and  N_2
REMARK    2  A    between atoms: C_4  and  C_5
REMARK    3  A    between atoms: N_7  and  C_8
REMARK    4  A    between atoms: C_8  and  C_9
REMARK    5  A    between atoms: C_12  and  C_13
REMARK    6  A    between atoms: C_13  and  C_14
REMARK    7  A    between atoms: C_14  and  C_15
REMARK    8  A    between atoms: C_14  and  C_16
REMARK    9  A    between atoms: C_14  and  C_17
REMARK   10  A    between atoms: C_17  and  N_18
REMARK                            x       y       z     vdW  Elec       q    Type
REMARK                         _______ _______ _______ _____ _____    ______ ____
ROOT
ATOM      1  C   UNL     1      47.893   8.620  14.254  0.00  0.00    +0.000 A 
ATOM      2  C   UNL     1      48.301   7.285  14.178  0.00  0.00    +0.000 A 
ATOM      3  C   UNL     1      47.817   6.464  13.160  0.00  0.00    +0.000 A 
ATOM      4  C   UNL     1      46.890   6.947  12.222  0.00  0.00    +0.000 A 
ATOM      5  C   UNL     1      46.534   8.297  12.264  0.00  0.00    +0.000 A 
ATOM      6  C   UNL     1      47.036   9.127  13.268  0.00  0.00    +0.000 A 
ENDROOT
BRANCH   1   7
ATOM      7  C   UNL     1      48.395   9.509  15.360  0.00  0.00    +0.000 C 
BRANCH   7  10
ATOM      8  C   UNL     1      49.038   8.732  17.599  0.00  0.00    +0.000 C 
ATOM      9  O   UNL     1      50.202   9.077  17.454  0.00  0.00    +0.000 OA
ATOM     10  N   UNL     1      48.064   8.960  16.649  0.00  0.00    +0.000 N 
ATOM     11  H   UNL     1      47.179   8.484  16.747  0.00  0.00    +0.000 HD
BRANCH   8  15
ATOM     12  C   UNL     1      47.128   8.063  22.143  0.00  0.00    +0.000 C 
ATOM     13  N   UNL     1      47.712   7.784  20.853  0.00  0.00    +0.000 N 
ATOM     14  C   UNL     1      47.932   8.703  19.862  0.00  0.00    +0.000 A 
ATOM     15  C   UNL     1      48.556   8.060  18.798  0.00  0.00    +0.000 A 
ATOM     16  C   UNL     1      48.673   6.676  19.165  0.00  0.00    +0.000 A 
ATOM     17  C   UNL     1      49.128   5.473  18.626  0.00  0.00    +0.000 A 
ATOM     18 CL   UNL     1      49.687   5.378  17.029  0.00  0.00    +0.000 Cl
ATOM     19  N   UNL     1      49.075   4.314  19.308  0.00  0.00    +0.000 NA
ATOM     20  C   UNL     1      48.559   4.363  20.539  0.00  0.00    +0.000 A 
ATOM     21  N   UNL     1      48.069   5.432  21.183  0.00  0.00    +0.000 NA
ATOM     22  C   UNL     1      48.149   6.553  20.447  0.00  0.00    +0.000 A 
ENDBRANCH   8  15
ENDBRANCH   7  10
ENDBRANCH   1   7
BRANCH   4  23
ATOM     23  C   UNL     1      46.232   6.013  11.226  0.00  0.00    +0.000 C 
BRANCH  23  24
ATOM     24  C   UNL     1      45.149   5.051  11.830  0.00  0.00    +0.000 C 
ATOM     25  C   UNL     1      45.846   4.173  12.890  0.00  0.00    +0.000 C 
ATOM     26  C   UNL     1      44.084   5.930  12.521  0.00  0.00    +0.000 C 
BRANCH  24  27
ATOM     27  C   UNL     1      44.555   4.097  10.723  0.00  0.00    +0.000 C 
BRANCH  27  28
ATOM     28  N   UNL     1      45.492   3.525   9.711  0.00  0.00    +0.000 NA
ATOM     29  C   UNL     1      45.121   2.157   9.326  0.00  0.00    +0.000 C 
ATOM     30  C   UNL     1      46.000   1.546   8.244  0.00  0.00    +0.000 C 
ATOM     31  C   UNL     1      46.051   2.427   7.016  0.00  0.00    +0.000 C 
ATOM     32  C   UNL     1      46.465   3.834   7.427  0.00  0.00    +0.000 C 
ATOM     33  C   UNL     1      45.539   4.394   8.515  0.00  0.00    +0.000 C 
ENDBRANCH  27  28
ENDBRANCH  24  27
ENDBRANCH  23  24
ENDBRANCH   4  23
TORSDOF 7
ENDMDL
MODEL 7
REMARK VINA RESULT:    -6.045      2.683      7.880
REMARK INTER + INTRA:          -9.832
REMARK INTER:                  -8.184
REMARK INTRA:                  -1.648
REMARK UNBOUND:                -1.313
REMARK  Name = 
REMARK  10 active torsions:
REMARK  status: ('A' for Active; 'I' for Inactive)
REMARK    1  A    between atoms: C_1  and  N_2
REMARK    2  A    between atoms: C_4  and  C_5
REMARK    3  A    between atoms: N_7  and  C_8
REMARK    4  A    between atoms: C_8  and  C_9
REMARK    5  A    between atoms: C_12  and  C_13
REMARK    6  A    between atoms: C_13  and  C_14
REMARK    7  A    between atoms: C_14  and  C_15
REMARK    8  A    between atoms: C_14  and  C_16
REMARK    9  A    between atoms: C_14  and  C_17
REMARK   10  A    between atoms: C_17  and  N_18
REMARK                            x       y       z     vdW  Elec       q    Type
REMARK                         _______ _______ _______ _____ _____    ______ ____
ROOT
ATOM      1  C   UNL     1      48.906   9.344  14.458  0.00  0.00    +0.000 A 
ATOM      2  C   UNL     1      48.271   9.967  15.537  0.00  0.00    +0.000 A 
ATOM      3  C   UNL     1      48.707   9.723  16.839  0.00  0.00    +0.000 A 
ATOM      4  C   UNL     1      49.757   8.827  17.093  0.00  0.00    +0.000 A 
ATOM      5  C   UNL     1      50.429   8.256  16.010  0.00  0.00    +0.000 A 
ATOM      6  C   UNL     1      50.010   8.517  14.704  0.00  0.00    +0.000 A 
ENDROOT
BRANCH   1   7
ATOM      7  C   UNL     1      48.432   9.586  13.051  0.00  0.00    +0.000 C 
BRANCH   7  10
ATOM      8  C   UNL     1      46.412   8.228  12.723  0.00  0.00    +0.000 C 
ATOM      9  O   UNL     1      45.688   9.064  13.244  0.00  0.00    +0.000 OA
ATOM     10  N   UNL     1      47.763   8.423  12.527  0.00  0.00    +0.000 N 
ATOM     11  H   UNL     1      48.330   7.627  12.273  0.00  0.00    +0.000 HD
BRANCH   8  15
ATOM     12  C   UNL     1      43.755   4.906  10.146  0.00  0.00    +0.000 C 
ATOM     13  N   UNL     1      44.697   5.469  11.082  0.00  0.00    +0.000 N 
ATOM     14  C   UNL     1      45.016   6.796  11.191  0.00  0.00    +0.000 A 
ATOM     15  C   UNL     1      45.918   6.946  12.240  0.00  0.00    +0.000 A 
ATOM     16  C   UNL     1      46.177   5.628  12.752  0.00  0.00    +0.000 A 
ATOM     17  C   UNL     1      46.962   5.005  13.721  0.00  0.00    +0.000 A 
ATOM     18 CL   UNL     1      48.083   5.879  14.643  0.00  0.00    +0.000 Cl
ATOM     19  N   UNL     1      46.934   3.675  13.923  0.00  0.00    +0.000 NA
ATOM     20  C   UNL     1      46.113   2.965  13.144  0.00  0.00    +0.000 A 
ATOM     21  N   UNL     1      45.315   3.415  12.165  0.00  0.00    +0.000 NA
ATOM     22  C   UNL     1      45.393   4.748  12.014  0.00  0.00    +0.000 A 
ENDBRANCH   8  15
ENDBRANCH   7  10
ENDBRANCH   1   7
BRANCH   4  23
ATOM     23  C   UNL     1      50.115   8.427  18.511  0.00  0.00    +0.000 C 
BRANCH  23  24
ATOM     24  C   UNL     1      49.062   7.511  19.231  0.00  0.00    +0.000 C 
ATOM     25  C   UNL     1      49.838   6.553  20.159  0.00  0.00    +0.000 C 
ATOM     26  C   UNL     1      48.162   8.427  20.088  0.00  0.00    +0.000 C 
BRANCH  24  27
ATOM     27  C   UNL     1      48.262   6.639  18.189  0.00  0.00    +0.000 C 
BRANCH  27  28
ATOM     28  N   UNL     1      48.456   5.159  18.215  0.00  0.00    +0.000 NA
ATOM     29  C   UNL     1      47.297   4.441  17.668  0.00  0.00    +0.000 C 
ATOM     30  C   UNL     1      47.465   2.929  17.604  0.00  0.00    +0.000 C 
ATOM     31  C   UNL     1      48.713   2.548  16.837  0.00  0.00    +0.000 C 
ATOM     32  C   UNL     1      49.909   3.277  17.434  0.00  0.00    +0.000 C 
ATOM     33  C   UNL     1      49.679   4.795  17.467  0.00  0.00    +0.000 C 
ENDBRANCH  27  28
ENDBRANCH  24  27
ENDBRANCH  23  24
ENDBRANCH   4  23
TORSDOF 7
ENDMDL
MODEL 8
REMARK VINA RESULT:    -5.708      3.105      8.210
REMARK INTER + INTRA:          -9.356
REMARK INTER:                  -7.534
REMARK INTRA:                  -1.822
REMARK UNBOUND:                -1.313
REMARK  Name = 
REMARK  10 active torsions:
REMARK  status: ('A' for Active; 'I' for Inactive)
REMARK    1  A    between atoms: C_1  and  N_2
REMARK    2  A    between atoms: C_4  and  C_5
REMARK    3  A    between atoms: N_7  and  C_8
REMARK    4  A    between atoms: C_8  and  C_9
REMARK    5  A    between atoms: C_12  and  C_13
REMARK    6  A    between atoms: C_13  and  C_14
REMARK    7  A    between atoms: C_14  and  C_15
REMARK    8  A    between atoms: C_14  and  C_16
REMARK    9  A    between atoms: C_14  and  C_17
REMARK   10  A    between atoms: C_17  and  N_18
REMARK                            x       y       z     vdW  Elec       q    Type
REMARK                         _______ _______ _______ _____ _____    ______ ____
ROOT
ATOM      1  C   UNL     1      48.899   9.851  12.944  0.00  0.00    +0.000 A 
ATOM      2  C   UNL     1      48.869  10.397  14.231  0.00  0.00    +0.000 A 
ATOM      3  C   UNL     1      49.992  10.306  15.054  0.00  0.00    +0.000 A 
ATOM      4  C   UNL     1      51.149   9.638  14.625  0.00  0.00    +0.000 A 
ATOM      5  C   UNL     1      51.197   9.150  13.317  0.00  0.00    +0.000 A 
ATOM      6  C   UNL     1      50.083   9.261  12.483  0.00  0.00    +0.000 A 
ENDROOT
BRANCH   1   7
ATOM      7  C   UNL     1      47.687   9.928  12.056  0.00  0.00    +0.000 C 
BRANCH   7  10
ATOM      8  C   UNL     1      45.861   8.323  12.409  0.00  0.00    +0.000 C 
ATOM      9  O   UNL     1      45.152   9.155  12.956  0.00  0.00    +0.000 OA
ATOM     10  N   UNL     1      47.098   8.626  11.878  0.00  0.00    +0.000 N 
ATOM     11  H   UNL     1      47.707   7.864  11.617  0.00  0.00    +0.000 HD
BRANCH   8  15
ATOM     12  C   UNL     1      43.187   4.338  11.105  0.00  0.00    +0.000 C 
ATOM     13  N   UNL     1      44.237   5.153  11.666  0.00  0.00    +0.000 N 
ATOM     14  C   UNL     1      44.362   6.507  11.514  0.00  0.00    +0.000 A 
ATOM     15  C   UNL     1      45.467   6.931  12.246  0.00  0.00    +0.000 A 
ATOM     16  C   UNL     1      46.051   5.754  12.829  0.00  0.00    +0.000 A 
ATOM     17  C   UNL     1      47.144   5.394  13.614  0.00  0.00    +0.000 A 
ATOM     18 CL   UNL     1      48.313   6.531  14.075  0.00  0.00    +0.000 Cl
ATOM     19  N   UNL     1      47.377   4.120  13.983  0.00  0.00    +0.000 NA
ATOM     20  C   UNL     1      46.506   3.202  13.556  0.00  0.00    +0.000 A 
ATOM     21  N   UNL     1      45.424   3.390  12.786  0.00  0.00    +0.000 NA
ATOM     22  C   UNL     1      45.252   4.680  12.453  0.00  0.00    +0.000 A 
ENDBRANCH   8  15
ENDBRANCH   7  10
ENDBRANCH   1   7
BRANCH   4  23
ATOM     23  C   UNL     1      52.302   9.386  15.577  0.00  0.00    +0.000 C 
BRANCH  23  24
ATOM     24  C   UNL     1      52.286   7.985  16.286  0.00  0.00    +0.000 C 
ATOM     25  C   UNL     1      53.378   7.118  15.624  0.00  0.00    +0.000 C 
ATOM     26  C   UNL     1      52.651   8.214  17.768  0.00  0.00    +0.000 C 
BRANCH  24  27
ATOM     27  C   UNL     1      50.900   7.261  16.083  0.00  0.00    +0.000 C 
BRANCH  27  28
ATOM     28  N   UNL     1      50.158   6.809  17.297  0.00  0.00    +0.000 NA
ATOM     29  C   UNL     1      48.923   7.576  17.506  0.00  0.00    +0.000 C 
ATOM     30  C   UNL     1      48.087   7.114  18.692  0.00  0.00    +0.000 C 
ATOM     31  C   UNL     1      47.765   5.640  18.594  0.00  0.00    +0.000 C 
ATOM     32  C   UNL     1      49.057   4.855  18.406  0.00  0.00    +0.000 C 
ATOM     33  C   UNL     1      49.849   5.366  17.195  0.00  0.00    +0.000 C 
ENDBRANCH  27  28
ENDBRANCH  24  27
ENDBRANCH  23  24
ENDBRANCH   4  23
TORSDOF 7
ENDMDL
MODEL 9
REMARK VINA RESULT:    -5.615      3.089      8.306
REMARK INTER + INTRA:          -9.226
REMARK INTER:                  -7.671
REMARK INTRA:                  -1.555
REMARK UNBOUND:                -1.313
REMARK  Name = 
REMARK  10 active torsions:
REMARK  status: ('A' for Active; 'I' for Inactive)
REMARK    1  A    between atoms: C_1  and  N_2
REMARK    2  A    between atoms: C_4  and  C_5
REMARK    3  A    between atoms: N_7  and  C_8
REMARK    4  A    between atoms: C_8  and  C_9
REMARK    5  A    between atoms: C_12  and  C_13
REMARK    6  A    between atoms: C_13  and  C_14
REMARK    7  A    between atoms: C_14  and  C_15
REMARK    8  A    between atoms: C_14  and  C_16
REMARK    9  A    between atoms: C_14  and  C_17
REMARK   10  A    between atoms: C_17  and  N_18
REMARK                            x       y       z     vdW  Elec       q    Type
REMARK                         _______ _______ _______ _____ _____    ______ ____
ROOT
ATOM      1  C   UNL     1      49.209   9.670  16.272  0.00  0.00    +0.000 A 
ATOM      2  C   UNL     1      48.028   9.523  17.005  0.00  0.00    +0.000 A 
ATOM      3  C   UNL     1      48.075   9.070  18.323  0.00  0.00    +0.000 A 
ATOM      4  C   UNL     1      49.295   8.720  18.923  0.00  0.00    +0.000 A 
ATOM      5  C   UNL     1      50.478   8.927  18.210  0.00  0.00    +0.000 A 
ATOM      6  C   UNL     1      50.435   9.403  16.898  0.00  0.00    +0.000 A 
ENDROOT
BRANCH   1   7
ATOM      7  C   UNL     1      49.168  10.140  14.844  0.00  0.00    +0.000 C 
BRANCH   7  10
ATOM      8  C   UNL     1      48.029   9.415  12.792  0.00  0.00    +0.000 C 
ATOM      9  O   UNL     1      49.023   9.588  12.103  0.00  0.00    +0.000 OA
ATOM     10  N   UNL     1      48.021   9.600  14.160  0.00  0.00    +0.000 N 
ATOM     11  H   UNL     1      47.132   9.627  14.634  0.00  0.00    +0.000 HD
BRANCH   8  15
ATOM     12  C   UNL     1      43.426   9.615  10.918  0.00  0.00    +0.000 C 
ATOM     13  N   UNL     1      44.674   9.093  11.419  0.00  0.00    +0.000 N 
ATOM     14  C   UNL     1      45.773   9.837  11.752  0.00  0.00    +0.000 A 
ATOM     15  C   UNL     1      46.752   8.979  12.243  0.00  0.00    +0.000 A 
ATOM     16  C   UNL     1      46.215   7.648  12.155  0.00  0.00    +0.000 A 
ATOM     17  C   UNL     1      46.602   6.333  12.406  0.00  0.00    +0.000 A 
ATOM     18 CL   UNL     1      48.177   5.956  12.903  0.00  0.00    +0.000 Cl
ATOM     19  N   UNL     1      45.779   5.289  12.193  0.00  0.00    +0.000 NA
ATOM     20  C   UNL     1      44.561   5.568  11.722  0.00  0.00    +0.000 A 
ATOM     21  N   UNL     1      44.053   6.772  11.418  0.00  0.00    +0.000 NA
ATOM     22  C   UNL     1      44.925   7.768  11.651  0.00  0.00    +0.000 A 
ENDBRANCH   8  15
ENDBRANCH   7  10
ENDBRANCH   1   7
BRANCH   4  23
ATOM     23  C   UNL     1      49.332   8.063  20.289  0.00  0.00    +0.000 C 
BRANCH  23  24
ATOM     24  C   UNL     1      48.929   6.546  20.311  0.00  0.00    +0.000 C 
ATOM     25  C   UNL     1      49.645   5.893  21.511  0.00  0.00    +0.000 C 
ATOM     26  C   UNL     1      47.403   6.477  20.533  0.00  0.00    +0.000 C 
BRANCH  24  27
ATOM     27  C   UNL     1      49.408   5.812  19.000  0.00  0.00    +0.000 C 
BRANCH  27  28
ATOM     28  N   UNL     1      48.396   5.050  18.211  0.00  0.00    +0.000 NA
ATOM     29  C   UNL     1      48.339   5.493  16.812  0.00  0.00    +0.000 C 
ATOM     30  C   UNL     1      47.372   4.703  15.939  0.00  0.00    +0.000 C 
ATOM     31  C   UNL     1      47.668   3.222  15.996  0.00  0.00    +0.000 C 
ATOM     32  C   UNL     1      47.695   2.771  17.450  0.00  0.00    +0.000 C 
ATOM     33  C   UNL     1      48.689   3.602  18.274  0.00  0.00    +0.000 C 
ENDBRANCH  27  28
ENDBRANCH  24  27
ENDBRANCH  23  24
ENDBRANCH   4  23
TORSDOF 7
ENDMDL
