MODEL 1
REMARK VINA RESULT:    -8.848      0.000      0.000
REMARK INTER + INTRA:         -12.930
REMARK INTER:                 -11.951
REMARK INTRA:                  -0.979
REMARK UNBOUND:                -0.979
REMARK  Name = 
REMARK  7 active torsions:
REMARK  status: ('A' for Active; 'I' for Inactive)
REMARK    1  A    between atoms: C_1  and  C_2
REMARK    2  A    between atoms: C_5  and  C_6
REMARK    3  A    between atoms: C_6  and  N_7
REMARK    4  A    between atoms: N_7  and  C_8
REMARK    5  A    between atoms: C_11  and  C_12
REMARK    6  A    between atoms: C_12  and  N_13
REMARK    7  A    between atoms: C_14  and  C_16
REMARK                            x       y       z     vdW  Elec       q    Type
REMARK                         _______ _______ _______ _____ _____    ______ ____
ROOT
ATOM      1  C   UNL     1      44.865   4.828  11.016  0.00  0.00    +0.000 C 
ATOM      2  C   UNL     1      43.980   5.717  11.905  0.00  0.00    +0.000 C 
ATOM      3  C   UNL     1      44.796   6.609  12.839  0.00  0.00    +0.000 C 
ATOM      4  C   UNL     1      45.820   7.462  12.072  0.00  0.00    +0.000 C 
ATOM      5  C   UNL     1      46.704   6.565  11.199  0.00  0.00    +0.000 C 
ATOM      6  C   UNL     1      45.884   5.692  10.255  0.00  0.00    +0.000 C 
ENDROOT
BRANCH   1   7
ATOM      7  N   UNL     1      43.972   4.069  10.129  0.00  0.00    +0.000 NA
ATOM      8  H   UNL     1      43.038   4.041  10.536  0.00  0.00    +0.000 HD
BRANCH   7   9
ATOM      9  C   UNL     1      44.407   2.692   9.895  0.00  0.00    +0.000 C 
BRANCH   9  14
ATOM     10  C   UNL     1      47.872   2.273   5.220  0.00  0.00    +0.000 C 
ATOM     11  C   UNL     1      46.992   2.357   6.430  0.00  0.00    +0.000 A 
ATOM     12  C   UNL     1      46.900   1.296   7.337  0.00  0.00    +0.000 A 
ATOM     13  C   UNL     1      46.080   1.394   8.459  0.00  0.00    +0.000 A 
ATOM     14  C   UNL     1      45.346   2.562   8.717  0.00  0.00    +0.000 A 
ATOM     15  C   UNL     1      45.422   3.611   7.789  0.00  0.00    +0.000 A 
ATOM     16  C   UNL     1      46.236   3.513   6.661  0.00  0.00    +0.000 A 
ENDBRANCH   9  14
ENDBRANCH   7   9
ENDBRANCH   1   7
BRANCH   4  17
ATOM     17  C   UNL     1      46.713   8.287  13.015  0.00  0.00    +0.000 C 
BRANCH  17  18
ATOM     18  N   UNL     1      47.135   7.556  14.188  0.00  0.00    +0.000 N 
ATOM     19  C   UNL     1      48.438   7.160  14.363  0.00  0.00    +0.000 C 
ATOM     20  O   UNL     1      49.312   7.414  13.538  0.00  0.00    +0.000 OA
ATOM     21  H   UNL     1      46.415   7.197  14.810  0.00  0.00    +0.000 HD
BRANCH  19  22
ATOM     22  C   UNL     1      48.756   6.462  15.611  0.00  0.00    +0.000 A 
ATOM     23  C   UNL     1      49.731   6.985  16.449  0.00  0.00    +0.000 A 
ATOM     24  S   UNL     1      50.002   6.055  17.850  0.00  0.00    +0.000 S 
ATOM     25  C   UNL     1      48.848   4.900  17.369  0.00  0.00    +0.000 A 
ATOM     26  N   UNL     1      48.615   3.792  18.121  0.00  0.00    +0.000 NA
ATOM     27  C   UNL     1      47.738   2.985  17.626  0.00  0.00    +0.000 A 
ATOM     28  N   UNL     1      47.059   3.195  16.453  0.00  0.00    +0.000 N 
ATOM     29  C   UNL     1      47.225   4.324  15.684  0.00  0.00    +0.000 A 
ATOM     30  O   UNL     1      46.535   4.526  14.690  0.00  0.00    +0.000 OA
ATOM     31  C   UNL     1      48.234   5.241  16.175  0.00  0.00    +0.000 A 
ATOM     32  H   UNL     1      46.363   2.535  16.137  0.00  0.00    +0.000 HD
ENDBRANCH  19  22
ENDBRANCH  17  18
ENDBRANCH   4  17
TORSDOF 6
ENDMDL
MODEL 2
REMARK VINA RESULT:    -8.418      1.827      2.438
REMARK INTER + INTRA:         -12.349
REMARK INTER:                 -11.262
REMARK INTRA:                  -1.087
REMARK UNBOUND:                -0.979
REMARK  Name = 
REMARK  7 active torsions:
REMARK  status: ('A' for Active; 'I' for Inactive)
REMARK    1  A    between atoms: C_1  and  C_2
REMARK    2  A    between atoms: C_5  and  C_6
REMARK    3  A    between atoms: C_6  and  N_7
REMARK    4  A    between atoms: N_7  and  C_8
REMARK    5  A    between atoms: C_11  and  C_12
REMARK    6  A    between atoms: C_12  and  N_13
REMARK    7  A    between atoms: C_14  and  C_16
REMARK                            x       y       z     vdW  Elec       q    Type
REMARK                         _______ _______ _______ _____ _____    ______ ____
ROOT
ATOM      1  C   UNL     1      44.650   4.908  12.468  0.00  0.00    +0.000 C 
ATOM      2  C   UNL     1      45.035   6.179  11.693  0.00  0.00    +0.000 C 
ATOM      3  C   UNL     1      46.094   7.009  12.417  0.00  0.00    +0.000 C 
ATOM      4  C   UNL     1      47.344   6.181  12.753  0.00  0.00    +0.000 C 
ATOM      5  C   UNL     1      46.950   4.924  13.536  0.00  0.00    +0.000 C 
ATOM      6  C   UNL     1      45.908   4.089  12.798  0.00  0.00    +0.000 C 
ENDROOT
BRANCH   1   7
ATOM      7  N   UNL     1      43.678   4.172  11.647  0.00  0.00    +0.000 NA
ATOM      8  H   UNL     1      43.909   3.179  11.663  0.00  0.00    +0.000 HD
BRANCH   7   9
ATOM      9  C   UNL     1      43.638   4.606  10.251  0.00  0.00    +0.000 C 
BRANCH   9  14
ATOM     10  C   UNL     1      47.260   1.410   6.980  0.00  0.00    +0.000 C 
ATOM     11  C   UNL     1      46.336   2.253   7.806  0.00  0.00    +0.000 A 
ATOM     12  C   UNL     1      46.285   3.642   7.649  0.00  0.00    +0.000 A 
ATOM     13  C   UNL     1      45.416   4.410   8.423  0.00  0.00    +0.000 A 
ATOM     14  C   UNL     1      44.560   3.808   9.358  0.00  0.00    +0.000 A 
ATOM     15  C   UNL     1      44.636   2.418   9.528  0.00  0.00    +0.000 A 
ATOM     16  C   UNL     1      45.510   1.648   8.761  0.00  0.00    +0.000 A 
ENDBRANCH   9  14
ENDBRANCH   7   9
ENDBRANCH   1   7
BRANCH   4  17
ATOM     17  C   UNL     1      48.372   6.984  13.571  0.00  0.00    +0.000 C 
BRANCH  17  18
ATOM     18  N   UNL     1      48.112   6.963  14.992  0.00  0.00    +0.000 N 
ATOM     19  C   UNL     1      49.106   6.704  15.904  0.00  0.00    +0.000 C 
ATOM     20  O   UNL     1      50.265   6.487  15.560  0.00  0.00    +0.000 OA
ATOM     21  H   UNL     1      47.144   6.984  15.300  0.00  0.00    +0.000 HD
BRANCH  19  22
ATOM     22  C   UNL     1      48.733   6.752  17.320  0.00  0.00    +0.000 A 
ATOM     23  C   UNL     1      48.421   7.976  17.896  0.00  0.00    +0.000 A 
ATOM     24  S   UNL     1      48.026   7.873  19.550  0.00  0.00    +0.000 S 
ATOM     25  C   UNL     1      48.293   6.193  19.563  0.00  0.00    +0.000 A 
ATOM     26  N   UNL     1      48.168   5.476  20.712  0.00  0.00    +0.000 NA
ATOM     27  C   UNL     1      48.427   4.218  20.586  0.00  0.00    +0.000 A 
ATOM     28  N   UNL     1      48.785   3.608  19.412  0.00  0.00    +0.000 N 
ATOM     29  C   UNL     1      48.877   4.282  18.216  0.00  0.00    +0.000 A 
ATOM     30  O   UNL     1      49.108   3.691  17.166  0.00  0.00    +0.000 OA
ATOM     31  C   UNL     1      48.639   5.709  18.312  0.00  0.00    +0.000 A 
ATOM     32  H   UNL     1      48.947   2.612  19.379  0.00  0.00    +0.000 HD
ENDBRANCH  19  22
ENDBRANCH  17  18
ENDBRANCH   4  17
TORSDOF 6
ENDMDL
MODEL 3
REMARK VINA RESULT:    -8.386      2.013      2.682
REMARK INTER + INTRA:         -12.306
REMARK INTER:                 -11.344
REMARK INTRA:                  -0.962
REMARK UNBOUND:                -0.979
REMARK  Name = 
REMARK  7 active torsions:
REMARK  status: ('A' for Active; 'I' for Inactive)
REMARK    1  A    between atoms: C_1  and  C_2
REMARK    2  A    between atoms: C_5  and  C_6
REMARK    3  A    between atoms: C_6  and  N_7
REMARK    4  A    between atoms: N_7  and  C_8
REMARK    5  A    between atoms: C_11  and  C_12
REMARK    6  A    between atoms: C_12  and  N_13
REMARK    7  A    between atoms: C_14  and  C_16
REMARK                            x       y       z     vdW  Elec       q    Type
REMARK                         _______ _______ _______ _____ _____    ______ ____
ROOT
ATOM      1  C   UNL     1      44.378   4.904  11.594  0.00  0.00    +0.000 C 
ATOM      2  C   UNL     1      45.036   6.123  10.928  0.00  0.00    +0.000 C 
ATOM      3  C   UNL     1      45.879   6.941  11.905  0.00  0.00    +0.000 C 
ATOM      4  C   UNL     1      46.934   6.080  12.617  0.00  0.00    +0.000 C 
ATOM      5  C   UNL     1      46.266   4.874  13.288  0.00  0.00    +0.000 C 
ATOM      6  C   UNL     1      45.443   4.051  12.303  0.00  0.00    +0.000 C 
ENDROOT
BRANCH   1   7
ATOM      7  N   UNL     1      43.652   4.172  10.548  0.00  0.00    +0.000 NA
ATOM      8  H   UNL     1      42.672   4.085  10.817  0.00  0.00    +0.000 HD
BRANCH   7   9
ATOM      9  C   UNL     1      44.174   2.829  10.298  0.00  0.00    +0.000 C 
BRANCH   9  14
ATOM     10  C   UNL     1      47.694   2.435   5.662  0.00  0.00    +0.000 C 
ATOM     11  C   UNL     1      46.784   2.561   6.845  0.00  0.00    +0.000 A 
ATOM     12  C   UNL     1      46.171   3.778   7.164  0.00  0.00    +0.000 A 
ATOM     13  C   UNL     1      45.324   3.876   8.266  0.00  0.00    +0.000 A 
ATOM     14  C   UNL     1      45.048   2.756   9.066  0.00  0.00    +0.000 A 
ATOM     15  C   UNL     1      45.687   1.546   8.756  0.00  0.00    +0.000 A 
ATOM     16  C   UNL     1      46.542   1.448   7.658  0.00  0.00    +0.000 A 
ENDBRANCH   9  14
ENDBRANCH   7   9
ENDBRANCH   1   7
BRANCH   4  17
ATOM     17  C   UNL     1      47.719   6.876  13.675  0.00  0.00    +0.000 C 
BRANCH  17  18
ATOM     18  N   UNL     1      47.699   6.262  14.983  0.00  0.00    +0.000 N 
ATOM     19  C   UNL     1      48.829   6.179  15.760  0.00  0.00    +0.000 C 
ATOM     20  O   UNL     1      49.910   6.629  15.387  0.00  0.00    +0.000 OA
ATOM     21  H   UNL     1      46.867   5.745  15.254  0.00  0.00    +0.000 HD
BRANCH  19  22
ATOM     22  C   UNL     1      48.678   5.573  17.084  0.00  0.00    +0.000 A 
ATOM     23  C   UNL     1      48.872   4.206  17.228  0.00  0.00    +0.000 A 
ATOM     24  S   UNL     1      48.643   3.645  18.821  0.00  0.00    +0.000 S 
ATOM     25  C   UNL     1      48.242   5.206  19.368  0.00  0.00    +0.000 A 
ATOM     26  N   UNL     1      47.888   5.422  20.663  0.00  0.00    +0.000 NA
ATOM     27  C   UNL     1      47.581   6.645  20.935  0.00  0.00    +0.000 A 
ATOM     28  N   UNL     1      47.611   7.677  20.033  0.00  0.00    +0.000 N 
ATOM     29  C   UNL     1      48.009   7.517  18.726  0.00  0.00    +0.000 A 
ATOM     30  O   UNL     1      48.115   8.477  17.968  0.00  0.00    +0.000 OA
ATOM     31  C   UNL     1      48.321   6.150  18.358  0.00  0.00    +0.000 A 
ATOM     32  H   UNL     1      47.385   8.618  20.321  0.00  0.00    +0.000 HD
ENDBRANCH  19  22
ENDBRANCH  17  18
ENDBRANCH   4  17
TORSDOF 6
ENDMDL
MODEL 4
REMARK VINA RESULT:    -7.391      3.073      3.550
REMARK INTER + INTRA:         -10.962
REMARK INTER:                 -10.121
REMARK INTRA:                  -0.841
REMARK UNBOUND:                -0.979
REMARK  Name = 
REMARK  7 active torsions:
REMARK  status: ('A' for Active; 'I' for Inactive)
REMARK    1  A    between atoms: C_1  and  C_2
REMARK    2  A    between atoms: C_5  and  C_6
REMARK    3  A    between atoms: C_6  and  N_7
REMARK    4  A    between atoms: N_7  and  C_8
REMARK    5  A    between atoms: C_11  and  C_12
REMARK    6  A    between atoms: C_12  and  N_13
REMARK    7  A    between atoms: C_14  and  C_16
REMARK                            x       y       z     vdW  Elec       q    Type
REMARK                         _______ _______ _______ _____ _____    ______ ____
ROOT
ATOM      1  C   UNL     1      45.542   4.393  11.783  0.00  0.00    +0.000 C 
ATOM      2  C   UNL     1      45.709   4.220  13.301  0.00  0.00    +0.000 C 
ATOM      3  C   UNL     1      46.928   4.964  13.846  0.00  0.00    +0.000 C 
ATOM      4  C   UNL     1      46.909   6.454  13.470  0.00  0.00    +0.000 C 
ATOM      5  C   UNL     1      46.755   6.613  11.953  0.00  0.00    +0.000 C 
ATOM      6  C   UNL     1      45.526   5.886  11.420  0.00  0.00    +0.000 C 
ENDROOT
BRANCH   1   7
ATOM      7  N   UNL     1      44.313   3.688  11.394  0.00  0.00    +0.000 NA
ATOM      8  H   UNL     1      44.428   2.690  11.568  0.00  0.00    +0.000 HD
BRANCH   7   9
ATOM      9  C   UNL     1      43.953   3.865   9.988  0.00  0.00    +0.000 C 
BRANCH   9  14
ATOM     10  C   UNL     1      47.933   1.973   6.165  0.00  0.00    +0.000 C 
ATOM     11  C   UNL     1      46.910   2.434   7.158  0.00  0.00    +0.000 A 
ATOM     12  C   UNL     1      46.285   1.534   8.029  0.00  0.00    +0.000 A 
ATOM     13  C   UNL     1      45.338   1.982   8.948  0.00  0.00    +0.000 A 
ATOM     14  C   UNL     1      45.008   3.343   9.038  0.00  0.00    +0.000 A 
ATOM     15  C   UNL     1      45.619   4.235   8.145  0.00  0.00    +0.000 A 
ATOM     16  C   UNL     1      46.560   3.788   7.218  0.00  0.00    +0.000 A 
ENDBRANCH   9  14
ENDBRANCH   7   9
ENDBRANCH   1   7
BRANCH   4  17
ATOM     17  C   UNL     1      48.183   7.186  13.928  0.00  0.00    +0.000 C 
BRANCH  17  18
ATOM     18  N   UNL     1      47.943   8.145  14.981  0.00  0.00    +0.000 N 
ATOM     19  C   UNL     1      48.726   8.192  16.109  0.00  0.00    +0.000 C 
ATOM     20  O   UNL     1      49.674   7.428  16.275  0.00  0.00    +0.000 OA
ATOM     21  H   UNL     1      47.082   8.683  14.948  0.00  0.00    +0.000 HD
BRANCH  19  22
ATOM     22  C   UNL     1      48.414   9.235  17.089  0.00  0.00    +0.000 A 
ATOM     23  C   UNL     1      48.587  10.566  16.737  0.00  0.00    +0.000 A 
ATOM     24  S   UNL     1      48.202  11.660  17.985  0.00  0.00    +0.000 S 
ATOM     25  C   UNL     1      47.822  10.390  19.052  0.00  0.00    +0.000 A 
ATOM     26  N   UNL     1      47.451  10.644  20.335  0.00  0.00    +0.000 NA
ATOM     27  C   UNL     1      47.221   9.590  21.043  0.00  0.00    +0.000 A 
ATOM     28  N   UNL     1      47.313   8.303  20.579  0.00  0.00    +0.000 N 
ATOM     29  C   UNL     1      47.636   7.998  19.277  0.00  0.00    +0.000 A 
ATOM     30  O   UNL     1      47.618   6.841  18.869  0.00  0.00    +0.000 OA
ATOM     31  C   UNL     1      47.949   9.148  18.452  0.00  0.00    +0.000 A 
ATOM     32  H   UNL     1      47.090   7.523  21.181  0.00  0.00    +0.000 HD
ENDBRANCH  19  22
ENDBRANCH  17  18
ENDBRANCH   4  17
TORSDOF 6
ENDMDL
MODEL 5
REMARK VINA RESULT:    -6.735      3.380      8.144
REMARK INTER + INTRA:         -10.076
REMARK INTER:                  -8.886
REMARK INTRA:                  -1.190
REMARK UNBOUND:                -0.979
REMARK  Name = 
REMARK  7 active torsions:
REMARK  status: ('A' for Active; 'I' for Inactive)
REMARK    1  A    between atoms: C_1  and  C_2
REMARK    2  A    between atoms: C_5  and  C_6
REMARK    3  A    between atoms: C_6  and  N_7
REMARK    4  A    between atoms: N_7  and  C_8
REMARK    5  A    between atoms: C_11  and  C_12
REMARK    6  A    between atoms: C_12  and  N_13
REMARK    7  A    between atoms: C_14  and  C_16
REMARK                            x       y       z     vdW  Elec       q    Type
REMARK                         _______ _______ _______ _____ _____    ______ ____
ROOT
ATOM      1  C   UNL     1      50.294   8.257  16.295  0.00  0.00    +0.000 C 
ATOM      2  C   UNL     1      48.811   7.870  16.176  0.00  0.00    +0.000 C 
ATOM      3  C   UNL     1      48.235   8.176  14.794  0.00  0.00    +0.000 C 
ATOM      4  C   UNL     1      49.055   7.522  13.670  0.00  0.00    +0.000 C 
ATOM      5  C   UNL     1      50.529   7.924  13.792  0.00  0.00    +0.000 C 
ATOM      6  C   UNL     1      51.104   7.598  15.166  0.00  0.00    +0.000 C 
ENDROOT
BRANCH   1   7
ATOM      7  N   UNL     1      50.743   7.861  17.637  0.00  0.00    +0.000 NA
ATOM      8  H   UNL     1      51.653   7.408  17.567  0.00  0.00    +0.000 HD
BRANCH   7   9
ATOM      9  C   UNL     1      49.830   6.943  18.317  0.00  0.00    +0.000 C 
BRANCH   9  14
ATOM     10  C   UNL     1      51.342   1.398  17.319  0.00  0.00    +0.000 C 
ATOM     11  C   UNL     1      50.928   2.815  17.576  0.00  0.00    +0.000 A 
ATOM     12  C   UNL     1      49.579   3.185  17.591  0.00  0.00    +0.000 A 
ATOM     13  C   UNL     1      49.212   4.507  17.836  0.00  0.00    +0.000 A 
ATOM     14  C   UNL     1      50.181   5.489  18.094  0.00  0.00    +0.000 A 
ATOM     15  C   UNL     1      51.532   5.115  18.051  0.00  0.00    +0.000 A 
ATOM     16  C   UNL     1      51.903   3.795  17.797  0.00  0.00    +0.000 A 
ENDBRANCH   9  14
ENDBRANCH   7   9
ENDBRANCH   1   7
BRANCH   4  17
ATOM     17  C   UNL     1      48.540   7.909  12.272  0.00  0.00    +0.000 C 
BRANCH  17  18
ATOM     18  N   UNL     1      47.799   6.852  11.624  0.00  0.00    +0.000 N 
ATOM     19  C   UNL     1      46.430   6.772  11.708  0.00  0.00    +0.000 C 
ATOM     20  O   UNL     1      45.767   7.598  12.331  0.00  0.00    +0.000 OA
ATOM     21  H   UNL     1      48.323   6.072  11.235  0.00  0.00    +0.000 HD
BRANCH  19  22
ATOM     22  C   UNL     1      45.785   5.681  10.975  0.00  0.00    +0.000 A 
ATOM     23  C   UNL     1      45.854   5.665   9.589  0.00  0.00    +0.000 A 
ATOM     24  S   UNL     1      45.042   4.347   8.877  0.00  0.00    +0.000 S 
ATOM     25  C   UNL     1      44.539   3.769  10.397  0.00  0.00    +0.000 A 
ATOM     26  N   UNL     1      43.752   2.666  10.498  0.00  0.00    +0.000 NA
ATOM     27  C   UNL     1      43.421   2.355  11.706  0.00  0.00    +0.000 A 
ATOM     28  N   UNL     1      43.819   3.040  12.825  0.00  0.00    +0.000 N 
ATOM     29  C   UNL     1      44.654   4.132  12.776  0.00  0.00    +0.000 A 
ATOM     30  O   UNL     1      45.068   4.666  13.801  0.00  0.00    +0.000 OA
ATOM     31  C   UNL     1      45.019   4.549  11.437  0.00  0.00    +0.000 A 
ATOM     32  H   UNL     1      43.546   2.725  13.745  0.00  0.00    +0.000 HD
ENDBRANCH  19  22
ENDBRANCH  17  18
ENDBRANCH   4  17
TORSDOF 6
ENDMDL
MODEL 6
REMARK VINA RESULT:    -6.672      3.179      8.239
REMARK INTER + INTRA:          -9.992
REMARK INTER:                  -9.035
REMARK INTRA:                  -0.956
REMARK UNBOUND:                -0.979
REMARK  Name = 
REMARK  7 active torsions:
REMARK  status: ('A' for Active; 'I' for Inactive)
REMARK    1  A    between atoms: C_1  and  C_2
REMARK    2  A    between atoms: C_5  and  C_6
REMARK    3  A    between atoms: C_6  and  N_7
REMARK    4  A    between atoms: N_7  and  C_8
REMARK    5  A    between atoms: C_11  and  C_12
REMARK    6  A    between atoms: C_12  and  N_13
REMARK    7  A    between atoms: C_14  and  C_16
REMARK                            x       y       z     vdW  Elec       q    Type
REMARK                         _______ _______ _______ _____ _____    ______ ____
ROOT
ATOM      1  C   UNL     1      49.750   7.561  15.695  0.00  0.00    +0.000 C 
ATOM      2  C   UNL     1      50.658   7.803  14.478  0.00  0.00    +0.000 C 
ATOM      3  C   UNL     1      49.920   7.626  13.151  0.00  0.00    +0.000 C 
ATOM      4  C   UNL     1      48.662   8.505  13.070  0.00  0.00    +0.000 C 
ATOM      5  C   UNL     1      47.759   8.246  14.281  0.00  0.00    +0.000 C 
ATOM      6  C   UNL     1      48.496   8.445  15.602  0.00  0.00    +0.000 C 
ENDROOT
BRANCH   1   7
ATOM      7  N   UNL     1      50.553   7.819  16.898  0.00  0.00    +0.000 NA
ATOM      8  H   UNL     1      51.536   7.652  16.688  0.00  0.00    +0.000 HD
BRANCH   7   9
ATOM      9  C   UNL     1      50.185   6.983  18.041  0.00  0.00    +0.000 C 
BRANCH   9  14
ATOM     10  C   UNL     1      51.352   1.303  17.405  0.00  0.00    +0.000 C 
ATOM     11  C   UNL     1      51.078   2.767  17.568  0.00  0.00    +0.000 A 
ATOM     12  C   UNL     1      52.119   3.683  17.760  0.00  0.00    +0.000 A 
ATOM     13  C   UNL     1      51.846   5.042  17.906  0.00  0.00    +0.000 A 
ATOM     14  C   UNL     1      50.529   5.525  17.840  0.00  0.00    +0.000 A 
ATOM     15  C   UNL     1      49.491   4.597  17.674  0.00  0.00    +0.000 A 
ATOM     16  C   UNL     1      49.760   3.236  17.537  0.00  0.00    +0.000 A 
ENDBRANCH   9  14
ENDBRANCH   7   9
ENDBRANCH   1   7
BRANCH   4  17
ATOM     17  C   UNL     1      47.860   8.256  11.780  0.00  0.00    +0.000 C 
BRANCH  17  18
ATOM     18  N   UNL     1      47.039   7.069  11.838  0.00  0.00    +0.000 N 
ATOM     19  C   UNL     1      45.677   7.123  11.666  0.00  0.00    +0.000 C 
ATOM     20  O   UNL     1      45.090   8.180  11.447  0.00  0.00    +0.000 OA
ATOM     21  H   UNL     1      47.468   6.209  12.169  0.00  0.00    +0.000 HD
BRANCH  19  22
ATOM     22  C   UNL     1      44.955   5.849  11.703  0.00  0.00    +0.000 A 
ATOM     23  C   UNL     1      44.233   5.515  12.840  0.00  0.00    +0.000 A 
ATOM     24  S   UNL     1      43.465   3.997  12.742  0.00  0.00    +0.000 S 
ATOM     25  C   UNL     1      44.099   3.719  11.188  0.00  0.00    +0.000 A 
ATOM     26  N   UNL     1      43.853   2.553  10.533  0.00  0.00    +0.000 NA
ATOM     27  C   UNL     1      44.418   2.461   9.377  0.00  0.00    +0.000 A 
ATOM     28  N   UNL     1      45.194   3.437   8.807  0.00  0.00    +0.000 N 
ATOM     29  C   UNL     1      45.430   4.651   9.409  0.00  0.00    +0.000 A 
ATOM     30  O   UNL     1      46.051   5.540   8.834  0.00  0.00    +0.000 OA
ATOM     31  C   UNL     1      44.854   4.787  10.732  0.00  0.00    +0.000 A 
ATOM     32  H   UNL     1      45.583   3.311   7.884  0.00  0.00    +0.000 HD
ENDBRANCH  19  22
ENDBRANCH  17  18
ENDBRANCH   4  17
TORSDOF 6
ENDMDL
MODEL 7
REMARK VINA RESULT:    -6.609      4.680      7.209
REMARK INTER + INTRA:          -9.907
REMARK INTER:                  -8.897
REMARK INTRA:                  -1.010
REMARK UNBOUND:                -0.979
REMARK  Name = 
REMARK  7 active torsions:
REMARK  status: ('A' for Active; 'I' for Inactive)
REMARK    1  A    between atoms: C_1  and  C_2
REMARK    2  A    between atoms: C_5  and  C_6
REMARK    3  A    between atoms: C_6  and  N_7
REMARK    4  A    between atoms: N_7  and  C_8
REMARK    5  A    between atoms: C_11  and  C_12
REMARK    6  A    between atoms: C_12  and  N_13
REMARK    7  A    between atoms: C_14  and  C_16
REMARK                            x       y       z     vdW  Elec       q    Type
REMARK                         _______ _______ _______ _____ _____    ______ ____
ROOT
ATOM      1  C   UNL     1      50.940   8.950  11.498  0.00  0.00    +0.000 C 
ATOM      2  C   UNL     1      50.548   9.502  12.878  0.00  0.00    +0.000 C 
ATOM      3  C   UNL     1      49.037   9.497  13.105  0.00  0.00    +0.000 C 
ATOM      4  C   UNL     1      48.427   8.103  12.887  0.00  0.00    +0.000 C 
ATOM      5  C   UNL     1      48.813   7.569  11.504  0.00  0.00    +0.000 C 
ATOM      6  C   UNL     1      50.323   7.557  11.292  0.00  0.00    +0.000 C 
ENDROOT
BRANCH   1   7
ATOM      7  N   UNL     1      52.408   8.951  11.426  0.00  0.00    +0.000 NA
ATOM      8  H   UNL     1      52.774   9.668  12.051  0.00  0.00    +0.000 HD
BRANCH   7   9
ATOM      9  C   UNL     1      52.931   9.206  10.085  0.00  0.00    +0.000 C 
BRANCH   9  14
ATOM     10  C   UNL     1      53.504   4.357   6.891  0.00  0.00    +0.000 C 
ATOM     11  C   UNL     1      53.370   5.590   7.732  0.00  0.00    +0.000 A 
ATOM     12  C   UNL     1      53.737   5.593   9.082  0.00  0.00    +0.000 A 
ATOM     13  C   UNL     1      53.609   6.750   9.848  0.00  0.00    +0.000 A 
ATOM     14  C   UNL     1      53.132   7.942   9.280  0.00  0.00    +0.000 A 
ATOM     15  C   UNL     1      52.741   7.924   7.933  0.00  0.00    +0.000 A 
ATOM     16  C   UNL     1      52.860   6.765   7.167  0.00  0.00    +0.000 A 
ENDBRANCH   9  14
ENDBRANCH   7   9
ENDBRANCH   1   7
BRANCH   4  17
ATOM     17  C   UNL     1      46.893   8.113  13.014  0.00  0.00    +0.000 C 
BRANCH  17  18
ATOM     18  N   UNL     1      46.287   6.835  12.722  0.00  0.00    +0.000 N 
ATOM     19  C   UNL     1      45.252   6.713  11.827  0.00  0.00    +0.000 C 
ATOM     20  O   UNL     1      44.795   7.681  11.224  0.00  0.00    +0.000 OA
ATOM     21  H   UNL     1      46.533   6.045  13.312  0.00  0.00    +0.000 HD
BRANCH  19  22
ATOM     22  C   UNL     1      44.747   5.361  11.580  0.00  0.00    +0.000 A 
ATOM     23  C   UNL     1      43.987   4.734  12.558  0.00  0.00    +0.000 A 
ATOM     24  S   UNL     1      43.488   3.161  12.135  0.00  0.00    +0.000 S 
ATOM     25  C   UNL     1      44.301   3.249  10.642  0.00  0.00    +0.000 A 
ATOM     26  N   UNL     1      44.310   2.189   9.790  0.00  0.00    +0.000 NA
ATOM     27  C   UNL     1      44.987   2.381   8.708  0.00  0.00    +0.000 A 
ATOM     28  N   UNL     1      45.643   3.543   8.393  0.00  0.00    +0.000 N 
ATOM     29  C   UNL     1      45.621   4.657   9.200  0.00  0.00    +0.000 A 
ATOM     30  O   UNL     1      46.140   5.712   8.847  0.00  0.00    +0.000 OA
ATOM     31  C   UNL     1      44.911   4.478  10.451  0.00  0.00    +0.000 A 
ATOM     32  H   UNL     1      46.132   3.635   7.514  0.00  0.00    +0.000 HD
ENDBRANCH  19  22
ENDBRANCH  17  18
ENDBRANCH   4  17
TORSDOF 6
ENDMDL
MODEL 8
REMARK VINA RESULT:    -6.473      4.038      8.864
REMARK INTER + INTRA:          -9.723
REMARK INTER:                  -8.749
REMARK INTRA:                  -0.974
REMARK UNBOUND:                -0.979
REMARK  Name = 
REMARK  7 active torsions:
REMARK  status: ('A' for Active; 'I' for Inactive)
REMARK    1  A    between atoms: C_1  and  C_2
REMARK    2  A    between atoms: C_5  and  C_6
REMARK    3  A    between atoms: C_6  and  N_7
REMARK    4  A    between atoms: N_7  and  C_8
REMARK    5  A    between atoms: C_11  and  C_12
REMARK    6  A    between atoms: C_12  and  N_13
REMARK    7  A    between atoms: C_14  and  C_16
REMARK                            x       y       z     vdW  Elec       q    Type
REMARK                         _______ _______ _______ _____ _____    ______ ____
ROOT
ATOM      1  C   UNL     1      50.803   5.044  18.665  0.00  0.00    +0.000 C 
ATOM      2  C   UNL     1      49.548   4.584  17.905  0.00  0.00    +0.000 C 
ATOM      3  C   UNL     1      48.875   5.723  17.140  0.00  0.00    +0.000 C 
ATOM      4  C   UNL     1      49.852   6.434  16.189  0.00  0.00    +0.000 C 
ATOM      5  C   UNL     1      51.092   6.899  16.959  0.00  0.00    +0.000 C 
ATOM      6  C   UNL     1      51.770   5.754  17.704  0.00  0.00    +0.000 C 
ENDROOT
BRANCH   1   7
ATOM      7  N   UNL     1      51.387   3.858  19.305  0.00  0.00    +0.000 NA
ATOM      8  H   UNL     1      51.079   3.814  20.276  0.00  0.00    +0.000 HD
BRANCH   7   9
ATOM      9  C   UNL     1      52.849   3.842  19.291  0.00  0.00    +0.000 C 
BRANCH   9  14
ATOM     10  C   UNL     1      54.848  -1.301  17.395  0.00  0.00    +0.000 C 
ATOM     11  C   UNL     1      54.356   0.022  17.898  0.00  0.00    +0.000 A 
ATOM     12  C   UNL     1      54.983   0.672  18.967  0.00  0.00    +0.000 A 
ATOM     13  C   UNL     1      54.514   1.904  19.419  0.00  0.00    +0.000 A 
ATOM     14  C   UNL     1      53.420   2.530  18.802  0.00  0.00    +0.000 A 
ATOM     15  C   UNL     1      52.781   1.860  17.748  0.00  0.00    +0.000 A 
ATOM     16  C   UNL     1      53.243   0.623  17.300  0.00  0.00    +0.000 A 
ENDBRANCH   9  14
ENDBRANCH   7   9
ENDBRANCH   1   7
BRANCH   4  17
ATOM     17  C   UNL     1      49.207   7.644  15.491  0.00  0.00    +0.000 C 
BRANCH  17  18
ATOM     18  N   UNL     1      48.039   7.301  14.714  0.00  0.00    +0.000 N 
ATOM     19  C   UNL     1      48.141   6.776  13.449  0.00  0.00    +0.000 C 
ATOM     20  O   UNL     1      49.229   6.564  12.918  0.00  0.00    +0.000 OA
ATOM     21  H   UNL     1      47.132   7.605  15.057  0.00  0.00    +0.000 HD
BRANCH  19  22
ATOM     22  C   UNL     1      46.889   6.426  12.774  0.00  0.00    +0.000 A 
ATOM     23  C   UNL     1      46.172   7.421  12.123  0.00  0.00    +0.000 A 
ATOM     24  S   UNL     1      44.731   6.867  11.404  0.00  0.00    +0.000 S 
ATOM     25  C   UNL     1      44.997   5.283  11.967  0.00  0.00    +0.000 A 
ATOM     26  N   UNL     1      44.092   4.297  11.728  0.00  0.00    +0.000 NA
ATOM     27  C   UNL     1      44.404   3.152  12.236  0.00  0.00    +0.000 A 
ATOM     28  N   UNL     1      45.549   2.900  12.948  0.00  0.00    +0.000 N 
ATOM     29  C   UNL     1      46.516   3.852  13.172  0.00  0.00    +0.000 A 
ATOM     30  O   UNL     1      47.572   3.572  13.731  0.00  0.00    +0.000 OA
ATOM     31  C   UNL     1      46.191   5.169  12.660  0.00  0.00    +0.000 A 
ATOM     32  H   UNL     1      45.745   1.971  13.293  0.00  0.00    +0.000 HD
ENDBRANCH  19  22
ENDBRANCH  17  18
ENDBRANCH   4  17
TORSDOF 6
ENDMDL
MODEL 9
REMARK VINA RESULT:    -6.344      4.532      6.279
REMARK INTER + INTRA:          -9.549
REMARK INTER:                  -8.552
REMARK INTRA:                  -0.996
REMARK UNBOUND:                -0.979
REMARK  Name = 
REMARK  7 active torsions:
REMARK  status: ('A' for Active; 'I' for Inactive)
REMARK    1  A    between atoms: C_1  and  C_2
REMARK    2  A    between atoms: C_5  and  C_6
REMARK    3  A    between atoms: C_6  and  N_7
REMARK    4  A    between atoms: N_7  and  C_8
REMARK    5  A    between atoms: C_11  and  C_12
REMARK    6  A    between atoms: C_12  and  N_13
REMARK    7  A    between atoms: C_14  and  C_16
REMARK                            x       y       z     vdW  Elec       q    Type
REMARK                         _______ _______ _______ _____ _____    ______ ____
ROOT
ATOM      1  C   UNL     1      46.122   5.546  12.191  0.00  0.00    +0.000 C 
ATOM      2  C   UNL     1      46.939   5.403  13.486  0.00  0.00    +0.000 C 
ATOM      3  C   UNL     1      48.089   6.405  13.567  0.00  0.00    +0.000 C 
ATOM      4  C   UNL     1      47.605   7.853  13.390  0.00  0.00    +0.000 C 
ATOM      5  C   UNL     1      46.804   7.987  12.091  0.00  0.00    +0.000 C 
ATOM      6  C   UNL     1      45.645   6.998  12.025  0.00  0.00    +0.000 C 
ENDROOT
BRANCH   1   7
ATOM      7  N   UNL     1      45.020   4.577  12.259  0.00  0.00    +0.000 NA
ATOM      8  H   UNL     1      45.402   3.640  12.377  0.00  0.00    +0.000 HD
BRANCH   7   9
ATOM      9  C   UNL     1      44.166   4.573  11.072  0.00  0.00    +0.000 C 
BRANCH   9  14
ATOM     10  C   UNL     1      46.880   2.126   6.524  0.00  0.00    +0.000 C 
ATOM     11  C   UNL     1      46.187   2.778   7.682  0.00  0.00    +0.000 A 
ATOM     12  C   UNL     1      46.166   4.170   7.825  0.00  0.00    +0.000 A 
ATOM     13  C   UNL     1      45.513   4.760   8.905  0.00  0.00    +0.000 A 
ATOM     14  C   UNL     1      44.845   3.977   9.859  0.00  0.00    +0.000 A 
ATOM     15  C   UNL     1      44.893   2.582   9.723  0.00  0.00    +0.000 A 
ATOM     16  C   UNL     1      45.553   1.988   8.647  0.00  0.00    +0.000 A 
ENDBRANCH   9  14
ENDBRANCH   7   9
ENDBRANCH   1   7
BRANCH   4  17
ATOM     17  C   UNL     1      48.771   8.858  13.370  0.00  0.00    +0.000 C 
BRANCH  17  18
ATOM     18  N   UNL     1      49.593   8.756  12.186  0.00  0.00    +0.000 N 
ATOM     19  C   UNL     1      50.944   8.521  12.263  0.00  0.00    +0.000 C 
ATOM     20  O   UNL     1      51.520   8.377  13.338  0.00  0.00    +0.000 OA
ATOM     21  H   UNL     1      49.181   9.022  11.296  0.00  0.00    +0.000 HD
BRANCH  19  22
ATOM     22  C   UNL     1      51.666   8.395  10.995  0.00  0.00    +0.000 A 
ATOM     23  C   UNL     1      51.748   7.151  10.384  0.00  0.00    +0.000 A 
ATOM     24  S   UNL     1      52.634   7.159   8.929  0.00  0.00    +0.000 S 
ATOM     25  C   UNL     1      52.970   8.821   9.082  0.00  0.00    +0.000 A 
ATOM     26  N   UNL     1      53.743   9.463   8.167  0.00  0.00    +0.000 NA
ATOM     27  C   UNL     1      53.942  10.712   8.419  0.00  0.00    +0.000 A 
ATOM     28  N   UNL     1      53.424  11.383   9.497  0.00  0.00    +0.000 N 
ATOM     29  C   UNL     1      52.597  10.788  10.422  0.00  0.00    +0.000 A 
ATOM     30  O   UNL     1      52.075  11.437  11.323  0.00  0.00    +0.000 OA
ATOM     31  C   UNL     1      52.380   9.371  10.207  0.00  0.00    +0.000 A 
ATOM     32  H   UNL     1      53.597  12.371   9.619  0.00  0.00    +0.000 HD
ENDBRANCH  19  22
ENDBRANCH  17  18
ENDBRANCH   4  17
TORSDOF 6
ENDMDL
