MODEL 1
REMARK VINA RESULT:    -8.400      0.000      0.000
REMARK INTER + INTRA:         -13.438
REMARK INTER:                 -11.838
REMARK INTRA:                  -1.600
REMARK UNBOUND:                -1.600
REMARK  Name = 
REMARK  7 active torsions:
REMARK  status: ('A' for Active; 'I' for Inactive)
REMARK    1  A    between atoms: C_2  and  C_4
REMARK    2  A    between atoms: C_4  and  N_5
REMARK    3  A    between atoms: C_4  and  C_18
REMARK    4  A    between atoms: C_6  and  C_8
REMARK    5  A    between atoms: C_21  and  C_22
REMARK    6  A    between atoms: C_22  and  N_23
REMARK    7  A    between atoms: C_24  and  C_26
REMARK                            x       y       z     vdW  Elec       q    Type
REMARK                         _______ _______ _______ _____ _____    ______ ____
ROOT
ATOM      1  C   UNL     1      48.180   6.567  14.447  0.00  0.00    +0.000 C 
ENDROOT
BRANCH   1   2
ATOM      2  C   UNL     1      47.145   5.730  13.694  0.00  0.00    +0.000 A 
ATOM      3  C   UNL     1      47.048   4.355  13.972  0.00  0.00    +0.000 A 
ATOM      4  C   UNL     1      46.178   3.522  13.249  0.00  0.00    +0.000 A 
ATOM      5  C   UNL     1      45.376   4.041  12.226  0.00  0.00    +0.000 A 
ATOM      6  C   UNL     1      45.404   5.421  12.003  0.00  0.00    +0.000 A 
ATOM      7  C   UNL     1      46.265   6.253  12.734  0.00  0.00    +0.000 A 
BRANCH   5   8
ATOM      8  C   UNL     1      44.525   3.145  11.359  0.00  0.00    +0.000 C 
BRANCH   8   9
ATOM      9  N   UNL     1      45.235   2.653  10.200  0.00  0.00    +0.000 N 
ATOM     10  C   UNL     1      45.117   3.299   8.983  0.00  0.00    +0.000 C 
ATOM     11  O   UNL     1      44.439   4.298   8.805  0.00  0.00    +0.000 OA
ATOM     12  H   UNL     1      46.000   2.011  10.356  0.00  0.00    +0.000 HD
BRANCH  10  13
ATOM     13  C   UNL     1      45.913   2.721   7.872  0.00  0.00    +0.000 A 
ATOM     14  C   UNL     1      46.204   3.437   6.706  0.00  0.00    +0.000 A 
ATOM     15  C   UNL     1      46.961   2.835   5.702  0.00  0.00    +0.000 A 
ATOM     16  C   UNL     1      47.406   1.537   5.902  0.00  0.00    +0.000 A 
ATOM     17  N   UNL     1      47.153   0.823   7.020  0.00  0.00    +0.000 NA
ATOM     18  C   UNL     1      46.422   1.435   7.988  0.00  0.00    +0.000 A 
ENDBRANCH  10  13
ENDBRANCH   8   9
ENDBRANCH   5   8
ENDBRANCH   1   2
BRANCH   1  20
ATOM     19  N   UNL     1      47.259   8.829  14.852  0.00  0.00    +0.000 N 
ATOM     20  C   UNL     1      48.167   8.090  14.131  0.00  0.00    +0.000 C 
ATOM     21  O   UNL     1      48.811   8.655  13.252  0.00  0.00    +0.000 OA
ATOM     22  H   UNL     1      47.150   9.792  14.561  0.00  0.00    +0.000 HD
ATOM     23  H   UNL     1      46.457   8.370  15.273  0.00  0.00    +0.000 HD
ENDBRANCH   1  20
BRANCH   1  24
ATOM     24  N   UNL     1      48.042   6.404  15.882  0.00  0.00    +0.000 N 
ATOM     25  C   UNL     1      49.076   6.053  16.709  0.00  0.00    +0.000 C 
ATOM     26  O   UNL     1      50.212   5.852  16.285  0.00  0.00    +0.000 OA
ATOM     27  H   UNL     1      47.099   6.478  16.249  0.00  0.00    +0.000 HD
BRANCH  25  28
ATOM     28  C   UNL     1      48.761   5.995  18.145  0.00  0.00    +0.000 A 
ATOM     29  C   UNL     1      48.956   4.828  18.875  0.00  0.00    +0.000 A 
ATOM     30  S   UNL     1      48.564   4.994  20.531  0.00  0.00    +0.000 S 
ATOM     31  C   UNL     1      48.068   6.606  20.316  0.00  0.00    +0.000 A 
ATOM     32  N   UNL     1      47.578   7.341  21.348  0.00  0.00    +0.000 NA
ATOM     33  C   UNL     1      47.228   8.545  21.033  0.00  0.00    +0.000 A 
ATOM     34  N   UNL     1      47.324   9.080  19.778  0.00  0.00    +0.000 N 
ATOM     35  C   UNL     1      47.835   8.385  18.712  0.00  0.00    +0.000 A 
ATOM     36  O   UNL     1      47.964   8.924  17.617  0.00  0.00    +0.000 OA
ATOM     37  C   UNL     1      48.233   7.023  19.011  0.00  0.00    +0.000 A 
ATOM     38  H   UNL     1      47.047  10.032  19.588  0.00  0.00    +0.000 HD
ENDBRANCH  25  28
ENDBRANCH   1  24
TORSDOF 7
ENDMDL
MODEL 2
REMARK VINA RESULT:    -7.928      2.816      4.070
REMARK INTER + INTRA:         -12.773
REMARK INTER:                 -11.260
REMARK INTRA:                  -1.513
REMARK UNBOUND:                -1.600
REMARK  Name = 
REMARK  7 active torsions:
REMARK  status: ('A' for Active; 'I' for Inactive)
REMARK    1  A    between atoms: C_2  and  C_4
REMARK    2  A    between atoms: C_4  and  N_5
REMARK    3  A    between atoms: C_4  and  C_18
REMARK    4  A    between atoms: C_6  and  C_8
REMARK    5  A    between atoms: C_21  and  C_22
REMARK    6  A    between atoms: C_22  and  N_23
REMARK    7  A    between atoms: C_24  and  C_26
REMARK                            x       y       z     vdW  Elec       q    Type
REMARK                         _______ _______ _______ _____ _____    ______ ____
ROOT
ATOM      1  C   UNL     1      46.910   5.176  14.964  0.00  0.00    +0.000 C 
ENDROOT
BRANCH   1   2
ATOM      2  C   UNL     1      46.124   5.187  13.652  0.00  0.00    +0.000 A 
ATOM      3  C   UNL     1      44.881   4.532  13.595  0.00  0.00    +0.000 A 
ATOM      4  C   UNL     1      44.158   4.436  12.395  0.00  0.00    +0.000 A 
ATOM      5  C   UNL     1      44.657   4.995  11.212  0.00  0.00    +0.000 A 
ATOM      6  C   UNL     1      45.849   5.723  11.280  0.00  0.00    +0.000 A 
ATOM      7  C   UNL     1      46.564   5.828  12.482  0.00  0.00    +0.000 A 
BRANCH   5   8
ATOM      8  C   UNL     1      43.955   4.800   9.890  0.00  0.00    +0.000 C 
BRANCH   8   9
ATOM      9  N   UNL     1      44.848   4.351   8.847  0.00  0.00    +0.000 N 
ATOM     10  C   UNL     1      45.201   3.017   8.755  0.00  0.00    +0.000 C 
ATOM     11  O   UNL     1      44.794   2.152   9.513  0.00  0.00    +0.000 OA
ATOM     12  H   UNL     1      44.991   4.963   8.055  0.00  0.00    +0.000 HD
BRANCH  10  13
ATOM     13  C   UNL     1      46.102   2.669   7.628  0.00  0.00    +0.000 A 
ATOM     14  C   UNL     1      46.249   3.488   6.504  0.00  0.00    +0.000 A 
ATOM     15  C   UNL     1      47.117   3.102   5.483  0.00  0.00    +0.000 A 
ATOM     16  C   UNL     1      47.811   1.911   5.624  0.00  0.00    +0.000 A 
ATOM     17  N   UNL     1      47.702   1.103   6.701  0.00  0.00    +0.000 NA
ATOM     18  C   UNL     1      46.858   1.506   7.687  0.00  0.00    +0.000 A 
ENDBRANCH  10  13
ENDBRANCH   8   9
ENDBRANCH   5   8
ENDBRANCH   1   2
BRANCH   1  20
ATOM     19  N   UNL     1      46.960   3.609  16.879  0.00  0.00    +0.000 N 
ATOM     20  C   UNL     1      47.227   3.767  15.540  0.00  0.00    +0.000 C 
ATOM     21  O   UNL     1      47.769   2.842  14.942  0.00  0.00    +0.000 OA
ATOM     22  H   UNL     1      47.285   2.744  17.291  0.00  0.00    +0.000 HD
ATOM     23  H   UNL     1      46.901   4.424  17.481  0.00  0.00    +0.000 HD
ENDBRANCH   1  20
BRANCH   1  24
ATOM     24  N   UNL     1      48.160   5.900  14.832  0.00  0.00    +0.000 N 
ATOM     25  C   UNL     1      48.831   6.454  15.889  0.00  0.00    +0.000 C 
ATOM     26  O   UNL     1      48.414   6.372  17.043  0.00  0.00    +0.000 OA
ATOM     27  H   UNL     1      48.483   6.059  13.883  0.00  0.00    +0.000 HD
BRANCH  25  28
ATOM     28  C   UNL     1      50.114   7.098  15.571  0.00  0.00    +0.000 A 
ATOM     29  C   UNL     1      51.286   6.720  16.217  0.00  0.00    +0.000 A 
ATOM     30  S   UNL     1      52.665   7.567  15.666  0.00  0.00    +0.000 S 
ATOM     31  C   UNL     1      51.737   8.504  14.592  0.00  0.00    +0.000 A 
ATOM     32  N   UNL     1      52.304   9.467  13.820  0.00  0.00    +0.000 NA
ATOM     33  C   UNL     1      51.474  10.108  13.064  0.00  0.00    +0.000 A 
ATOM     34  N   UNL     1      50.128   9.871  13.010  0.00  0.00    +0.000 N 
ATOM     35  C   UNL     1      49.516   8.893  13.751  0.00  0.00    +0.000 A 
ATOM     36  O   UNL     1      48.317   8.670  13.625  0.00  0.00    +0.000 OA
ATOM     37  C   UNL     1      50.404   8.152  14.626  0.00  0.00    +0.000 A 
ATOM     38  H   UNL     1      49.525  10.393  12.391  0.00  0.00    +0.000 HD
ENDBRANCH  25  28
ENDBRANCH   1  24
TORSDOF 7
ENDMDL
MODEL 3
REMARK VINA RESULT:    -7.835      1.635      2.265
REMARK INTER + INTRA:         -12.641
REMARK INTER:                 -11.752
REMARK INTRA:                  -0.889
REMARK UNBOUND:                -1.600
REMARK  Name = 
REMARK  7 active torsions:
REMARK  status: ('A' for Active; 'I' for Inactive)
REMARK    1  A    between atoms: C_2  and  C_4
REMARK    2  A    between atoms: C_4  and  N_5
REMARK    3  A    between atoms: C_4  and  C_18
REMARK    4  A    between atoms: C_6  and  C_8
REMARK    5  A    between atoms: C_21  and  C_22
REMARK    6  A    between atoms: C_22  and  N_23
REMARK    7  A    between atoms: C_24  and  C_26
REMARK                            x       y       z     vdW  Elec       q    Type
REMARK                         _______ _______ _______ _____ _____    ______ ____
ROOT
ATOM      1  C   UNL     1      48.194   7.720  13.701  0.00  0.00    +0.000 C 
ENDROOT
BRANCH   1   2
ATOM      2  C   UNL     1      47.023   7.043  12.986  0.00  0.00    +0.000 A 
ATOM      3  C   UNL     1      46.898   5.644  13.056  0.00  0.00    +0.000 A 
ATOM      4  C   UNL     1      45.895   4.963  12.347  0.00  0.00    +0.000 A 
ATOM      5  C   UNL     1      44.983   5.662  11.546  0.00  0.00    +0.000 A 
ATOM      6  C   UNL     1      45.048   7.059  11.541  0.00  0.00    +0.000 A 
ATOM      7  C   UNL     1      46.044   7.738  12.259  0.00  0.00    +0.000 A 
BRANCH   5   8
ATOM      8  C   UNL     1      43.976   4.941  10.684  0.00  0.00    +0.000 C 
BRANCH   8   9
ATOM      9  N   UNL     1      44.575   3.899   9.882  0.00  0.00    +0.000 N 
ATOM     10  C   UNL     1      45.442   4.220   8.854  0.00  0.00    +0.000 C 
ATOM     11  O   UNL     1      45.761   5.362   8.564  0.00  0.00    +0.000 OA
ATOM     12  H   UNL     1      44.556   2.956  10.246  0.00  0.00    +0.000 HD
BRANCH  10  13
ATOM     13  C   UNL     1      46.016   3.067   8.116  0.00  0.00    +0.000 A 
ATOM     14  C   UNL     1      46.753   3.222   6.938  0.00  0.00    +0.000 A 
ATOM     15  C   UNL     1      47.269   2.096   6.297  0.00  0.00    +0.000 A 
ATOM     16  C   UNL     1      47.032   0.852   6.863  0.00  0.00    +0.000 A 
ATOM     17  N   UNL     1      46.337   0.668   8.006  0.00  0.00    +0.000 NA
ATOM     18  C   UNL     1      45.854   1.782   8.616  0.00  0.00    +0.000 A 
ENDBRANCH  10  13
ENDBRANCH   8   9
ENDBRANCH   5   8
ENDBRANCH   1   2
BRANCH   1  20
ATOM     19  N   UNL     1      48.017  10.106  14.334  0.00  0.00    +0.000 N 
ATOM     20  C   UNL     1      48.409   9.221  13.359  0.00  0.00    +0.000 C 
ATOM     21  O   UNL     1      48.800   9.672  12.285  0.00  0.00    +0.000 OA
ATOM     22  H   UNL     1      48.029  11.083  14.069  0.00  0.00    +0.000 HD
ATOM     23  H   UNL     1      47.341   9.816  15.035  0.00  0.00    +0.000 HD
ENDBRANCH   1  20
BRANCH   1  24
ATOM     24  N   UNL     1      48.067   7.601  15.141  0.00  0.00    +0.000 N 
ATOM     25  C   UNL     1      49.027   7.044  15.944  0.00  0.00    +0.000 C 
ATOM     26  O   UNL     1      50.081   6.602  15.491  0.00  0.00    +0.000 OA
ATOM     27  H   UNL     1      47.173   7.877  15.533  0.00  0.00    +0.000 HD
BRANCH  25  28
ATOM     28  C   UNL     1      48.750   7.065  17.388  0.00  0.00    +0.000 A 
ATOM     29  C   UNL     1      48.419   8.249  18.038  0.00  0.00    +0.000 A 
ATOM     30  S   UNL     1      48.098   8.040  19.704  0.00  0.00    +0.000 S 
ATOM     31  C   UNL     1      48.445   6.376  19.625  0.00  0.00    +0.000 A 
ATOM     32  N   UNL     1      48.393   5.588  20.730  0.00  0.00    +0.000 NA
ATOM     33  C   UNL     1      48.696   4.349  20.521  0.00  0.00    +0.000 A 
ATOM     34  N   UNL     1      49.045   3.827  19.306  0.00  0.00    +0.000 N 
ATOM     35  C   UNL     1      49.085   4.578  18.160  0.00  0.00    +0.000 A 
ATOM     36  O   UNL     1      49.340   4.058  17.078  0.00  0.00    +0.000 OA
ATOM     37  C   UNL     1      48.765   5.981  18.343  0.00  0.00    +0.000 A 
ATOM     38  H   UNL     1      49.260   2.847  19.195  0.00  0.00    +0.000 HD
ENDBRANCH  25  28
ENDBRANCH   1  24
TORSDOF 7
ENDMDL
MODEL 4
REMARK VINA RESULT:    -7.484      2.673      3.978
REMARK INTER + INTRA:         -12.147
REMARK INTER:                 -10.817
REMARK INTRA:                  -1.329
REMARK UNBOUND:                -1.600
REMARK  Name = 
REMARK  7 active torsions:
REMARK  status: ('A' for Active; 'I' for Inactive)
REMARK    1  A    between atoms: C_2  and  C_4
REMARK    2  A    between atoms: C_4  and  N_5
REMARK    3  A    between atoms: C_4  and  C_18
REMARK    4  A    between atoms: C_6  and  C_8
REMARK    5  A    between atoms: C_21  and  C_22
REMARK    6  A    between atoms: C_22  and  N_23
REMARK    7  A    between atoms: C_24  and  C_26
REMARK                            x       y       z     vdW  Elec       q    Type
REMARK                         _______ _______ _______ _____ _____    ______ ____
ROOT
ATOM      1  C   UNL     1      47.417   4.605  15.926  0.00  0.00    +0.000 C 
ENDROOT
BRANCH   1   2
ATOM      2  C   UNL     1      46.824   4.651  14.516  0.00  0.00    +0.000 A 
ATOM      3  C   UNL     1      46.645   5.899  13.892  0.00  0.00    +0.000 A 
ATOM      4  C   UNL     1      46.025   6.007  12.637  0.00  0.00    +0.000 A 
ATOM      5  C   UNL     1      45.565   4.867  11.965  0.00  0.00    +0.000 A 
ATOM      6  C   UNL     1      45.817   3.618  12.540  0.00  0.00    +0.000 A 
ATOM      7  C   UNL     1      46.447   3.512  13.789  0.00  0.00    +0.000 A 
BRANCH   5   8
ATOM      8  C   UNL     1      44.790   4.972  10.674  0.00  0.00    +0.000 C 
BRANCH   8   9
ATOM      9  N   UNL     1      45.499   4.401   9.552  0.00  0.00    +0.000 N 
ATOM     10  C   UNL     1      45.186   3.131   9.102  0.00  0.00    +0.000 C 
ATOM     11  O   UNL     1      44.319   2.429   9.594  0.00  0.00    +0.000 OA
ATOM     12  H   UNL     1      46.021   5.030   8.957  0.00  0.00    +0.000 HD
BRANCH  10  13
ATOM     13  C   UNL     1      45.960   2.660   7.926  0.00  0.00    +0.000 A 
ATOM     14  C   UNL     1      46.192   3.467   6.808  0.00  0.00    +0.000 A 
ATOM     15  C   UNL     1      46.931   2.962   5.739  0.00  0.00    +0.000 A 
ATOM     16  C   UNL     1      47.418   1.667   5.829  0.00  0.00    +0.000 A 
ATOM     17  N   UNL     1      47.224   0.867   6.899  0.00  0.00    +0.000 NA
ATOM     18  C   UNL     1      46.509   1.385   7.931  0.00  0.00    +0.000 A 
ENDBRANCH  10  13
ENDBRANCH   8   9
ENDBRANCH   5   8
ENDBRANCH   1   2
BRANCH   1  20
ATOM     19  N   UNL     1      47.132   2.766  17.557  0.00  0.00    +0.000 N 
ATOM     20  C   UNL     1      47.810   3.191  16.440  0.00  0.00    +0.000 C 
ATOM     21  O   UNL     1      48.713   2.485  16.003  0.00  0.00    +0.000 OA
ATOM     22  H   UNL     1      47.471   1.909  17.975  0.00  0.00    +0.000 HD
ATOM     23  H   UNL     1      46.691   3.446  18.168  0.00  0.00    +0.000 HD
ENDBRANCH   1  20
BRANCH   1  24
ATOM     24  N   UNL     1      48.582   5.462  16.032  0.00  0.00    +0.000 N 
ATOM     25  C   UNL     1      48.812   6.304  17.088  0.00  0.00    +0.000 C 
ATOM     26  O   UNL     1      48.034   6.389  18.035  0.00  0.00    +0.000 OA
ATOM     27  H   UNL     1      49.197   5.478  15.225  0.00  0.00    +0.000 HD
BRANCH  25  28
ATOM     28  C   UNL     1      50.078   7.052  17.051  0.00  0.00    +0.000 A 
ATOM     29  C   UNL     1      50.089   8.438  16.942  0.00  0.00    +0.000 A 
ATOM     30  S   UNL     1      51.663   9.104  16.960  0.00  0.00    +0.000 S 
ATOM     31  C   UNL     1      52.381   7.565  17.054  0.00  0.00    +0.000 A 
ATOM     32  N   UNL     1      53.730   7.412  17.071  0.00  0.00    +0.000 NA
ATOM     33  C   UNL     1      54.132   6.184  17.130  0.00  0.00    +0.000 A 
ATOM     34  N   UNL     1      53.304   5.096  17.175  0.00  0.00    +0.000 N 
ATOM     35  C   UNL     1      51.937   5.204  17.186  0.00  0.00    +0.000 A 
ATOM     36  O   UNL     1      51.231   4.206  17.292  0.00  0.00    +0.000 OA
ATOM     37  C   UNL     1      51.435   6.562  17.109  0.00  0.00    +0.000 A 
ATOM     38  H   UNL     1      53.670   4.157  17.234  0.00  0.00    +0.000 HD
ENDBRANCH  25  28
ENDBRANCH   1  24
TORSDOF 7
ENDMDL
MODEL 5
REMARK VINA RESULT:    -7.289      2.460      3.016
REMARK INTER + INTRA:         -11.872
REMARK INTER:                 -10.538
REMARK INTRA:                  -1.333
REMARK UNBOUND:                -1.600
REMARK  Name = 
REMARK  7 active torsions:
REMARK  status: ('A' for Active; 'I' for Inactive)
REMARK    1  A    between atoms: C_2  and  C_4
REMARK    2  A    between atoms: C_4  and  N_5
REMARK    3  A    between atoms: C_4  and  C_18
REMARK    4  A    between atoms: C_6  and  C_8
REMARK    5  A    between atoms: C_21  and  C_22
REMARK    6  A    between atoms: C_22  and  N_23
REMARK    7  A    between atoms: C_24  and  C_26
REMARK                            x       y       z     vdW  Elec       q    Type
REMARK                         _______ _______ _______ _____ _____    ______ ____
ROOT
ATOM      1  C   UNL     1      48.913   8.440  14.424  0.00  0.00    +0.000 C 
ENDROOT
BRANCH   1   2
ATOM      2  C   UNL     1      47.955   7.985  13.321  0.00  0.00    +0.000 A 
ATOM      3  C   UNL     1      46.580   8.241  13.465  0.00  0.00    +0.000 A 
ATOM      4  C   UNL     1      45.646   7.770  12.527  0.00  0.00    +0.000 A 
ATOM      5  C   UNL     1      46.060   7.028  11.415  0.00  0.00    +0.000 A 
ATOM      6  C   UNL     1      47.433   6.844  11.221  0.00  0.00    +0.000 A 
ATOM      7  C   UNL     1      48.365   7.326  12.152  0.00  0.00    +0.000 A 
BRANCH   5   8
ATOM      8  C   UNL     1      45.065   6.411  10.463  0.00  0.00    +0.000 C 
BRANCH   8   9
ATOM      9  N   UNL     1      45.654   5.392   9.624  0.00  0.00    +0.000 N 
ATOM     10  C   UNL     1      44.985   4.203   9.396  0.00  0.00    +0.000 C 
ATOM     11  O   UNL     1      43.888   3.939   9.861  0.00  0.00    +0.000 OA
ATOM     12  H   UNL     1      46.413   5.665   9.015  0.00  0.00    +0.000 HD
BRANCH  10  13
ATOM     13  C   UNL     1      45.673   3.243   8.498  0.00  0.00    +0.000 A 
ATOM     14  C   UNL     1      46.349   3.648   7.342  0.00  0.00    +0.000 A 
ATOM     15  C   UNL     1      46.979   2.694   6.545  0.00  0.00    +0.000 A 
ATOM     16  C   UNL     1      46.914   1.365   6.935  0.00  0.00    +0.000 A 
ATOM     17  N   UNL     1      46.282   0.941   8.050  0.00  0.00    +0.000 NA
ATOM     18  C   UNL     1      45.685   1.891   8.816  0.00  0.00    +0.000 A 
ENDBRANCH  10  13
ENDBRANCH   8   9
ENDBRANCH   5   8
ENDBRANCH   1   2
BRANCH   1  20
ATOM     19  N   UNL     1      47.978   9.825  16.249  0.00  0.00    +0.000 N 
ATOM     20  C   UNL     1      48.616   9.839  15.033  0.00  0.00    +0.000 C 
ATOM     21  O   UNL     1      48.813  10.924  14.491  0.00  0.00    +0.000 OA
ATOM     22  H   UNL     1      47.663  10.724  16.589  0.00  0.00    +0.000 HD
ATOM     23  H   UNL     1      47.451   9.004  16.532  0.00  0.00    +0.000 HD
ENDBRANCH   1  20
BRANCH   1  24
ATOM     24  N   UNL     1      48.957   7.478  15.508  0.00  0.00    +0.000 N 
ATOM     25  C   UNL     1      50.108   6.873  15.940  0.00  0.00    +0.000 C 
ATOM     26  O   UNL     1      51.201   7.111  15.430  0.00  0.00    +0.000 OA
ATOM     27  H   UNL     1      48.060   7.196  15.889  0.00  0.00    +0.000 HD
BRANCH  25  28
ATOM     28  C   UNL     1      49.968   5.970  17.092  0.00  0.00    +0.000 A 
ATOM     29  C   UNL     1      50.799   6.088  18.201  0.00  0.00    +0.000 A 
ATOM     30  S   UNL     1      50.436   4.968  19.440  0.00  0.00    +0.000 S 
ATOM     31  C   UNL     1      49.200   4.252  18.516  0.00  0.00    +0.000 A 
ATOM     32  N   UNL     1      48.490   3.192  18.982  0.00  0.00    +0.000 NA
ATOM     33  C   UNL     1      47.593   2.745  18.165  0.00  0.00    +0.000 A 
ATOM     34  N   UNL     1      47.342   3.264  16.925  0.00  0.00    +0.000 N 
ATOM     35  C   UNL     1      48.015   4.348  16.424  0.00  0.00    +0.000 A 
ATOM     36  O   UNL     1      47.714   4.823  15.334  0.00  0.00    +0.000 OA
ATOM     37  C   UNL     1      49.042   4.881  17.299  0.00  0.00    +0.000 A 
ATOM     38  H   UNL     1      46.619   2.884  16.331  0.00  0.00    +0.000 HD
ENDBRANCH  25  28
ENDBRANCH   1  24
TORSDOF 7
ENDMDL
MODEL 6
REMARK VINA RESULT:    -7.206      1.625      2.081
REMARK INTER + INTRA:         -11.756
REMARK INTER:                 -10.288
REMARK INTRA:                  -1.468
REMARK UNBOUND:                -1.600
REMARK  Name = 
REMARK  7 active torsions:
REMARK  status: ('A' for Active; 'I' for Inactive)
REMARK    1  A    between atoms: C_2  and  C_4
REMARK    2  A    between atoms: C_4  and  N_5
REMARK    3  A    between atoms: C_4  and  C_18
REMARK    4  A    between atoms: C_6  and  C_8
REMARK    5  A    between atoms: C_21  and  C_22
REMARK    6  A    between atoms: C_22  and  N_23
REMARK    7  A    between atoms: C_24  and  C_26
REMARK                            x       y       z     vdW  Elec       q    Type
REMARK                         _______ _______ _______ _____ _____    ______ ____
ROOT
ATOM      1  C   UNL     1      48.676   7.766  14.436  0.00  0.00    +0.000 C 
ENDROOT
BRANCH   1   2
ATOM      2  C   UNL     1      47.568   7.116  13.606  0.00  0.00    +0.000 A 
ATOM      3  C   UNL     1      47.189   5.792  13.891  0.00  0.00    +0.000 A 
ATOM      4  C   UNL     1      46.240   5.117  13.105  0.00  0.00    +0.000 A 
ATOM      5  C   UNL     1      45.640   5.748  12.008  0.00  0.00    +0.000 A 
ATOM      6  C   UNL     1      45.948   7.091  11.772  0.00  0.00    +0.000 A 
ATOM      7  C   UNL     1      46.887   7.767  12.565  0.00  0.00    +0.000 A 
BRANCH   5   8
ATOM      8  C   UNL     1      44.711   5.002  11.082  0.00  0.00    +0.000 C 
BRANCH   8   9
ATOM      9  N   UNL     1      45.403   4.395   9.969  0.00  0.00    +0.000 N 
ATOM     10  C   UNL     1      44.958   3.197   9.439  0.00  0.00    +0.000 C 
ATOM     11  O   UNL     1      43.982   2.592   9.850  0.00  0.00    +0.000 OA
ATOM     12  H   UNL     1      46.034   4.975   9.434  0.00  0.00    +0.000 HD
BRANCH  10  13
ATOM     13  C   UNL     1      45.731   2.682   8.282  0.00  0.00    +0.000 A 
ATOM     14  C   UNL     1      46.242   1.381   8.240  0.00  0.00    +0.000 A 
ATOM     15  C   UNL     1      46.956   0.959   7.118  0.00  0.00    +0.000 A 
ATOM     16  C   UNL     1      47.129   1.855   6.074  0.00  0.00    +0.000 A 
ATOM     17  N   UNL     1      46.637   3.113   6.076  0.00  0.00    +0.000 NA
ATOM     18  C   UNL     1      45.937   3.496   7.176  0.00  0.00    +0.000 A 
ENDBRANCH  10  13
ENDBRANCH   8   9
ENDBRANCH   5   8
ENDBRANCH   1   2
BRANCH   1  20
ATOM     19  N   UNL     1      47.437   9.224  16.005  0.00  0.00    +0.000 N 
ATOM     20  C   UNL     1      48.356   9.185  14.984  0.00  0.00    +0.000 C 
ATOM     21  O   UNL     1      48.771  10.249  14.533  0.00  0.00    +0.000 OA
ATOM     22  H   UNL     1      47.124  10.148  16.277  0.00  0.00    +0.000 HD
ATOM     23  H   UNL     1      46.789   8.452  16.130  0.00  0.00    +0.000 HD
ENDBRANCH   1  20
BRANCH   1  24
ATOM     24  N   UNL     1      49.052   6.925  15.556  0.00  0.00    +0.000 N 
ATOM     25  C   UNL     1      50.339   6.788  16.004  0.00  0.00    +0.000 C 
ATOM     26  O   UNL     1      51.279   7.381  15.479  0.00  0.00    +0.000 OA
ATOM     27  H   UNL     1      48.311   6.356  15.953  0.00  0.00    +0.000 HD
BRANCH  25  28
ATOM     28  C   UNL     1      50.521   5.939  17.192  0.00  0.00    +0.000 A 
ATOM     29  C   UNL     1      51.468   4.922  17.208  0.00  0.00    +0.000 A 
ATOM     30  S   UNL     1      51.540   4.088  18.699  0.00  0.00    +0.000 S 
ATOM     31  C   UNL     1      50.272   5.017  19.349  0.00  0.00    +0.000 A 
ATOM     32  N   UNL     1      49.802   4.794  20.604  0.00  0.00    +0.000 NA
ATOM     33  C   UNL     1      48.827   5.566  20.958  0.00  0.00    +0.000 A 
ATOM     34  N   UNL     1      48.281   6.541  20.169  0.00  0.00    +0.000 N 
ATOM     35  C   UNL     1      48.739   6.818  18.907  0.00  0.00    +0.000 A 
ATOM     36  O   UNL     1      48.264   7.744  18.258  0.00  0.00    +0.000 OA
ATOM     37  C   UNL     1      49.826   5.970  18.458  0.00  0.00    +0.000 A 
ATOM     38  H   UNL     1      47.527   7.126  20.500  0.00  0.00    +0.000 HD
ENDBRANCH  25  28
ENDBRANCH   1  24
TORSDOF 7
ENDMDL
MODEL 7
REMARK VINA RESULT:    -6.946      3.600      5.813
REMARK INTER + INTRA:         -11.389
REMARK INTER:                 -10.014
REMARK INTRA:                  -1.376
REMARK UNBOUND:                -1.600
REMARK  Name = 
REMARK  7 active torsions:
REMARK  status: ('A' for Active; 'I' for Inactive)
REMARK    1  A    between atoms: C_2  and  C_4
REMARK    2  A    between atoms: C_4  and  N_5
REMARK    3  A    between atoms: C_4  and  C_18
REMARK    4  A    between atoms: C_6  and  C_8
REMARK    5  A    between atoms: C_21  and  C_22
REMARK    6  A    between atoms: C_22  and  N_23
REMARK    7  A    between atoms: C_24  and  C_26
REMARK                            x       y       z     vdW  Elec       q    Type
REMARK                         _______ _______ _______ _____ _____    ______ ____
ROOT
ATOM      1  C   UNL     1      48.300   7.691  14.603  0.00  0.00    +0.000 C 
ENDROOT
BRANCH   1   2
ATOM      2  C   UNL     1      47.220   7.146  13.667  0.00  0.00    +0.000 A 
ATOM      3  C   UNL     1      47.089   5.754  13.515  0.00  0.00    +0.000 A 
ATOM      4  C   UNL     1      46.175   5.200  12.604  0.00  0.00    +0.000 A 
ATOM      5  C   UNL     1      45.360   6.024  11.817  0.00  0.00    +0.000 A 
ATOM      6  C   UNL     1      45.423   7.405  12.026  0.00  0.00    +0.000 A 
ATOM      7  C   UNL     1      46.329   7.955  12.945  0.00  0.00    +0.000 A 
BRANCH   5   8
ATOM      8  C   UNL     1      44.459   5.453  10.749  0.00  0.00    +0.000 C 
BRANCH   8   9
ATOM      9  N   UNL     1      45.192   4.763   9.713  0.00  0.00    +0.000 N 
ATOM     10  C   UNL     1      44.875   3.457   9.385  0.00  0.00    +0.000 C 
ATOM     11  O   UNL     1      43.983   2.818   9.920  0.00  0.00    +0.000 OA
ATOM     12  H   UNL     1      45.741   5.321   9.073  0.00  0.00    +0.000 HD
BRANCH  10  13
ATOM     13  C   UNL     1      45.676   2.859   8.288  0.00  0.00    +0.000 A 
ATOM     14  C   UNL     1      46.075   3.591   7.165  0.00  0.00    +0.000 A 
ATOM     15  C   UNL     1      46.832   2.969   6.173  0.00  0.00    +0.000 A 
ATOM     16  C   UNL     1      47.166   1.634   6.341  0.00  0.00    +0.000 A 
ATOM     17  N   UNL     1      46.808   0.901   7.418  0.00  0.00    +0.000 NA
ATOM     18  C   UNL     1      46.081   1.534   8.376  0.00  0.00    +0.000 A 
ENDBRANCH  10  13
ENDBRANCH   8   9
ENDBRANCH   5   8
ENDBRANCH   1   2
BRANCH   1  20
ATOM     19  N   UNL     1      48.085   6.908  16.941  0.00  0.00    +0.000 N 
ATOM     20  C   UNL     1      48.741   6.734  15.746  0.00  0.00    +0.000 C 
ATOM     21  O   UNL     1      49.663   5.925  15.700  0.00  0.00    +0.000 OA
ATOM     22  H   UNL     1      48.455   6.384  17.723  0.00  0.00    +0.000 HD
ATOM     23  H   UNL     1      47.628   7.793  17.140  0.00  0.00    +0.000 HD
ENDBRANCH   1  20
BRANCH   1  24
ATOM     24  N   UNL     1      49.484   8.084  13.863  0.00  0.00    +0.000 N 
ATOM     25  C   UNL     1      49.738   9.370  13.465  0.00  0.00    +0.000 C 
ATOM     26  O   UNL     1      48.969  10.295  13.716  0.00  0.00    +0.000 OA
ATOM     27  H   UNL     1      50.093   7.329  13.566  0.00  0.00    +0.000 HD
BRANCH  25  28
ATOM     28  C   UNL     1      51.020   9.589  12.777  0.00  0.00    +0.000 A 
ATOM     29  C   UNL     1      51.859  10.635  13.141  0.00  0.00    +0.000 A 
ATOM     30  S   UNL     1      53.312  10.681  12.241  0.00  0.00    +0.000 S 
ATOM     31  C   UNL     1      52.843   9.345  11.299  0.00  0.00    +0.000 A 
ATOM     32  N   UNL     1      53.630   8.872  10.298  0.00  0.00    +0.000 NA
ATOM     33  C   UNL     1      53.138   7.861   9.659  0.00  0.00    +0.000 A 
ATOM     34  N   UNL     1      51.930   7.282   9.931  0.00  0.00    +0.000 N 
ATOM     35  C   UNL     1      51.114   7.709  10.947  0.00  0.00    +0.000 A 
ATOM     36  O   UNL     1      50.067   7.120  11.200  0.00  0.00    +0.000 OA
ATOM     37  C   UNL     1      51.616   8.850  11.689  0.00  0.00    +0.000 A 
ATOM     38  H   UNL     1      51.598   6.484   9.408  0.00  0.00    +0.000 HD
ENDBRANCH  25  28
ENDBRANCH   1  24
TORSDOF 7
ENDMDL
MODEL 8
REMARK VINA RESULT:    -6.940      1.666      2.090
REMARK INTER + INTRA:         -11.380
REMARK INTER:                  -9.841
REMARK INTRA:                  -1.538
REMARK UNBOUND:                -1.600
REMARK  Name = 
REMARK  7 active torsions:
REMARK  status: ('A' for Active; 'I' for Inactive)
REMARK    1  A    between atoms: C_2  and  C_4
REMARK    2  A    between atoms: C_4  and  N_5
REMARK    3  A    between atoms: C_4  and  C_18
REMARK    4  A    between atoms: C_6  and  C_8
REMARK    5  A    between atoms: C_21  and  C_22
REMARK    6  A    between atoms: C_22  and  N_23
REMARK    7  A    between atoms: C_24  and  C_26
REMARK                            x       y       z     vdW  Elec       q    Type
REMARK                         _______ _______ _______ _____ _____    ______ ____
ROOT
ATOM      1  C   UNL     1      48.773   8.691  14.726  0.00  0.00    +0.000 C 
ENDROOT
BRANCH   1   2
ATOM      2  C   UNL     1      47.853   8.121  13.646  0.00  0.00    +0.000 A 
ATOM      3  C   UNL     1      46.584   8.697  13.457  0.00  0.00    +0.000 A 
ATOM      4  C   UNL     1      45.665   8.159  12.541  0.00  0.00    +0.000 A 
ATOM      5  C   UNL     1      45.988   7.026  11.784  0.00  0.00    +0.000 A 
ATOM      6  C   UNL     1      47.278   6.500  11.904  0.00  0.00    +0.000 A 
ATOM      7  C   UNL     1      48.199   7.047  12.810  0.00  0.00    +0.000 A 
BRANCH   5   8
ATOM      8  C   UNL     1      44.974   6.362  10.885  0.00  0.00    +0.000 C 
BRANCH   8   9
ATOM      9  N   UNL     1      45.567   5.384  10.002  0.00  0.00    +0.000 N 
ATOM     10  C   UNL     1      44.844   4.274   9.603  0.00  0.00    +0.000 C 
ATOM     11  O   UNL     1      43.695   4.051   9.946  0.00  0.00    +0.000 OA
ATOM     12  H   UNL     1      46.394   5.655   9.489  0.00  0.00    +0.000 HD
BRANCH  10  13
ATOM     13  C   UNL     1      45.546   3.353   8.675  0.00  0.00    +0.000 A 
ATOM     14  C   UNL     1      46.217   3.804   7.534  0.00  0.00    +0.000 A 
ATOM     15  C   UNL     1      46.860   2.885   6.707  0.00  0.00    +0.000 A 
ATOM     16  C   UNL     1      46.812   1.543   7.053  0.00  0.00    +0.000 A 
ATOM     17  N   UNL     1      46.184   1.075   8.153  0.00  0.00    +0.000 NA
ATOM     18  C   UNL     1      45.575   1.992   8.949  0.00  0.00    +0.000 A 
ENDBRANCH  10  13
ENDBRANCH   8   9
ENDBRANCH   5   8
ENDBRANCH   1   2
BRANCH   1  20
ATOM     19  N   UNL     1      48.463  10.892  15.814  0.00  0.00    +0.000 N 
ATOM     20  C   UNL     1      48.947  10.236  14.708  0.00  0.00    +0.000 C 
ATOM     21  O   UNL     1      49.381  10.908  13.776  0.00  0.00    +0.000 OA
ATOM     22  H   UNL     1      48.450  11.902  15.754  0.00  0.00    +0.000 HD
ATOM     23  H   UNL     1      47.760  10.447  16.397  0.00  0.00    +0.000 HD
ENDBRANCH   1  20
BRANCH   1  24
ATOM     24  N   UNL     1      48.329   8.304  16.051  0.00  0.00    +0.000 N 
ATOM     25  C   UNL     1      48.931   7.326  16.797  0.00  0.00    +0.000 C 
ATOM     26  O   UNL     1      49.909   6.703  16.389  0.00  0.00    +0.000 OA
ATOM     27  H   UNL     1      47.472   8.739  16.377  0.00  0.00    +0.000 HD
BRANCH  25  28
ATOM     28  C   UNL     1      48.379   7.112  18.144  0.00  0.00    +0.000 A 
ATOM     29  C   UNL     1      47.864   5.877  18.519  0.00  0.00    +0.000 A 
ATOM     30  S   UNL     1      47.314   5.837  20.137  0.00  0.00    +0.000 S 
ATOM     31  C   UNL     1      47.690   7.480  20.371  0.00  0.00    +0.000 A 
ATOM     32  N   UNL     1      47.436   8.105  21.549  0.00  0.00    +0.000 NA
ATOM     33  C   UNL     1      47.761   9.356  21.575  0.00  0.00    +0.000 A 
ATOM     34  N   UNL     1      48.320  10.037  20.529  0.00  0.00    +0.000 N 
ATOM     35  C   UNL     1      48.618   9.442  19.330  0.00  0.00    +0.000 A 
ATOM     36  O   UNL     1      49.178  10.072  18.440  0.00  0.00    +0.000 OA
ATOM     37  C   UNL     1      48.260   8.039  19.245  0.00  0.00    +0.000 A 
ATOM     38  H   UNL     1      48.568  11.013  20.607  0.00  0.00    +0.000 HD
ENDBRANCH  25  28
ENDBRANCH   1  24
TORSDOF 7
ENDMDL
MODEL 9
REMARK VINA RESULT:    -6.665      3.753      9.040
REMARK INTER + INTRA:         -10.993
REMARK INTER:                  -9.656
REMARK INTRA:                  -1.337
REMARK UNBOUND:                -1.600
REMARK  Name = 
REMARK  7 active torsions:
REMARK  status: ('A' for Active; 'I' for Inactive)
REMARK    1  A    between atoms: C_2  and  C_4
REMARK    2  A    between atoms: C_4  and  N_5
REMARK    3  A    between atoms: C_4  and  C_18
REMARK    4  A    between atoms: C_6  and  C_8
REMARK    5  A    between atoms: C_21  and  C_22
REMARK    6  A    between atoms: C_22  and  N_23
REMARK    7  A    between atoms: C_24  and  C_26
REMARK                            x       y       z     vdW  Elec       q    Type
REMARK                         _______ _______ _______ _____ _____    ______ ____
ROOT
ATOM      1  C   UNL     1      48.096   7.792  12.854  0.00  0.00    +0.000 C 
ENDROOT
BRANCH   1   2
ATOM      2  C   UNL     1      48.368   7.368  14.298  0.00  0.00    +0.000 A 
ATOM      3  C   UNL     1      48.906   8.307  15.196  0.00  0.00    +0.000 A 
ATOM      4  C   UNL     1      49.257   7.948  16.507  0.00  0.00    +0.000 A 
ATOM      5  C   UNL     1      49.081   6.636  16.962  0.00  0.00    +0.000 A 
ATOM      6  C   UNL     1      48.468   5.719  16.103  0.00  0.00    +0.000 A 
ATOM      7  C   UNL     1      48.106   6.082  14.798  0.00  0.00    +0.000 A 
BRANCH   5   8
ATOM      8  C   UNL     1      49.563   6.202  18.325  0.00  0.00    +0.000 C 
BRANCH   8   9
ATOM      9  N   UNL     1      50.150   4.882  18.314  0.00  0.00    +0.000 N 
ATOM     10  C   UNL     1      51.478   4.712  17.967  0.00  0.00    +0.000 C 
ATOM     11  O   UNL     1      52.226   5.627  17.665  0.00  0.00    +0.000 OA
ATOM     12  H   UNL     1      49.662   4.146  18.805  0.00  0.00    +0.000 HD
BRANCH  10  13
ATOM     13  C   UNL     1      51.980   3.316  18.018  0.00  0.00    +0.000 A 
ATOM     14  C   UNL     1      51.306   2.254  17.407  0.00  0.00    +0.000 A 
ATOM     15  C   UNL     1      51.835   0.966  17.489  0.00  0.00    +0.000 A 
ATOM     16  C   UNL     1      53.026   0.787  18.176  0.00  0.00    +0.000 A 
ATOM     17  N   UNL     1      53.709   1.792  18.766  0.00  0.00    +0.000 NA
ATOM     18  C   UNL     1      53.177   3.039  18.663  0.00  0.00    +0.000 A 
ENDBRANCH  10  13
ENDBRANCH   8   9
ENDBRANCH   5   8
ENDBRANCH   1   2
BRANCH   1  20
ATOM     19  N   UNL     1      50.308   7.236  11.894  0.00  0.00    +0.000 N 
ATOM     20  C   UNL     1      49.348   8.209  12.032  0.00  0.00    +0.000 C 
ATOM     21  O   UNL     1      49.586   9.330  11.590  0.00  0.00    +0.000 OA
ATOM     22  H   UNL     1      51.179   7.537  11.477  0.00  0.00    +0.000 HD
ATOM     23  H   UNL     1      50.343   6.466  12.555  0.00  0.00    +0.000 HD
ENDBRANCH   1  20
BRANCH   1  24
ATOM     24  N   UNL     1      47.404   6.748  12.123  0.00  0.00    +0.000 N 
ATOM     25  C   UNL     1      46.080   6.812  11.777  0.00  0.00    +0.000 C 
ATOM     26  O   UNL     1      45.377   7.778  12.066  0.00  0.00    +0.000 OA
ATOM     27  H   UNL     1      47.936   5.902  11.948  0.00  0.00    +0.000 HD
BRANCH  25  28
ATOM     28  C   UNL     1      45.567   5.686  10.983  0.00  0.00    +0.000 A 
ATOM     29  C   UNL     1      45.771   5.625   9.609  0.00  0.00    +0.000 A 
ATOM     30  S   UNL     1      45.128   4.213   8.892  0.00  0.00    +0.000 S 
ATOM     31  C   UNL     1      44.506   3.667  10.378  0.00  0.00    +0.000 A 
ATOM     32  N   UNL     1      43.799   2.511  10.468  0.00  0.00    +0.000 NA
ATOM     33  C   UNL     1      43.377   2.230  11.658  0.00  0.00    +0.000 A 
ATOM     34  N   UNL     1      43.600   3.002  12.765  0.00  0.00    +0.000 N 
ATOM     35  C   UNL     1      44.329   4.162  12.726  0.00  0.00    +0.000 A 
ATOM     36  O   UNL     1      44.561   4.791  13.753  0.00  0.00    +0.000 OA
ATOM     37  C   UNL     1      44.816   4.528  11.410  0.00  0.00    +0.000 A 
ATOM     38  H   UNL     1      43.258   2.729  13.675  0.00  0.00    +0.000 HD
ENDBRANCH  25  28
ENDBRANCH   1  24
TORSDOF 7
ENDMDL
