MODEL 1
REMARK VINA RESULT:    -8.165      0.000      0.000
REMARK INTER + INTRA:         -12.392
REMARK INTER:                 -11.506
REMARK INTRA:                  -0.886
REMARK UNBOUND:                -0.886
REMARK  Name = 
REMARK  7 active torsions:
REMARK  status: ('A' for Active; 'I' for Inactive)
REMARK    1  A    between atoms: C_2  and  C_4
REMARK    2  A    between atoms: C_7  and  O_8
REMARK    3  A    between atoms: O_8  and  C_9
REMARK    4  A    between atoms: C_9  and  C_10
REMARK    5  A    between atoms: C_10  and  C_11
REMARK    6  A    between atoms: C_15  and  O_16
REMARK    7  A    between atoms: O_16  and  C_17
REMARK                            x       y       z     vdW  Elec       q    Type
REMARK                         _______ _______ _______ _____ _____    ______ ____
ROOT
ATOM      1  C   UNL     1      43.991   3.148  11.781  0.00  0.00    +0.000 C 
ENDROOT
BRANCH   1   2
ATOM      2  O   UNL     1      43.505   3.485  10.475  0.00  0.00    +0.000 OA
BRANCH   2   6
ATOM      3  C   UNL     1      46.367   2.692   7.611  0.00  0.00    +0.000 A 
ATOM      4  C   UNL     1      45.911   4.000   7.782  0.00  0.00    +0.000 A 
ATOM      5  C   UNL     1      44.936   4.263   8.749  0.00  0.00    +0.000 A 
ATOM      6  C   UNL     1      44.458   3.205   9.507  0.00  0.00    +0.000 A 
ATOM      7  N   UNL     1      44.876   1.930   9.345  0.00  0.00    +0.000 NA
ATOM      8  C   UNL     1      45.812   1.698   8.398  0.00  0.00    +0.000 A 
BRANCH   3  10
ATOM      9  N   UNL     1      47.523   3.080   5.513  0.00  0.00    +0.000 N 
ATOM     10  C   UNL     1      47.401   2.304   6.631  0.00  0.00    +0.000 C 
ATOM     11  O   UNL     1      48.155   1.359   6.833  0.00  0.00    +0.000 OA
ATOM     12  H   UNL     1      48.319   2.882   4.918  0.00  0.00    +0.000 HD
ATOM     13  H   UNL     1      47.114   4.002   5.450  0.00  0.00    +0.000 HD
ENDBRANCH   3  10
ENDBRANCH   2   6
ENDBRANCH   1   2
BRANCH   1  14
ATOM     14  C   UNL     1      43.910   4.345  12.729  0.00  0.00    +0.000 C 
BRANCH  14  15
ATOM     15  C   UNL     1      45.285   4.956  12.883  0.00  0.00    +0.000 A 
ATOM     16  C   UNL     1      45.707   5.984  12.034  0.00  0.00    +0.000 A 
ATOM     17  C   UNL     1      46.910   6.652  12.283  0.00  0.00    +0.000 A 
ATOM     18  C   UNL     1      47.708   6.296  13.376  0.00  0.00    +0.000 A 
ATOM     19  C   UNL     1      47.310   5.253  14.210  0.00  0.00    +0.000 A 
ATOM     20  C   UNL     1      46.103   4.592  13.964  0.00  0.00    +0.000 A 
BRANCH  19  21
ATOM     21  O   UNL     1      47.981   4.833  15.331  0.00  0.00    +0.000 OA
BRANCH  21  22
ATOM     22  C   UNL     1      47.273   4.093  16.350  0.00  0.00    +0.000 C 
ATOM     23  C   UNL     1      47.256   4.665  17.782  0.00  0.00    +0.000 C 
ATOM     24  N   UNL     1      47.664   3.356  18.322  0.00  0.00    +0.000 NA
ATOM     25  C   UNL     1      48.071   2.924  16.974  0.00  0.00    +0.000 C 
ATOM     26  H   UNL     1      46.898   2.810  18.715  0.00  0.00    +0.000 HD
ENDBRANCH  21  22
ENDBRANCH  19  21
ENDBRANCH  14  15
ENDBRANCH   1  14
TORSDOF 7
ENDMDL
MODEL 2
REMARK VINA RESULT:    -7.399      2.633      3.653
REMARK INTER + INTRA:         -11.313
REMARK INTER:                 -10.447
REMARK INTRA:                  -0.866
REMARK UNBOUND:                -0.886
REMARK  Name = 
REMARK  7 active torsions:
REMARK  status: ('A' for Active; 'I' for Inactive)
REMARK    1  A    between atoms: C_2  and  C_4
REMARK    2  A    between atoms: C_7  and  O_8
REMARK    3  A    between atoms: O_8  and  C_9
REMARK    4  A    between atoms: C_9  and  C_10
REMARK    5  A    between atoms: C_10  and  C_11
REMARK    6  A    between atoms: C_15  and  O_16
REMARK    7  A    between atoms: O_16  and  C_17
REMARK                            x       y       z     vdW  Elec       q    Type
REMARK                         _______ _______ _______ _____ _____    ______ ____
ROOT
ATOM      1  C   UNL     1      43.472   4.264  10.959  0.00  0.00    +0.000 C 
ENDROOT
BRANCH   1   2
ATOM      2  O   UNL     1      43.554   4.620   9.573  0.00  0.00    +0.000 OA
BRANCH   2   6
ATOM      3  C   UNL     1      46.546   2.496   7.687  0.00  0.00    +0.000 A 
ATOM      4  C   UNL     1      45.675   1.833   8.554  0.00  0.00    +0.000 A 
ATOM      5  C   UNL     1      44.667   2.559   9.196  0.00  0.00    +0.000 A 
ATOM      6  C   UNL     1      44.571   3.918   8.943  0.00  0.00    +0.000 A 
ATOM      7  N   UNL     1      45.414   4.579   8.119  0.00  0.00    +0.000 NA
ATOM      8  C   UNL     1      46.387   3.860   7.517  0.00  0.00    +0.000 A 
BRANCH   3  10
ATOM      9  N   UNL     1      48.521   2.628   6.283  0.00  0.00    +0.000 N 
ATOM     10  C   UNL     1      47.635   1.827   6.947  0.00  0.00    +0.000 C 
ATOM     11  O   UNL     1      47.772   0.610   6.968  0.00  0.00    +0.000 OA
ATOM     12  H   UNL     1      49.334   2.164   5.893  0.00  0.00    +0.000 HD
ATOM     13  H   UNL     1      48.596   3.618   6.468  0.00  0.00    +0.000 HD
ENDBRANCH   3  10
ENDBRANCH   2   6
ENDBRANCH   1   2
BRANCH   1  14
ATOM     14  C   UNL     1      43.541   5.502  11.855  0.00  0.00    +0.000 C 
BRANCH  14  15
ATOM     15  C   UNL     1      44.830   5.476  12.646  0.00  0.00    +0.000 A 
ATOM     16  C   UNL     1      45.371   4.265  13.087  0.00  0.00    +0.000 A 
ATOM     17  C   UNL     1      46.640   4.235  13.673  0.00  0.00    +0.000 A 
ATOM     18  C   UNL     1      47.378   5.413  13.833  0.00  0.00    +0.000 A 
ATOM     19  C   UNL     1      46.834   6.628  13.424  0.00  0.00    +0.000 A 
ATOM     20  C   UNL     1      45.569   6.655  12.830  0.00  0.00    +0.000 A 
BRANCH  19  21
ATOM     21  O   UNL     1      47.468   7.844  13.491  0.00  0.00    +0.000 OA
BRANCH  21  22
ATOM     22  C   UNL     1      47.949   8.464  12.278  0.00  0.00    +0.000 C 
ATOM     23  C   UNL     1      49.105   7.777  11.523  0.00  0.00    +0.000 C 
ATOM     24  N   UNL     1      49.834   9.057  11.452  0.00  0.00    +0.000 NA
ATOM     25  C   UNL     1      48.959   9.616  12.497  0.00  0.00    +0.000 C 
ATOM     26  H   UNL     1      49.756   9.531  10.553  0.00  0.00    +0.000 HD
ENDBRANCH  21  22
ENDBRANCH  19  21
ENDBRANCH  14  15
ENDBRANCH   1  14
TORSDOF 7
ENDMDL
MODEL 3
REMARK VINA RESULT:    -6.746      1.630      1.868
REMARK INTER + INTRA:         -10.393
REMARK INTER:                  -9.771
REMARK INTRA:                  -0.622
REMARK UNBOUND:                -0.886
REMARK  Name = 
REMARK  7 active torsions:
REMARK  status: ('A' for Active; 'I' for Inactive)
REMARK    1  A    between atoms: C_2  and  C_4
REMARK    2  A    between atoms: C_7  and  O_8
REMARK    3  A    between atoms: O_8  and  C_9
REMARK    4  A    between atoms: C_9  and  C_10
REMARK    5  A    between atoms: C_10  and  C_11
REMARK    6  A    between atoms: C_15  and  O_16
REMARK    7  A    between atoms: O_16  and  C_17
REMARK                            x       y       z     vdW  Elec       q    Type
REMARK                         _______ _______ _______ _____ _____    ______ ____
ROOT
ATOM      1  C   UNL     1      44.740   4.774  11.539  0.00  0.00    +0.000 C 
ENDROOT
BRANCH   1   2
ATOM      2  O   UNL     1      43.959   4.171  10.499  0.00  0.00    +0.000 OA
BRANCH   2   6
ATOM      3  C   UNL     1      46.432   2.559   7.616  0.00  0.00    +0.000 A 
ATOM      4  C   UNL     1      46.278   3.945   7.692  0.00  0.00    +0.000 A 
ATOM      5  C   UNL     1      45.433   4.486   8.666  0.00  0.00    +0.000 A 
ATOM      6  C   UNL     1      44.778   3.618   9.526  0.00  0.00    +0.000 A 
ATOM      7  N   UNL     1      44.903   2.274   9.457  0.00  0.00    +0.000 NA
ATOM      8  C   UNL     1      45.716   1.772   8.502  0.00  0.00    +0.000 A 
BRANCH   3  10
ATOM      9  N   UNL     1      48.060   2.677   5.820  0.00  0.00    +0.000 N 
ATOM     10  C   UNL     1      47.307   1.883   6.637  0.00  0.00    +0.000 C 
ATOM     11  O   UNL     1      47.395   0.661   6.592  0.00  0.00    +0.000 OA
ATOM     12  H   UNL     1      48.748   2.202   5.248  0.00  0.00    +0.000 HD
ATOM     13  H   UNL     1      48.213   3.657   6.014  0.00  0.00    +0.000 HD
ENDBRANCH   3  10
ENDBRANCH   2   6
ENDBRANCH   1   2
BRANCH   1  14
ATOM     14  C   UNL     1      44.400   6.257  11.699  0.00  0.00    +0.000 C 
BRANCH  14  15
ATOM     15  C   UNL     1      45.584   6.979  12.301  0.00  0.00    +0.000 A 
ATOM     16  C   UNL     1      45.659   8.376  12.269  0.00  0.00    +0.000 A 
ATOM     17  C   UNL     1      46.670   9.042  12.967  0.00  0.00    +0.000 A 
ATOM     18  C   UNL     1      47.622   8.323  13.698  0.00  0.00    +0.000 A 
ATOM     19  C   UNL     1      47.573   6.931  13.713  0.00  0.00    +0.000 A 
ATOM     20  C   UNL     1      46.556   6.267  13.021  0.00  0.00    +0.000 A 
BRANCH  19  21
ATOM     21  O   UNL     1      48.421   6.114  14.418  0.00  0.00    +0.000 OA
BRANCH  21  22
ATOM     22  C   UNL     1      48.709   6.411  15.803  0.00  0.00    +0.000 C 
ATOM     23  C   UNL     1      50.187   6.453  16.242  0.00  0.00    +0.000 C 
ATOM     24  N   UNL     1      49.883   5.571  17.384  0.00  0.00    +0.000 NA
ATOM     25  C   UNL     1      48.600   5.201  16.760  0.00  0.00    +0.000 C 
ATOM     26  H   UNL     1      49.783   6.059  18.273  0.00  0.00    +0.000 HD
ENDBRANCH  21  22
ENDBRANCH  19  21
ENDBRANCH  14  15
ENDBRANCH   1  14
TORSDOF 7
ENDMDL
MODEL 4
REMARK VINA RESULT:    -6.717      3.176      4.737
REMARK INTER + INTRA:         -10.352
REMARK INTER:                 -10.126
REMARK INTRA:                  -0.227
REMARK UNBOUND:                -0.886
REMARK  Name = 
REMARK  7 active torsions:
REMARK  status: ('A' for Active; 'I' for Inactive)
REMARK    1  A    between atoms: C_2  and  C_4
REMARK    2  A    between atoms: C_7  and  O_8
REMARK    3  A    between atoms: O_8  and  C_9
REMARK    4  A    between atoms: C_9  and  C_10
REMARK    5  A    between atoms: C_10  and  C_11
REMARK    6  A    between atoms: C_15  and  O_16
REMARK    7  A    between atoms: O_16  and  C_17
REMARK                            x       y       z     vdW  Elec       q    Type
REMARK                         _______ _______ _______ _____ _____    ______ ____
ROOT
ATOM      1  C   UNL     1      43.728   3.904  11.300  0.00  0.00    +0.000 C 
ENDROOT
BRANCH   1   2
ATOM      2  O   UNL     1      43.601   4.258   9.916  0.00  0.00    +0.000 OA
BRANCH   2   6
ATOM      3  C   UNL     1      46.597   2.508   7.684  0.00  0.00    +0.000 A 
ATOM      4  C   UNL     1      46.410   3.890   7.619  0.00  0.00    +0.000 A 
ATOM      5  C   UNL     1      45.389   4.478   8.372  0.00  0.00    +0.000 A 
ATOM      6  C   UNL     1      44.597   3.658   9.161  0.00  0.00    +0.000 A 
ATOM      7  N   UNL     1      44.753   2.317   9.225  0.00  0.00    +0.000 NA
ATOM      8  C   UNL     1      45.740   1.769   8.481  0.00  0.00    +0.000 A 
BRANCH   3  10
ATOM      9  N   UNL     1      48.531   2.538   6.219  0.00  0.00    +0.000 N 
ATOM     10  C   UNL     1      47.651   1.785   6.944  0.00  0.00    +0.000 C 
ATOM     11  O   UNL     1      47.765   0.567   7.015  0.00  0.00    +0.000 OA
ATOM     12  H   UNL     1      49.322   2.042   5.826  0.00  0.00    +0.000 HD
ATOM     13  H   UNL     1      48.629   3.534   6.357  0.00  0.00    +0.000 HD
ENDBRANCH   3  10
ENDBRANCH   2   6
ENDBRANCH   1   2
BRANCH   1  14
ATOM     14  C   UNL     1      45.179   4.010  11.769  0.00  0.00    +0.000 C 
BRANCH  14  15
ATOM     15  C   UNL     1      45.467   5.433  12.189  0.00  0.00    +0.000 A 
ATOM     16  C   UNL     1      46.519   5.719  13.066  0.00  0.00    +0.000 A 
ATOM     17  C   UNL     1      46.880   7.045  13.322  0.00  0.00    +0.000 A 
ATOM     18  C   UNL     1      46.192   8.100  12.713  0.00  0.00    +0.000 A 
ATOM     19  C   UNL     1      45.124   7.826  11.861  0.00  0.00    +0.000 A 
ATOM     20  C   UNL     1      44.770   6.499  11.600  0.00  0.00    +0.000 A 
BRANCH  19  21
ATOM     21  O   UNL     1      44.395   8.765  11.175  0.00  0.00    +0.000 OA
BRANCH  21  22
ATOM     22  C   UNL     1      44.287  10.107  11.702  0.00  0.00    +0.000 C 
ATOM     23  C   UNL     1      43.038  10.932  11.332  0.00  0.00    +0.000 C 
ATOM     24  N   UNL     1      43.890  12.070  10.944  0.00  0.00    +0.000 NA
ATOM     25  C   UNL     1      45.064  11.180  10.902  0.00  0.00    +0.000 C 
ATOM     26  H   UNL     1      43.955  12.802  11.650  0.00  0.00    +0.000 HD
ENDBRANCH  21  22
ENDBRANCH  19  21
ENDBRANCH  14  15
ENDBRANCH   1  14
TORSDOF 7
ENDMDL
MODEL 5
REMARK VINA RESULT:    -6.633      1.910      7.997
REMARK INTER + INTRA:         -10.233
REMARK INTER:                  -9.757
REMARK INTRA:                  -0.476
REMARK UNBOUND:                -0.886
REMARK  Name = 
REMARK  7 active torsions:
REMARK  status: ('A' for Active; 'I' for Inactive)
REMARK    1  A    between atoms: C_2  and  C_4
REMARK    2  A    between atoms: C_7  and  O_8
REMARK    3  A    between atoms: O_8  and  C_9
REMARK    4  A    between atoms: C_9  and  C_10
REMARK    5  A    between atoms: C_10  and  C_11
REMARK    6  A    between atoms: C_15  and  O_16
REMARK    7  A    between atoms: O_16  and  C_17
REMARK                            x       y       z     vdW  Elec       q    Type
REMARK                         _______ _______ _______ _____ _____    ______ ____
ROOT
ATOM      1  C   UNL     1      47.345   6.532  11.759  0.00  0.00    +0.000 C 
ENDROOT
BRANCH   1   2
ATOM      2  O   UNL     1      47.512   7.143  13.046  0.00  0.00    +0.000 OA
BRANCH   2   6
ATOM      3  C   UNL     1      47.582   4.254  15.990  0.00  0.00    +0.000 A 
ATOM      4  C   UNL     1      46.843   4.031  14.827  0.00  0.00    +0.000 A 
ATOM      5  C   UNL     1      46.816   5.016  13.835  0.00  0.00    +0.000 A 
ATOM      6  C   UNL     1      47.533   6.184  14.047  0.00  0.00    +0.000 A 
ATOM      7  N   UNL     1      48.241   6.423  15.173  0.00  0.00    +0.000 NA
ATOM      8  C   UNL     1      48.244   5.462  16.123  0.00  0.00    +0.000 A 
BRANCH   3  10
ATOM      9  N   UNL     1      48.939   3.040  17.595  0.00  0.00    +0.000 N 
ATOM     10  C   UNL     1      47.690   3.279  17.094  0.00  0.00    +0.000 C 
ATOM     11  O   UNL     1      46.699   2.744  17.577  0.00  0.00    +0.000 OA
ATOM     12  H   UNL     1      48.981   2.473  18.434  0.00  0.00    +0.000 HD
ATOM     13  H   UNL     1      49.720   3.653  17.409  0.00  0.00    +0.000 HD
ENDBRANCH   3  10
ENDBRANCH   2   6
ENDBRANCH   1   2
BRANCH   1  14
ATOM     14  C   UNL     1      45.923   6.728  11.233  0.00  0.00    +0.000 C 
BRANCH  14  15
ATOM     15  C   UNL     1      45.460   5.458  10.555  0.00  0.00    +0.000 A 
ATOM     16  C   UNL     1      44.498   4.640  11.156  0.00  0.00    +0.000 A 
ATOM     17  C   UNL     1      43.958   3.558  10.454  0.00  0.00    +0.000 A 
ATOM     18  C   UNL     1      44.378   3.276   9.150  0.00  0.00    +0.000 A 
ATOM     19  C   UNL     1      45.358   4.067   8.554  0.00  0.00    +0.000 A 
ATOM     20  C   UNL     1      45.890   5.154   9.254  0.00  0.00    +0.000 A 
BRANCH  19  21
ATOM     21  O   UNL     1      45.827   3.919   7.273  0.00  0.00    +0.000 OA
BRANCH  21  22
ATOM     22  C   UNL     1      47.101   3.273   7.051  0.00  0.00    +0.000 C 
ATOM     23  C   UNL     1      47.428   2.789   5.624  0.00  0.00    +0.000 C 
ATOM     24  N   UNL     1      47.816   1.468   6.149  0.00  0.00    +0.000 NA
ATOM     25  C   UNL     1      47.138   1.772   7.421  0.00  0.00    +0.000 C 
ATOM     26  H   UNL     1      48.822   1.335   6.241  0.00  0.00    +0.000 HD
ENDBRANCH  21  22
ENDBRANCH  19  21
ENDBRANCH  14  15
ENDBRANCH   1  14
TORSDOF 7
ENDMDL
MODEL 6
REMARK VINA RESULT:    -6.324      3.235      4.426
REMARK INTER + INTRA:          -9.797
REMARK INTER:                  -9.237
REMARK INTRA:                  -0.561
REMARK UNBOUND:                -0.886
REMARK  Name = 
REMARK  7 active torsions:
REMARK  status: ('A' for Active; 'I' for Inactive)
REMARK    1  A    between atoms: C_2  and  C_4
REMARK    2  A    between atoms: C_7  and  O_8
REMARK    3  A    between atoms: O_8  and  C_9
REMARK    4  A    between atoms: C_9  and  C_10
REMARK    5  A    between atoms: C_10  and  C_11
REMARK    6  A    between atoms: C_15  and  O_16
REMARK    7  A    between atoms: O_16  and  C_17
REMARK                            x       y       z     vdW  Elec       q    Type
REMARK                         _______ _______ _______ _____ _____    ______ ____
ROOT
ATOM      1  C   UNL     1      45.049   5.183  11.289  0.00  0.00    +0.000 C 
ENDROOT
BRANCH   1   2
ATOM      2  O   UNL     1      44.300   4.799  10.128  0.00  0.00    +0.000 OA
BRANCH   2   6
ATOM      3  C   UNL     1      46.668   2.795   7.408  0.00  0.00    +0.000 A 
ATOM      4  C   UNL     1      45.917   2.067   8.332  0.00  0.00    +0.000 A 
ATOM      5  C   UNL     1      45.122   2.750   9.257  0.00  0.00    +0.000 A 
ATOM      6  C   UNL     1      45.109   4.136   9.218  0.00  0.00    +0.000 A 
ATOM      7  N   UNL     1      45.841   4.858   8.340  0.00  0.00    +0.000 NA
ATOM      8  C   UNL     1      46.610   4.177   7.462  0.00  0.00    +0.000 A 
BRANCH   3  10
ATOM      9  N   UNL     1      47.860   2.945   5.300  0.00  0.00    +0.000 N 
ATOM     10  C   UNL     1      47.530   2.177   6.380  0.00  0.00    +0.000 C 
ATOM     11  O   UNL     1      47.974   1.043   6.513  0.00  0.00    +0.000 OA
ATOM     12  H   UNL     1      48.555   2.556   4.673  0.00  0.00    +0.000 HD
ATOM     13  H   UNL     1      47.741   3.949   5.295  0.00  0.00    +0.000 HD
ENDBRANCH   3  10
ENDBRANCH   2   6
ENDBRANCH   1   2
BRANCH   1  14
ATOM     14  C   UNL     1      45.378   6.676  11.268  0.00  0.00    +0.000 C 
BRANCH  14  15
ATOM     15  C   UNL     1      46.616   6.927  12.101  0.00  0.00    +0.000 A 
ATOM     16  C   UNL     1      46.804   6.262  13.316  0.00  0.00    +0.000 A 
ATOM     17  C   UNL     1      48.019   6.375  13.998  0.00  0.00    +0.000 A 
ATOM     18  C   UNL     1      49.055   7.160  13.480  0.00  0.00    +0.000 A 
ATOM     19  C   UNL     1      48.866   7.850  12.285  0.00  0.00    +0.000 A 
ATOM     20  C   UNL     1      47.653   7.728  11.600  0.00  0.00    +0.000 A 
BRANCH  19  21
ATOM     21  O   UNL     1      49.812   8.620  11.655  0.00  0.00    +0.000 OA
BRANCH  21  22
ATOM     22  C   UNL     1      51.181   8.160  11.596  0.00  0.00    +0.000 C 
ATOM     23  C   UNL     1      52.224   8.876  12.478  0.00  0.00    +0.000 C 
ATOM     24  N   UNL     1      53.122   9.021  11.318  0.00  0.00    +0.000 NA
ATOM     25  C   UNL     1      52.001   8.720  10.410  0.00  0.00    +0.000 C 
ATOM     26  H   UNL     1      53.873   8.334  11.285  0.00  0.00    +0.000 HD
ENDBRANCH  21  22
ENDBRANCH  19  21
ENDBRANCH  14  15
ENDBRANCH   1  14
TORSDOF 7
ENDMDL
MODEL 7
REMARK VINA RESULT:    -6.214      3.187      7.512
REMARK INTER + INTRA:          -9.643
REMARK INTER:                  -8.739
REMARK INTRA:                  -0.904
REMARK UNBOUND:                -0.886
REMARK  Name = 
REMARK  7 active torsions:
REMARK  status: ('A' for Active; 'I' for Inactive)
REMARK    1  A    between atoms: C_2  and  C_4
REMARK    2  A    between atoms: C_7  and  O_8
REMARK    3  A    between atoms: O_8  and  C_9
REMARK    4  A    between atoms: C_9  and  C_10
REMARK    5  A    between atoms: C_10  and  C_11
REMARK    6  A    between atoms: C_15  and  O_16
REMARK    7  A    between atoms: O_16  and  C_17
REMARK                            x       y       z     vdW  Elec       q    Type
REMARK                         _______ _______ _______ _____ _____    ______ ____
ROOT
ATOM      1  C   UNL     1      49.575   7.204  13.140  0.00  0.00    +0.000 C 
ENDROOT
BRANCH   1   2
ATOM      2  O   UNL     1      49.054   7.672  14.391  0.00  0.00    +0.000 OA
BRANCH   2   6
ATOM      3  C   UNL     1      48.114   4.539  16.905  0.00  0.00    +0.000 A 
ATOM      4  C   UNL     1      49.032   5.503  17.323  0.00  0.00    +0.000 A 
ATOM      5  C   UNL     1      49.353   6.560  16.465  0.00  0.00    +0.000 A 
ATOM      6  C   UNL     1      48.740   6.608  15.223  0.00  0.00    +0.000 A 
ATOM      7  N   UNL     1      47.861   5.675  14.795  0.00  0.00    +0.000 NA
ATOM      8  C   UNL     1      47.573   4.658  15.636  0.00  0.00    +0.000 A 
BRANCH   3  10
ATOM      9  N   UNL     1      48.434   3.123  18.849  0.00  0.00    +0.000 N 
ATOM     10  C   UNL     1      47.694   3.391  17.733  0.00  0.00    +0.000 C 
ATOM     11  O   UNL     1      46.694   2.736  17.462  0.00  0.00    +0.000 OA
ATOM     12  H   UNL     1      48.058   2.419  19.475  0.00  0.00    +0.000 HD
ATOM     13  H   UNL     1      49.082   3.793  19.240  0.00  0.00    +0.000 HD
ENDBRANCH   3  10
ENDBRANCH   2   6
ENDBRANCH   1   2
BRANCH   1  14
ATOM     14  C   UNL     1      48.983   7.985  11.966  0.00  0.00    +0.000 C 
BRANCH  14  15
ATOM     15  C   UNL     1      47.480   7.814  11.959  0.00  0.00    +0.000 A 
ATOM     16  C   UNL     1      46.641   8.871  12.326  0.00  0.00    +0.000 A 
ATOM     17  C   UNL     1      45.258   8.760  12.163  0.00  0.00    +0.000 A 
ATOM     18  C   UNL     1      44.696   7.591  11.638  0.00  0.00    +0.000 A 
ATOM     19  C   UNL     1      45.520   6.522  11.297  0.00  0.00    +0.000 A 
ATOM     20  C   UNL     1      46.905   6.638  11.453  0.00  0.00    +0.000 A 
BRANCH  19  21
ATOM     21  O   UNL     1      45.099   5.340  10.741  0.00  0.00    +0.000 OA
BRANCH  21  22
ATOM     22  C   UNL     1      44.085   4.558  11.413  0.00  0.00    +0.000 C 
ATOM     23  C   UNL     1      44.382   4.065  12.844  0.00  0.00    +0.000 C 
ATOM     24  N   UNL     1      43.973   2.699  12.470  0.00  0.00    +0.000 NA
ATOM     25  C   UNL     1      44.077   3.056  11.044  0.00  0.00    +0.000 C 
ATOM     26  H   UNL     1      43.028   2.452  12.763  0.00  0.00    +0.000 HD
ENDBRANCH  21  22
ENDBRANCH  19  21
ENDBRANCH  14  15
ENDBRANCH   1  14
TORSDOF 7
ENDMDL
MODEL 8
REMARK VINA RESULT:    -6.078      2.658      4.457
REMARK INTER + INTRA:          -9.452
REMARK INTER:                  -8.596
REMARK INTRA:                  -0.856
REMARK UNBOUND:                -0.886
REMARK  Name = 
REMARK  7 active torsions:
REMARK  status: ('A' for Active; 'I' for Inactive)
REMARK    1  A    between atoms: C_2  and  C_4
REMARK    2  A    between atoms: C_7  and  O_8
REMARK    3  A    between atoms: O_8  and  C_9
REMARK    4  A    between atoms: C_9  and  C_10
REMARK    5  A    between atoms: C_10  and  C_11
REMARK    6  A    between atoms: C_15  and  O_16
REMARK    7  A    between atoms: O_16  and  C_17
REMARK                            x       y       z     vdW  Elec       q    Type
REMARK                         _______ _______ _______ _____ _____    ______ ____
ROOT
ATOM      1  C   UNL     1      46.536   8.085  13.097  0.00  0.00    +0.000 C 
ENDROOT
BRANCH   1   2
ATOM      2  O   UNL     1      46.754   7.588  11.769  0.00  0.00    +0.000 OA
BRANCH   2   6
ATOM      3  C   UNL     1      44.717   4.042  11.226  0.00  0.00    +0.000 A 
ATOM      4  C   UNL     1      45.015   4.471  12.520  0.00  0.00    +0.000 A 
ATOM      5  C   UNL     1      45.711   5.670  12.700  0.00  0.00    +0.000 A 
ATOM      6  C   UNL     1      46.080   6.392  11.575  0.00  0.00    +0.000 A 
ATOM      7  N   UNL     1      45.814   5.984  10.314  0.00  0.00    +0.000 NA
ATOM      8  C   UNL     1      45.149   4.817  10.164  0.00  0.00    +0.000 A 
BRANCH   3  10
ATOM      9  N   UNL     1      44.446   2.029   9.897  0.00  0.00    +0.000 N 
ATOM     10  C   UNL     1      43.976   2.801  10.922  0.00  0.00    +0.000 C 
ATOM     11  O   UNL     1      43.012   2.449  11.591  0.00  0.00    +0.000 OA
ATOM     12  H   UNL     1      44.009   1.122   9.786  0.00  0.00    +0.000 HD
ATOM     13  H   UNL     1      45.374   2.148   9.515  0.00  0.00    +0.000 HD
ENDBRANCH   3  10
ENDBRANCH   2   6
ENDBRANCH   1   2
BRANCH   1  14
ATOM     14  C   UNL     1      47.712   8.940  13.569  0.00  0.00    +0.000 C 
BRANCH  14  15
ATOM     15  C   UNL     1      48.281   8.351  14.840  0.00  0.00    +0.000 A 
ATOM     16  C   UNL     1      48.490   9.153  15.966  0.00  0.00    +0.000 A 
ATOM     17  C   UNL     1      48.861   8.573  17.183  0.00  0.00    +0.000 A 
ATOM     18  C   UNL     1      49.035   7.189  17.287  0.00  0.00    +0.000 A 
ATOM     19  C   UNL     1      48.857   6.385  16.164  0.00  0.00    +0.000 A 
ATOM     20  C   UNL     1      48.478   6.965  14.950  0.00  0.00    +0.000 A 
BRANCH  19  21
ATOM     21  O   UNL     1      48.961   5.016  16.143  0.00  0.00    +0.000 OA
BRANCH  21  22
ATOM     22  C   UNL     1      48.475   4.248  17.267  0.00  0.00    +0.000 C 
ATOM     23  C   UNL     1      48.235   2.738  17.062  0.00  0.00    +0.000 C 
ATOM     24  N   UNL     1      46.893   2.858  17.659  0.00  0.00    +0.000 NA
ATOM     25  C   UNL     1      46.945   4.321  17.488  0.00  0.00    +0.000 C 
ATOM     26  H   UNL     1      46.843   2.560  18.633  0.00  0.00    +0.000 HD
ENDBRANCH  21  22
ENDBRANCH  19  21
ENDBRANCH  14  15
ENDBRANCH   1  14
TORSDOF 7
ENDMDL
MODEL 9
REMARK VINA RESULT:    -6.025      1.859      8.369
REMARK INTER + INTRA:          -9.377
REMARK INTER:                  -9.137
REMARK INTRA:                  -0.241
REMARK UNBOUND:                -0.886
REMARK  Name = 
REMARK  7 active torsions:
REMARK  status: ('A' for Active; 'I' for Inactive)
REMARK    1  A    between atoms: C_2  and  C_4
REMARK    2  A    between atoms: C_7  and  O_8
REMARK    3  A    between atoms: O_8  and  C_9
REMARK    4  A    between atoms: C_9  and  C_10
REMARK    5  A    between atoms: C_10  and  C_11
REMARK    6  A    between atoms: C_15  and  O_16
REMARK    7  A    between atoms: O_16  and  C_17
REMARK                            x       y       z     vdW  Elec       q    Type
REMARK                         _______ _______ _______ _____ _____    ______ ____
ROOT
ATOM      1  C   UNL     1      47.260   6.384  13.529  0.00  0.00    +0.000 C 
ENDROOT
BRANCH   1   2
ATOM      2  O   UNL     1      47.447   5.017  13.920  0.00  0.00    +0.000 OA
BRANCH   2   6
ATOM      3  C   UNL     1      48.359   4.701  17.931  0.00  0.00    +0.000 A 
ATOM      4  C   UNL     1      47.407   3.846  17.374  0.00  0.00    +0.000 A 
ATOM      5  C   UNL     1      47.096   3.961  16.015  0.00  0.00    +0.000 A 
ATOM      6  C   UNL     1      47.752   4.928  15.269  0.00  0.00    +0.000 A 
ATOM      7  N   UNL     1      48.665   5.775  15.795  0.00  0.00    +0.000 NA
ATOM      8  C   UNL     1      48.942   5.652  17.112  0.00  0.00    +0.000 A 
BRANCH   3  10
ATOM      9  N   UNL     1      48.429   3.547  20.064  0.00  0.00    +0.000 N 
ATOM     10  C   UNL     1      48.773   4.659  19.348  0.00  0.00    +0.000 C 
ATOM     11  O   UNL     1      49.440   5.556  19.849  0.00  0.00    +0.000 OA
ATOM     12  H   UNL     1      48.831   3.474  20.992  0.00  0.00    +0.000 HD
ATOM     13  H   UNL     1      48.128   2.692  19.620  0.00  0.00    +0.000 HD
ENDBRANCH   3  10
ENDBRANCH   2   6
ENDBRANCH   1   2
BRANCH   1  14
ATOM     14  C   UNL     1      46.949   6.497  12.036  0.00  0.00    +0.000 C 
BRANCH  14  15
ATOM     15  C   UNL     1      45.595   5.883  11.760  0.00  0.00    +0.000 A 
ATOM     16  C   UNL     1      44.431   6.654  11.851  0.00  0.00    +0.000 A 
ATOM     17  C   UNL     1      43.204   6.126  11.439  0.00  0.00    +0.000 A 
ATOM     18  C   UNL     1      43.123   4.822  10.938  0.00  0.00    +0.000 A 
ATOM     19  C   UNL     1      44.272   4.037  10.871  0.00  0.00    +0.000 A 
ATOM     20  C   UNL     1      45.499   4.569  11.276  0.00  0.00    +0.000 A 
BRANCH  19  21
ATOM     21  O   UNL     1      44.332   2.761  10.367  0.00  0.00    +0.000 OA
BRANCH  21  22
ATOM     22  C   UNL     1      44.534   2.563   8.950  0.00  0.00    +0.000 C 
ATOM     23  C   UNL     1      45.806   1.819   8.496  0.00  0.00    +0.000 C 
ATOM     24  N   UNL     1      46.095   2.885   7.520  0.00  0.00    +0.000 NA
ATOM     25  C   UNL     1      45.143   3.776   8.208  0.00  0.00    +0.000 C 
ATOM     26  H   UNL     1      45.827   2.658   6.563  0.00  0.00    +0.000 HD
ENDBRANCH  21  22
ENDBRANCH  19  21
ENDBRANCH  14  15
ENDBRANCH   1  14
TORSDOF 7
ENDMDL
