MODEL 1
REMARK VINA RESULT:    -8.466      0.000      0.000
REMARK INTER + INTRA:         -12.624
REMARK INTER:                 -11.435
REMARK INTRA:                  -1.189
REMARK UNBOUND:                -1.189
REMARK  Name = 
REMARK  6 active torsions:
REMARK  status: ('A' for Active; 'I' for Inactive)
REMARK    1  A    between atoms: C_2  and  C_4
REMARK    2  A    between atoms: C_7  and  O_8
REMARK    3  A    between atoms: O_8  and  C_9
REMARK    4  A    between atoms: C_9  and  C_10
REMARK    5  A    between atoms: C_10  and  C_11
REMARK    6  A    between atoms: C_15  and  C_16
REMARK                            x       y       z     vdW  Elec       q    Type
REMARK                         _______ _______ _______ _____ _____    ______ ____
ROOT
ATOM      1  C   UNL     1      43.205   4.903  10.924  0.00  0.00    +0.000 C 
ENDROOT
BRANCH   1   2
ATOM      2  O   UNL     1      43.511   3.550  10.588  0.00  0.00    +0.000 OA
BRANCH   2   6
ATOM      3  C   UNL     1      46.378   2.725   7.672  0.00  0.00    +0.000 A 
ATOM      4  C   UNL     1      46.005   4.057   7.881  0.00  0.00    +0.000 A 
ATOM      5  C   UNL     1      45.046   4.373   8.847  0.00  0.00    +0.000 A 
ATOM      6  C   UNL     1      44.448   3.365   9.607  0.00  0.00    +0.000 A 
ATOM      7  C   UNL     1      44.808   2.034   9.380  0.00  0.00    +0.000 A 
ATOM      8  C   UNL     1      45.764   1.711   8.412  0.00  0.00    +0.000 A 
BRANCH   3  10
ATOM      9  N   UNL     1      47.465   3.114   5.528  0.00  0.00    +0.000 N 
ATOM     10  C   UNL     1      47.404   2.354   6.662  0.00  0.00    +0.000 C 
ATOM     11  O   UNL     1      48.193   1.437   6.853  0.00  0.00    +0.000 OA
ATOM     12  H   UNL     1      48.239   2.923   4.905  0.00  0.00    +0.000 HD
ATOM     13  H   UNL     1      47.020   4.018   5.461  0.00  0.00    +0.000 HD
ENDBRANCH   3  10
ENDBRANCH   2   6
ENDBRANCH   1   2
BRANCH   1  14
ATOM     14  C   UNL     1      43.336   5.085  12.436  0.00  0.00    +0.000 C 
BRANCH  14  15
ATOM     15  C   UNL     1      44.773   5.327  12.816  0.00  0.00    +0.000 A 
ATOM     16  C   UNL     1      45.554   4.309  13.369  0.00  0.00    +0.000 A 
ATOM     17  C   UNL     1      46.902   4.531  13.635  0.00  0.00    +0.000 A 
ATOM     18  C   UNL     1      47.487   5.762  13.320  0.00  0.00    +0.000 A 
ATOM     19  C   UNL     1      46.747   6.793  12.714  0.00  0.00    +0.000 A 
ATOM     20  C   UNL     1      45.375   6.556  12.506  0.00  0.00    +0.000 A 
BRANCH  19  21
ATOM     21  C   UNL     1      47.387   8.025  12.194  0.00  0.00    +0.000 A 
ATOM     22  C   UNL     1      46.688   9.246  12.180  0.00  0.00    +0.000 A 
ATOM     23  C   UNL     1      47.317  10.446  11.839  0.00  0.00    +0.000 A 
ATOM     24  C   UNL     1      48.665  10.452  11.502  0.00  0.00    +0.000 A 
ATOM     25  C   UNL     1      49.375   9.256  11.473  0.00  0.00    +0.000 A 
ATOM     26  C   UNL     1      48.739   8.053  11.801  0.00  0.00    +0.000 A 
ENDBRANCH  19  21
ENDBRANCH  14  15
ENDBRANCH   1  14
TORSDOF 6
ENDMDL
MODEL 2
REMARK VINA RESULT:    -8.403      1.763      3.672
REMARK INTER + INTRA:         -12.539
REMARK INTER:                 -11.382
REMARK INTRA:                  -1.157
REMARK UNBOUND:                -1.189
REMARK  Name = 
REMARK  6 active torsions:
REMARK  status: ('A' for Active; 'I' for Inactive)
REMARK    1  A    between atoms: C_2  and  C_4
REMARK    2  A    between atoms: C_7  and  O_8
REMARK    3  A    between atoms: O_8  and  C_9
REMARK    4  A    between atoms: C_9  and  C_10
REMARK    5  A    between atoms: C_10  and  C_11
REMARK    6  A    between atoms: C_15  and  C_16
REMARK                            x       y       z     vdW  Elec       q    Type
REMARK                         _______ _______ _______ _____ _____    ______ ____
ROOT
ATOM      1  C   UNL     1      43.327   4.970  10.818  0.00  0.00    +0.000 C 
ENDROOT
BRANCH   1   2
ATOM      2  O   UNL     1      43.565   3.607  10.467  0.00  0.00    +0.000 OA
BRANCH   2   6
ATOM      3  C   UNL     1      46.428   2.679   7.577  0.00  0.00    +0.000 A 
ATOM      4  C   UNL     1      46.000   4.007   7.689  0.00  0.00    +0.000 A 
ATOM      5  C   UNL     1      45.040   4.356   8.643  0.00  0.00    +0.000 A 
ATOM      6  C   UNL     1      44.497   3.386   9.488  0.00  0.00    +0.000 A 
ATOM      7  C   UNL     1      44.912   2.058   9.359  0.00  0.00    +0.000 A 
ATOM      8  C   UNL     1      45.869   1.701   8.404  0.00  0.00    +0.000 A 
BRANCH   3  10
ATOM      9  N   UNL     1      47.455   2.931   5.383  0.00  0.00    +0.000 N 
ATOM     10  C   UNL     1      47.456   2.275   6.582  0.00  0.00    +0.000 C 
ATOM     11  O   UNL     1      48.299   1.425   6.837  0.00  0.00    +0.000 OA
ATOM     12  H   UNL     1      48.227   2.726   4.763  0.00  0.00    +0.000 HD
ATOM     13  H   UNL     1      46.958   3.798   5.245  0.00  0.00    +0.000 HD
ENDBRANCH   3  10
ENDBRANCH   2   6
ENDBRANCH   1   2
BRANCH   1  14
ATOM     14  C   UNL     1      43.614   5.159  12.307  0.00  0.00    +0.000 C 
BRANCH  14  15
ATOM     15  C   UNL     1      45.077   5.440  12.532  0.00  0.00    +0.000 A 
ATOM     16  C   UNL     1      45.776   6.328  11.710  0.00  0.00    +0.000 A 
ATOM     17  C   UNL     1      47.105   6.635  11.988  0.00  0.00    +0.000 A 
ATOM     18  C   UNL     1      47.735   6.082  13.108  0.00  0.00    +0.000 A 
ATOM     19  C   UNL     1      47.049   5.226  13.988  0.00  0.00    +0.000 A 
ATOM     20  C   UNL     1      45.724   4.894  13.651  0.00  0.00    +0.000 A 
BRANCH  19  21
ATOM     21  C   UNL     1      47.632   4.788  15.279  0.00  0.00    +0.000 A 
ATOM     22  C   UNL     1      48.327   5.697  16.098  0.00  0.00    +0.000 A 
ATOM     23  C   UNL     1      48.753   5.348  17.382  0.00  0.00    +0.000 A 
ATOM     24  C   UNL     1      48.491   4.077  17.878  0.00  0.00    +0.000 A 
ATOM     25  C   UNL     1      47.836   3.145  17.080  0.00  0.00    +0.000 A 
ATOM     26  C   UNL     1      47.424   3.492  15.789  0.00  0.00    +0.000 A 
ENDBRANCH  19  21
ENDBRANCH  14  15
ENDBRANCH   1  14
TORSDOF 6
ENDMDL
MODEL 3
REMARK VINA RESULT:    -7.933      3.714      7.032
REMARK INTER + INTRA:         -11.904
REMARK INTER:                 -10.658
REMARK INTRA:                  -1.245
REMARK UNBOUND:                -1.189
REMARK  Name = 
REMARK  6 active torsions:
REMARK  status: ('A' for Active; 'I' for Inactive)
REMARK    1  A    between atoms: C_2  and  C_4
REMARK    2  A    between atoms: C_7  and  O_8
REMARK    3  A    between atoms: O_8  and  C_9
REMARK    4  A    between atoms: C_9  and  C_10
REMARK    5  A    between atoms: C_10  and  C_11
REMARK    6  A    between atoms: C_15  and  C_16
REMARK                            x       y       z     vdW  Elec       q    Type
REMARK                         _______ _______ _______ _____ _____    ______ ____
ROOT
ATOM      1  C   UNL     1      45.323   7.145  12.648  0.00  0.00    +0.000 C 
ENDROOT
BRANCH   1   2
ATOM      2  O   UNL     1      46.643   6.607  12.575  0.00  0.00    +0.000 OA
BRANCH   2   6
ATOM      3  C   UNL     1      47.669   3.923  15.601  0.00  0.00    +0.000 A 
ATOM      4  C   UNL     1      48.003   5.272  15.765  0.00  0.00    +0.000 A 
ATOM      5  C   UNL     1      47.679   6.201  14.772  0.00  0.00    +0.000 A 
ATOM      6  C   UNL     1      47.025   5.792  13.608  0.00  0.00    +0.000 A 
ATOM      7  C   UNL     1      46.712   4.441  13.439  0.00  0.00    +0.000 A 
ATOM      8  C   UNL     1      47.038   3.506  14.426  0.00  0.00    +0.000 A 
BRANCH   3  10
ATOM      9  N   UNL     1      47.085   2.754  17.655  0.00  0.00    +0.000 N 
ATOM     10  C   UNL     1      47.988   2.912  16.642  0.00  0.00    +0.000 C 
ATOM     11  O   UNL     1      48.993   2.215  16.576  0.00  0.00    +0.000 OA
ATOM     12  H   UNL     1      47.258   1.987  18.291  0.00  0.00    +0.000 HD
ATOM     13  H   UNL     1      46.143   3.113  17.597  0.00  0.00    +0.000 HD
ENDBRANCH   3  10
ENDBRANCH   2   6
ENDBRANCH   1   2
BRANCH   1  14
ATOM     14  C   UNL     1      44.614   6.912  11.315  0.00  0.00    +0.000 C 
BRANCH  14  15
ATOM     15  C   UNL     1      44.427   5.438  11.066  0.00  0.00    +0.000 A 
ATOM     16  C   UNL     1      43.449   4.709  11.748  0.00  0.00    +0.000 A 
ATOM     17  C   UNL     1      43.239   3.368  11.441  0.00  0.00    +0.000 A 
ATOM     18  C   UNL     1      43.984   2.753  10.429  0.00  0.00    +0.000 A 
ATOM     19  C   UNL     1      44.940   3.467   9.685  0.00  0.00    +0.000 A 
ATOM     20  C   UNL     1      45.166   4.806  10.054  0.00  0.00    +0.000 A 
BRANCH  19  21
ATOM     21  C   UNL     1      45.596   2.894   8.485  0.00  0.00    +0.000 A 
ATOM     22  C   UNL     1      45.953   3.716   7.401  0.00  0.00    +0.000 A 
ATOM     23  C   UNL     1      46.705   3.228   6.329  0.00  0.00    +0.000 A 
ATOM     24  C   UNL     1      47.119   1.901   6.318  0.00  0.00    +0.000 A 
ATOM     25  C   UNL     1      46.753   1.056   7.359  0.00  0.00    +0.000 A 
ATOM     26  C   UNL     1      45.987   1.542   8.424  0.00  0.00    +0.000 A 
ENDBRANCH  19  21
ENDBRANCH  14  15
ENDBRANCH   1  14
TORSDOF 6
ENDMDL
MODEL 4
REMARK VINA RESULT:    -7.792      1.118      2.148
REMARK INTER + INTRA:         -11.714
REMARK INTER:                 -10.706
REMARK INTRA:                  -1.008
REMARK UNBOUND:                -1.189
REMARK  Name = 
REMARK  6 active torsions:
REMARK  status: ('A' for Active; 'I' for Inactive)
REMARK    1  A    between atoms: C_2  and  C_4
REMARK    2  A    between atoms: C_7  and  O_8
REMARK    3  A    between atoms: O_8  and  C_9
REMARK    4  A    between atoms: C_9  and  C_10
REMARK    5  A    between atoms: C_10  and  C_11
REMARK    6  A    between atoms: C_15  and  C_16
REMARK                            x       y       z     vdW  Elec       q    Type
REMARK                         _______ _______ _______ _____ _____    ______ ____
ROOT
ATOM      1  C   UNL     1      44.186   4.224  11.726  0.00  0.00    +0.000 C 
ENDROOT
BRANCH   1   2
ATOM      2  O   UNL     1      43.953   4.516  10.348  0.00  0.00    +0.000 OA
BRANCH   2   6
ATOM      3  C   UNL     1      46.536   2.539   7.735  0.00  0.00    +0.000 A 
ATOM      4  C   UNL     1      46.493   3.937   7.699  0.00  0.00    +0.000 A 
ATOM      5  C   UNL     1      45.639   4.635   8.557  0.00  0.00    +0.000 A 
ATOM      6  C   UNL     1      44.818   3.946   9.452  0.00  0.00    +0.000 A 
ATOM      7  C   UNL     1      44.848   2.549   9.470  0.00  0.00    +0.000 A 
ATOM      8  C   UNL     1      45.697   1.844   8.612  0.00  0.00    +0.000 A 
BRANCH   3  10
ATOM      9  N   UNL     1      48.550   2.410   6.373  0.00  0.00    +0.000 N 
ATOM     10  C   UNL     1      47.442   1.765   6.846  0.00  0.00    +0.000 C 
ATOM     11  O   UNL     1      47.234   0.588   6.583  0.00  0.00    +0.000 OA
ATOM     12  H   UNL     1      49.213   1.840   5.864  0.00  0.00    +0.000 HD
ATOM     13  H   UNL     1      48.883   3.273   6.775  0.00  0.00    +0.000 HD
ENDBRANCH   3  10
ENDBRANCH   2   6
ENDBRANCH   1   2
BRANCH   1  14
ATOM     14  C   UNL     1      45.643   4.537  12.064  0.00  0.00    +0.000 C 
BRANCH  14  15
ATOM     15  C   UNL     1      45.862   6.027  12.125  0.00  0.00    +0.000 A 
ATOM     16  C   UNL     1      44.888   6.879  12.651  0.00  0.00    +0.000 A 
ATOM     17  C   UNL     1      45.146   8.241  12.774  0.00  0.00    +0.000 A 
ATOM     18  C   UNL     1      46.392   8.757  12.401  0.00  0.00    +0.000 A 
ATOM     19  C   UNL     1      47.416   7.923  11.918  0.00  0.00    +0.000 A 
ATOM     20  C   UNL     1      47.107   6.560  11.756  0.00  0.00    +0.000 A 
BRANCH  19  21
ATOM     21  C   UNL     1      48.800   8.413  11.706  0.00  0.00    +0.000 A 
ATOM     22  C   UNL     1      49.853   7.511  11.471  0.00  0.00    +0.000 A 
ATOM     23  C   UNL     1      51.131   7.952  11.119  0.00  0.00    +0.000 A 
ATOM     24  C   UNL     1      51.385   9.313  10.993  0.00  0.00    +0.000 A 
ATOM     25  C   UNL     1      50.373  10.231  11.252  0.00  0.00    +0.000 A 
ATOM     26  C   UNL     1      49.098   9.787  11.619  0.00  0.00    +0.000 A 
ENDBRANCH  19  21
ENDBRANCH  14  15
ENDBRANCH   1  14
TORSDOF 6
ENDMDL
MODEL 5
REMARK VINA RESULT:    -7.249      3.058      6.712
REMARK INTER + INTRA:         -10.981
REMARK INTER:                  -9.998
REMARK INTRA:                  -0.983
REMARK UNBOUND:                -1.189
REMARK  Name = 
REMARK  6 active torsions:
REMARK  status: ('A' for Active; 'I' for Inactive)
REMARK    1  A    between atoms: C_2  and  C_4
REMARK    2  A    between atoms: C_7  and  O_8
REMARK    3  A    between atoms: O_8  and  C_9
REMARK    4  A    between atoms: C_9  and  C_10
REMARK    5  A    between atoms: C_10  and  C_11
REMARK    6  A    between atoms: C_15  and  C_16
REMARK                            x       y       z     vdW  Elec       q    Type
REMARK                         _______ _______ _______ _____ _____    ______ ____
ROOT
ATOM      1  C   UNL     1      45.104   7.073  12.876  0.00  0.00    +0.000 C 
ENDROOT
BRANCH   1   2
ATOM      2  O   UNL     1      45.829   8.296  12.995  0.00  0.00    +0.000 OA
BRANCH   2   6
ATOM      3  C   UNL     1      49.824   8.013  11.826  0.00  0.00    +0.000 A 
ATOM      4  C   UNL     1      49.100   9.151  11.454  0.00  0.00    +0.000 A 
ATOM      5  C   UNL     1      47.759   9.281  11.824  0.00  0.00    +0.000 A 
ATOM      6  C   UNL     1      47.129   8.277  12.562  0.00  0.00    +0.000 A 
ATOM      7  C   UNL     1      47.849   7.132  12.913  0.00  0.00    +0.000 A 
ATOM      8  C   UNL     1      49.190   6.994  12.542  0.00  0.00    +0.000 A 
BRANCH   3  10
ATOM      9  N   UNL     1      52.177   8.017  12.454  0.00  0.00    +0.000 N 
ATOM     10  C   UNL     1      51.256   7.849  11.460  0.00  0.00    +0.000 C 
ATOM     11  O   UNL     1      51.598   7.531  10.328  0.00  0.00    +0.000 OA
ATOM     12  H   UNL     1      53.134   7.791  12.218  0.00  0.00    +0.000 HD
ATOM     13  H   UNL     1      51.921   8.016  13.431  0.00  0.00    +0.000 HD
ENDBRANCH   3  10
ENDBRANCH   2   6
ENDBRANCH   1   2
BRANCH   1  14
ATOM     14  C   UNL     1      44.685   6.880  11.419  0.00  0.00    +0.000 C 
BRANCH  14  15
ATOM     15  C   UNL     1      44.489   5.417  11.115  0.00  0.00    +0.000 A 
ATOM     16  C   UNL     1      43.487   4.677  11.748  0.00  0.00    +0.000 A 
ATOM     17  C   UNL     1      43.271   3.349  11.390  0.00  0.00    +0.000 A 
ATOM     18  C   UNL     1      44.032   2.761  10.374  0.00  0.00    +0.000 A 
ATOM     19  C   UNL     1      45.013   3.490   9.678  0.00  0.00    +0.000 A 
ATOM     20  C   UNL     1      45.244   4.813  10.098  0.00  0.00    +0.000 A 
BRANCH  19  21
ATOM     21  C   UNL     1      45.691   2.952   8.474  0.00  0.00    +0.000 A 
ATOM     22  C   UNL     1      46.010   3.793   7.393  0.00  0.00    +0.000 A 
ATOM     23  C   UNL     1      46.780   3.344   6.317  0.00  0.00    +0.000 A 
ATOM     24  C   UNL     1      47.251   2.037   6.299  0.00  0.00    +0.000 A 
ATOM     25  C   UNL     1      46.924   1.171   7.337  0.00  0.00    +0.000 A 
ATOM     26  C   UNL     1      46.140   1.619   8.405  0.00  0.00    +0.000 A 
ENDBRANCH  19  21
ENDBRANCH  14  15
ENDBRANCH   1  14
TORSDOF 6
ENDMDL
MODEL 6
REMARK VINA RESULT:    -6.889      4.066      7.623
REMARK INTER + INTRA:         -10.494
REMARK INTER:                  -9.263
REMARK INTRA:                  -1.231
REMARK UNBOUND:                -1.189
REMARK  Name = 
REMARK  6 active torsions:
REMARK  status: ('A' for Active; 'I' for Inactive)
REMARK    1  A    between atoms: C_2  and  C_4
REMARK    2  A    between atoms: C_7  and  O_8
REMARK    3  A    between atoms: O_8  and  C_9
REMARK    4  A    between atoms: C_9  and  C_10
REMARK    5  A    between atoms: C_10  and  C_11
REMARK    6  A    between atoms: C_15  and  C_16
REMARK                            x       y       z     vdW  Elec       q    Type
REMARK                         _______ _______ _______ _____ _____    ______ ____
ROOT
ATOM      1  C   UNL     1      49.567   7.292  13.081  0.00  0.00    +0.000 C 
ENDROOT
BRANCH   1   2
ATOM      2  O   UNL     1      49.141   7.700  14.380  0.00  0.00    +0.000 OA
BRANCH   2   6
ATOM      3  C   UNL     1      48.031   4.569  16.905  0.00  0.00    +0.000 A 
ATOM      4  C   UNL     1      49.001   5.473  17.351  0.00  0.00    +0.000 A 
ATOM      5  C   UNL     1      49.401   6.533  16.533  0.00  0.00    +0.000 A 
ATOM      6  C   UNL     1      48.842   6.697  15.264  0.00  0.00    +0.000 A 
ATOM      7  C   UNL     1      47.889   5.779  14.814  0.00  0.00    +0.000 A 
ATOM      8  C   UNL     1      47.488   4.715  15.625  0.00  0.00    +0.000 A 
BRANCH   3  10
ATOM      9  N   UNL     1      48.304   3.165  18.875  0.00  0.00    +0.000 N 
ATOM     10  C   UNL     1      47.573   3.438  17.754  0.00  0.00    +0.000 C 
ATOM     11  O   UNL     1      46.559   2.804  17.490  0.00  0.00    +0.000 OA
ATOM     12  H   UNL     1      47.918   2.470  19.501  0.00  0.00    +0.000 HD
ATOM     13  H   UNL     1      48.972   3.820  19.256  0.00  0.00    +0.000 HD
ENDBRANCH   3  10
ENDBRANCH   2   6
ENDBRANCH   1   2
BRANCH   1  14
ATOM     14  C   UNL     1      48.847   8.138  12.030  0.00  0.00    +0.000 C 
BRANCH  14  15
ATOM     15  C   UNL     1      47.380   7.795  11.991  0.00  0.00    +0.000 A 
ATOM     16  C   UNL     1      46.414   8.706  12.423  0.00  0.00    +0.000 A 
ATOM     17  C   UNL     1      45.062   8.400  12.299  0.00  0.00    +0.000 A 
ATOM     18  C   UNL     1      44.665   7.194  11.713  0.00  0.00    +0.000 A 
ATOM     19  C   UNL     1      45.607   6.274  11.217  0.00  0.00    +0.000 A 
ATOM     20  C   UNL     1      46.966   6.589  11.404  0.00  0.00    +0.000 A 
BRANCH  19  21
ATOM     21  C   UNL     1      45.210   5.089  10.420  0.00  0.00    +0.000 A 
ATOM     22  C   UNL     1      45.602   4.965   9.074  0.00  0.00    +0.000 A 
ATOM     23  C   UNL     1      45.370   3.794   8.350  0.00  0.00    +0.000 A 
ATOM     24  C   UNL     1      44.739   2.714   8.957  0.00  0.00    +0.000 A 
ATOM     25  C   UNL     1      44.310   2.819  10.275  0.00  0.00    +0.000 A 
ATOM     26  C   UNL     1      44.529   3.999  10.995  0.00  0.00    +0.000 A 
ENDBRANCH  19  21
ENDBRANCH  14  15
ENDBRANCH   1  14
TORSDOF 6
ENDMDL
MODEL 7
REMARK VINA RESULT:    -6.781      4.888      8.355
REMARK INTER + INTRA:         -10.349
REMARK INTER:                  -9.587
REMARK INTRA:                  -0.762
REMARK UNBOUND:                -1.189
REMARK  Name = 
REMARK  6 active torsions:
REMARK  status: ('A' for Active; 'I' for Inactive)
REMARK    1  A    between atoms: C_2  and  C_4
REMARK    2  A    between atoms: C_7  and  O_8
REMARK    3  A    between atoms: O_8  and  C_9
REMARK    4  A    between atoms: C_9  and  C_10
REMARK    5  A    between atoms: C_10  and  C_11
REMARK    6  A    between atoms: C_15  and  C_16
REMARK                            x       y       z     vdW  Elec       q    Type
REMARK                         _______ _______ _______ _____ _____    ______ ____
ROOT
ATOM      1  C   UNL     1      46.962   4.492  13.852  0.00  0.00    +0.000 C 
ENDROOT
BRANCH   1   2
ATOM      2  O   UNL     1      47.433   3.476  14.736  0.00  0.00    +0.000 OA
BRANCH   2   6
ATOM      3  C   UNL     1      48.469   4.474  18.653  0.00  0.00    +0.000 A 
ATOM      4  C   UNL     1      48.497   5.479  17.679  0.00  0.00    +0.000 A 
ATOM      5  C   UNL     1      48.160   5.183  16.355  0.00  0.00    +0.000 A 
ATOM      6  C   UNL     1      47.797   3.884  15.992  0.00  0.00    +0.000 A 
ATOM      7  C   UNL     1      47.790   2.879  16.963  0.00  0.00    +0.000 A 
ATOM      8  C   UNL     1      48.131   3.168  18.287  0.00  0.00    +0.000 A 
BRANCH   3  10
ATOM      9  N   UNL     1      47.770   4.991  20.927  0.00  0.00    +0.000 N 
ATOM     10  C   UNL     1      48.809   4.757  20.072  0.00  0.00    +0.000 C 
ATOM     11  O   UNL     1      49.967   4.737  20.472  0.00  0.00    +0.000 OA
ATOM     12  H   UNL     1      48.009   5.069  21.907  0.00  0.00    +0.000 HD
ATOM     13  H   UNL     1      46.817   4.757  20.693  0.00  0.00    +0.000 HD
ENDBRANCH   3  10
ENDBRANCH   2   6
ENDBRANCH   1   2
BRANCH   1  14
ATOM     14  C   UNL     1      45.459   4.676  14.057  0.00  0.00    +0.000 C 
BRANCH  14  15
ATOM     15  C   UNL     1      44.738   4.642  12.734  0.00  0.00    +0.000 A 
ATOM     16  C   UNL     1      43.566   5.376  12.532  0.00  0.00    +0.000 A 
ATOM     17  C   UNL     1      42.964   5.395  11.278  0.00  0.00    +0.000 A 
ATOM     18  C   UNL     1      43.545   4.706  10.208  0.00  0.00    +0.000 A 
ATOM     19  C   UNL     1      44.751   4.000  10.359  0.00  0.00    +0.000 A 
ATOM     20  C   UNL     1      45.308   3.956  11.651  0.00  0.00    +0.000 A 
BRANCH  19  21
ATOM     21  C   UNL     1      45.484   3.431   9.202  0.00  0.00    +0.000 A 
ATOM     22  C   UNL     1      45.693   2.044   9.096  0.00  0.00    +0.000 A 
ATOM     23  C   UNL     1      46.245   1.472   7.948  0.00  0.00    +0.000 A 
ATOM     24  C   UNL     1      46.601   2.279   6.873  0.00  0.00    +0.000 A 
ATOM     25  C   UNL     1      46.438   3.657   6.961  0.00  0.00    +0.000 A 
ATOM     26  C   UNL     1      45.900   4.229   8.119  0.00  0.00    +0.000 A 
ENDBRANCH  19  21
ENDBRANCH  14  15
ENDBRANCH   1  14
TORSDOF 6
ENDMDL
MODEL 8
REMARK VINA RESULT:    -6.759      3.131      6.875
REMARK INTER + INTRA:         -10.318
REMARK INTER:                  -9.172
REMARK INTRA:                  -1.147
REMARK UNBOUND:                -1.189
REMARK  Name = 
REMARK  6 active torsions:
REMARK  status: ('A' for Active; 'I' for Inactive)
REMARK    1  A    between atoms: C_2  and  C_4
REMARK    2  A    between atoms: C_7  and  O_8
REMARK    3  A    between atoms: O_8  and  C_9
REMARK    4  A    between atoms: C_9  and  C_10
REMARK    5  A    between atoms: C_10  and  C_11
REMARK    6  A    between atoms: C_15  and  C_16
REMARK                            x       y       z     vdW  Elec       q    Type
REMARK                         _______ _______ _______ _____ _____    ______ ____
ROOT
ATOM      1  C   UNL     1      47.200   4.687  13.672  0.00  0.00    +0.000 C 
ENDROOT
BRANCH   1   2
ATOM      2  O   UNL     1      48.052   5.628  14.325  0.00  0.00    +0.000 OA
BRANCH   2   6
ATOM      3  C   UNL     1      48.703   9.141  12.169  0.00  0.00    +0.000 A 
ATOM      4  C   UNL     1      48.305   9.244  13.507  0.00  0.00    +0.000 A 
ATOM      5  C   UNL     1      48.075   8.090  14.261  0.00  0.00    +0.000 A 
ATOM      6  C   UNL     1      48.233   6.827  13.687  0.00  0.00    +0.000 A 
ATOM      7  C   UNL     1      48.610   6.728  12.345  0.00  0.00    +0.000 A 
ATOM      8  C   UNL     1      48.838   7.879  11.584  0.00  0.00    +0.000 A 
BRANCH   3  10
ATOM      9  N   UNL     1      50.276  10.687  11.139  0.00  0.00    +0.000 N 
ATOM     10  C   UNL     1      48.969  10.347  11.342  0.00  0.00    +0.000 C 
ATOM     11  O   UNL     1      48.061  10.986  10.825  0.00  0.00    +0.000 OA
ATOM     12  H   UNL     1      50.444  11.439  10.483  0.00  0.00    +0.000 HD
ATOM     13  H   UNL     1      51.035  10.046  11.322  0.00  0.00    +0.000 HD
ENDBRANCH   3  10
ENDBRANCH   2   6
ENDBRANCH   1   2
BRANCH   1  14
ATOM     14  C   UNL     1      45.746   5.001  14.022  0.00  0.00    +0.000 C 
BRANCH  14  15
ATOM     15  C   UNL     1      44.863   4.826  12.814  0.00  0.00    +0.000 A 
ATOM     16  C   UNL     1      43.616   5.452  12.735  0.00  0.00    +0.000 A 
ATOM     17  C   UNL     1      42.855   5.343  11.576  0.00  0.00    +0.000 A 
ATOM     18  C   UNL     1      43.347   4.635  10.474  0.00  0.00    +0.000 A 
ATOM     19  C   UNL     1      44.619   4.036  10.497  0.00  0.00    +0.000 A 
ATOM     20  C   UNL     1      45.343   4.119  11.701  0.00  0.00    +0.000 A 
BRANCH  19  21
ATOM     21  C   UNL     1      45.240   3.454   9.283  0.00  0.00    +0.000 A 
ATOM     22  C   UNL     1      45.817   4.282   8.303  0.00  0.00    +0.000 A 
ATOM     23  C   UNL     1      46.537   3.754   7.229  0.00  0.00    +0.000 A 
ATOM     24  C   UNL     1      46.699   2.379   7.111  0.00  0.00    +0.000 A 
ATOM     25  C   UNL     1      46.111   1.532   8.045  0.00  0.00    +0.000 A 
ATOM     26  C   UNL     1      45.377   2.063   9.111  0.00  0.00    +0.000 A 
ENDBRANCH  19  21
ENDBRANCH  14  15
ENDBRANCH   1  14
TORSDOF 6
ENDMDL
MODEL 9
REMARK VINA RESULT:    -6.424      4.654      7.089
REMARK INTER + INTRA:          -9.866
REMARK INTER:                  -8.870
REMARK INTRA:                  -0.996
REMARK UNBOUND:                -1.189
REMARK  Name = 
REMARK  6 active torsions:
REMARK  status: ('A' for Active; 'I' for Inactive)
REMARK    1  A    between atoms: C_2  and  C_4
REMARK    2  A    between atoms: C_7  and  O_8
REMARK    3  A    between atoms: O_8  and  C_9
REMARK    4  A    between atoms: C_9  and  C_10
REMARK    5  A    between atoms: C_10  and  C_11
REMARK    6  A    between atoms: C_15  and  C_16
REMARK                            x       y       z     vdW  Elec       q    Type
REMARK                         _______ _______ _______ _____ _____    ______ ____
ROOT
ATOM      1  C   UNL     1      48.601   6.559  14.375  0.00  0.00    +0.000 C 
ENDROOT
BRANCH   1   2
ATOM      2  O   UNL     1      47.436   7.157  13.808  0.00  0.00    +0.000 OA
BRANCH   2   6
ATOM      3  C   UNL     1      44.850   4.854  11.480  0.00  0.00    +0.000 A 
ATOM      4  C   UNL     1      45.540   4.230  12.525  0.00  0.00    +0.000 A 
ATOM      5  C   UNL     1      46.417   4.968  13.325  0.00  0.00    +0.000 A 
ATOM      6  C   UNL     1      46.617   6.329  13.087  0.00  0.00    +0.000 A 
ATOM      7  C   UNL     1      45.942   6.944  12.029  0.00  0.00    +0.000 A 
ATOM      8  C   UNL     1      45.067   6.211  11.222  0.00  0.00    +0.000 A 
BRANCH   3  10
ATOM      9  N   UNL     1      43.922   4.378   9.280  0.00  0.00    +0.000 N 
ATOM     10  C   UNL     1      43.900   4.103  10.618  0.00  0.00    +0.000 C 
ATOM     11  O   UNL     1      43.160   3.242  11.075  0.00  0.00    +0.000 OA
ATOM     12  H   UNL     1      43.354   3.782   8.693  0.00  0.00    +0.000 HD
ATOM     13  H   UNL     1      44.686   4.876   8.845  0.00  0.00    +0.000 HD
ENDBRANCH   3  10
ENDBRANCH   2   6
ENDBRANCH   1   2
BRANCH   1  14
ATOM     14  C   UNL     1      48.566   6.736  15.892  0.00  0.00    +0.000 C 
BRANCH  14  15
ATOM     15  C   UNL     1      48.543   5.395  16.580  0.00  0.00    +0.000 A 
ATOM     16  C   UNL     1      47.353   4.674  16.715  0.00  0.00    +0.000 A 
ATOM     17  C   UNL     1      47.371   3.402  17.279  0.00  0.00    +0.000 A 
ATOM     18  C   UNL     1      48.581   2.828  17.684  0.00  0.00    +0.000 A 
ATOM     19  C   UNL     1      49.804   3.501  17.515  0.00  0.00    +0.000 A 
ATOM     20  C   UNL     1      49.748   4.806  16.991  0.00  0.00    +0.000 A 
BRANCH  19  21
ATOM     21  C   UNL     1      51.109   2.839  17.752  0.00  0.00    +0.000 A 
ATOM     22  C   UNL     1      51.310   1.496  17.385  0.00  0.00    +0.000 A 
ATOM     23  C   UNL     1      52.570   0.897  17.458  0.00  0.00    +0.000 A 
ATOM     24  C   UNL     1      53.663   1.631  17.903  0.00  0.00    +0.000 A 
ATOM     25  C   UNL     1      53.490   2.951  18.305  0.00  0.00    +0.000 A 
ATOM     26  C   UNL     1      52.224   3.544  18.245  0.00  0.00    +0.000 A 
ENDBRANCH  19  21
ENDBRANCH  14  15
ENDBRANCH   1  14
TORSDOF 6
ENDMDL
