MODEL 1
REMARK VINA RESULT:    -8.348      0.000      0.000
REMARK INTER + INTRA:         -11.474
REMARK INTER:                 -10.788
REMARK INTRA:                  -0.687
REMARK UNBOUND:                -0.687
REMARK  Name = 
REMARK  5 active torsions:
REMARK  status: ('A' for Active; 'I' for Inactive)
REMARK    1  A    between atoms: C_2  and  C_4
REMARK    2  A    between atoms: C_7  and  N_8
REMARK    3  A    between atoms: N_8  and  C_9
REMARK    4  A    between atoms: C_9  and  C_10
REMARK    5  A    between atoms: C_14  and  N_15
REMARK                            x       y       z     vdW  Elec       q    Type
REMARK                         _______ _______ _______ _____ _____    ______ ____
ROOT
ATOM      1  N   UNL     1      43.660   3.655  10.459  0.00  0.00    +0.000 N 
ATOM      2  H   UNL     1      42.667   3.616  10.232  0.00  0.00    +0.000 HD
ENDROOT
BRANCH   1   6
ATOM      3  C   UNL     1      46.439   2.635   7.458  0.00  0.00    +0.000 A 
ATOM      4  C   UNL     1      45.948   1.640   8.305  0.00  0.00    +0.000 A 
ATOM      5  C   UNL     1      45.008   1.961   9.294  0.00  0.00    +0.000 A 
ATOM      6  C   UNL     1      44.517   3.265   9.436  0.00  0.00    +0.000 A 
ATOM      7  C   UNL     1      45.039   4.253   8.593  0.00  0.00    +0.000 A 
ATOM      8  C   UNL     1      45.993   3.949   7.615  0.00  0.00    +0.000 A 
BRANCH   3  10
ATOM      9  N   UNL     1      47.454   3.151   5.308  0.00  0.00    +0.000 N 
ATOM     10  C   UNL     1      47.455   2.345   6.414  0.00  0.00    +0.000 C 
ATOM     11  O   UNL     1      48.284   1.456   6.548  0.00  0.00    +0.000 OA
ATOM     12  H   UNL     1      48.221   3.017   4.660  0.00  0.00    +0.000 HD
ATOM     13  H   UNL     1      46.969   4.034   5.285  0.00  0.00    +0.000 HD
ENDBRANCH   3  10
ENDBRANCH   1   6
BRANCH   1  14
ATOM     14  C   UNL     1      43.928   3.311  11.856  0.00  0.00    +0.000 C 
BRANCH  14  15
ATOM     15  C   UNL     1      45.132   4.050  12.420  0.00  0.00    +0.000 A 
ATOM     16  N   UNL     1      45.932   3.369  13.258  0.00  0.00    +0.000 NA
ATOM     17  C   UNL     1      46.942   4.066  13.789  0.00  0.00    +0.000 A 
ATOM     18  C   UNL     1      47.170   5.398  13.524  0.00  0.00    +0.000 A 
ATOM     19  C   UNL     1      46.301   6.046  12.665  0.00  0.00    +0.000 A 
ATOM     20  N   UNL     1      45.275   5.364  12.117  0.00  0.00    +0.000 NA
BRANCH  19  21
ATOM     21  N   UNL     1      46.388   7.406  12.431  0.00  0.00    +0.000 N 
ATOM     22  C   UNL     1      47.657   8.107  12.192  0.00  0.00    +0.000 C 
ATOM     23  C   UNL     1      47.528   9.554  12.703  0.00  0.00    +0.000 C 
ATOM     24  O   UNL     1      46.422  10.236  12.088  0.00  0.00    +0.000 OA
ATOM     25  C   UNL     1      45.192   9.536  12.349  0.00  0.00    +0.000 C 
ATOM     26  C   UNL     1      45.238   8.093  11.816  0.00  0.00    +0.000 C 
ENDBRANCH  19  21
ENDBRANCH  14  15
ENDBRANCH   1  14
TORSDOF 5
ENDMDL
MODEL 2
REMARK VINA RESULT:    -8.274      2.200      3.488
REMARK INTER + INTRA:         -11.379
REMARK INTER:                 -10.723
REMARK INTRA:                  -0.656
REMARK UNBOUND:                -0.687
REMARK  Name = 
REMARK  5 active torsions:
REMARK  status: ('A' for Active; 'I' for Inactive)
REMARK    1  A    between atoms: C_2  and  C_4
REMARK    2  A    between atoms: C_7  and  N_8
REMARK    3  A    between atoms: N_8  and  C_9
REMARK    4  A    between atoms: C_9  and  C_10
REMARK    5  A    between atoms: C_14  and  N_15
REMARK                            x       y       z     vdW  Elec       q    Type
REMARK                         _______ _______ _______ _____ _____    ______ ____
ROOT
ATOM      1  N   UNL     1      43.593   4.675   9.913  0.00  0.00    +0.000 N 
ATOM      2  H   UNL     1      42.671   4.637   9.482  0.00  0.00    +0.000 HD
ENDROOT
BRANCH   1   6
ATOM      3  C   UNL     1      46.400   2.333   7.814  0.00  0.00    +0.000 A 
ATOM      4  C   UNL     1      46.412   3.720   7.659  0.00  0.00    +0.000 A 
ATOM      5  C   UNL     1      45.498   4.513   8.367  0.00  0.00    +0.000 A 
ATOM      6  C   UNL     1      44.582   3.946   9.261  0.00  0.00    +0.000 A 
ATOM      7  C   UNL     1      44.570   2.551   9.385  0.00  0.00    +0.000 A 
ATOM      8  C   UNL     1      45.465   1.747   8.669  0.00  0.00    +0.000 A 
BRANCH   3  10
ATOM      9  N   UNL     1      48.453   2.038   6.542  0.00  0.00    +0.000 N 
ATOM     10  C   UNL     1      47.333   1.452   7.065  0.00  0.00    +0.000 C 
ATOM     11  O   UNL     1      47.137   0.250   6.953  0.00  0.00    +0.000 OA
ATOM     12  H   UNL     1      49.136   1.409   6.135  0.00  0.00    +0.000 HD
ATOM     13  H   UNL     1      48.769   2.950   6.833  0.00  0.00    +0.000 HD
ENDBRANCH   3  10
ENDBRANCH   1   6
BRANCH   1  14
ATOM     14  C   UNL     1      43.526   4.739  11.373  0.00  0.00    +0.000 C 
BRANCH  14  15
ATOM     15  C   UNL     1      44.596   5.642  11.968  0.00  0.00    +0.000 A 
ATOM     16  N   UNL     1      44.791   6.833  11.377  0.00  0.00    +0.000 NA
ATOM     17  C   UNL     1      45.784   7.575  11.881  0.00  0.00    +0.000 A 
ATOM     18  C   UNL     1      46.579   7.169  12.929  0.00  0.00    +0.000 A 
ATOM     19  C   UNL     1      46.338   5.925  13.484  0.00  0.00    +0.000 A 
ATOM     20  N   UNL     1      45.343   5.160  12.993  0.00  0.00    +0.000 NA
BRANCH  19  21
ATOM     21  N   UNL     1      47.157   5.393  14.462  0.00  0.00    +0.000 N 
ATOM     22  C   UNL     1      47.276   3.952  14.723  0.00  0.00    +0.000 C 
ATOM     23  C   UNL     1      47.604   3.744  16.213  0.00  0.00    +0.000 C 
ATOM     24  O   UNL     1      48.795   4.452  16.598  0.00  0.00    +0.000 OA
ATOM     25  C   UNL     1      48.646   5.861  16.344  0.00  0.00    +0.000 C 
ATOM     26  C   UNL     1      48.365   6.141  14.856  0.00  0.00    +0.000 C 
ENDBRANCH  19  21
ENDBRANCH  14  15
ENDBRANCH   1  14
TORSDOF 5
ENDMDL
MODEL 3
REMARK VINA RESULT:    -8.246      0.938      1.671
REMARK INTER + INTRA:         -11.343
REMARK INTER:                 -10.648
REMARK INTRA:                  -0.695
REMARK UNBOUND:                -0.687
REMARK  Name = 
REMARK  5 active torsions:
REMARK  status: ('A' for Active; 'I' for Inactive)
REMARK    1  A    between atoms: C_2  and  C_4
REMARK    2  A    between atoms: C_7  and  N_8
REMARK    3  A    between atoms: N_8  and  C_9
REMARK    4  A    between atoms: C_9  and  C_10
REMARK    5  A    between atoms: C_14  and  N_15
REMARK                            x       y       z     vdW  Elec       q    Type
REMARK                         _______ _______ _______ _____ _____    ______ ____
ROOT
ATOM      1  N   UNL     1      43.628   4.517  10.066  0.00  0.00    +0.000 N 
ATOM      2  H   UNL     1      42.717   4.545   9.610  0.00  0.00    +0.000 HD
ENDROOT
BRANCH   1   6
ATOM      3  C   UNL     1      46.502   2.509   7.725  0.00  0.00    +0.000 A 
ATOM      4  C   UNL     1      46.426   3.902   7.673  0.00  0.00    +0.000 A 
ATOM      5  C   UNL     1      45.490   4.584   8.462  0.00  0.00    +0.000 A 
ATOM      6  C   UNL     1      44.637   3.899   9.336  0.00  0.00    +0.000 A 
ATOM      7  C   UNL     1      44.711   2.501   9.356  0.00  0.00    +0.000 A 
ATOM      8  C   UNL     1      45.629   1.807   8.558  0.00  0.00    +0.000 A 
BRANCH   3  10
ATOM      9  N   UNL     1      48.513   2.439   6.358  0.00  0.00    +0.000 N 
ATOM     10  C   UNL     1      47.461   1.744   6.888  0.00  0.00    +0.000 C 
ATOM     11  O   UNL     1      47.345   0.539   6.710  0.00  0.00    +0.000 OA
ATOM     12  H   UNL     1      49.220   1.887   5.887  0.00  0.00    +0.000 HD
ATOM     13  H   UNL     1      48.776   3.353   6.691  0.00  0.00    +0.000 HD
ENDBRANCH   3  10
ENDBRANCH   1   6
BRANCH   1  14
ATOM     14  C   UNL     1      43.523   4.355  11.516  0.00  0.00    +0.000 C 
BRANCH  14  15
ATOM     15  C   UNL     1      44.819   4.692  12.238  0.00  0.00    +0.000 A 
ATOM     16  N   UNL     1      45.403   3.706  12.942  0.00  0.00    +0.000 NA
ATOM     17  C   UNL     1      46.503   4.051  13.619  0.00  0.00    +0.000 A 
ATOM     18  C   UNL     1      47.024   5.325  13.625  0.00  0.00    +0.000 A 
ATOM     19  C   UNL     1      46.368   6.298  12.893  0.00  0.00    +0.000 A 
ATOM     20  N   UNL     1      45.257   5.974  12.202  0.00  0.00    +0.000 NA
BRANCH  19  21
ATOM     21  N   UNL     1      46.757   7.625  12.932  0.00  0.00    +0.000 N 
ATOM     22  C   UNL     1      45.819   8.748  12.793  0.00  0.00    +0.000 C 
ATOM     23  C   UNL     1      46.561   9.934  12.150  0.00  0.00    +0.000 C 
ATOM     24  O   UNL     1      47.723  10.307  12.910  0.00  0.00    +0.000 OA
ATOM     25  C   UNL     1      48.629   9.194  13.020  0.00  0.00    +0.000 C 
ATOM     26  C   UNL     1      47.961   7.986  13.701  0.00  0.00    +0.000 C 
ENDBRANCH  19  21
ENDBRANCH  14  15
ENDBRANCH   1  14
TORSDOF 5
ENDMDL
MODEL 4
REMARK VINA RESULT:    -6.948      5.217      8.285
REMARK INTER + INTRA:          -9.665
REMARK INTER:                  -9.150
REMARK INTRA:                  -0.515
REMARK UNBOUND:                -0.687
REMARK  Name = 
REMARK  5 active torsions:
REMARK  status: ('A' for Active; 'I' for Inactive)
REMARK    1  A    between atoms: C_2  and  C_4
REMARK    2  A    between atoms: C_7  and  N_8
REMARK    3  A    between atoms: N_8  and  C_9
REMARK    4  A    between atoms: C_9  and  C_10
REMARK    5  A    between atoms: C_14  and  N_15
REMARK                            x       y       z     vdW  Elec       q    Type
REMARK                         _______ _______ _______ _____ _____    ______ ____
ROOT
ATOM      1  N   UNL     1      48.641   4.570  17.454  0.00  0.00    +0.000 N 
ATOM      2  H   UNL     1      48.841   5.555  17.285  0.00  0.00    +0.000 HD
ENDROOT
BRANCH   1   6
ATOM      3  C   UNL     1      52.017   2.057  17.686  0.00  0.00    +0.000 A 
ATOM      4  C   UNL     1      52.131   3.395  18.064  0.00  0.00    +0.000 A 
ATOM      5  C   UNL     1      51.012   4.237  18.012  0.00  0.00    +0.000 A 
ATOM      6  C   UNL     1      49.758   3.758  17.615  0.00  0.00    +0.000 A 
ATOM      7  C   UNL     1      49.669   2.419  17.216  0.00  0.00    +0.000 A 
ATOM      8  C   UNL     1      50.784   1.573  17.245  0.00  0.00    +0.000 A 
BRANCH   3  10
ATOM      9  N   UNL     1      52.968  -0.126  18.184  0.00  0.00    +0.000 N 
ATOM     10  C   UNL     1      53.182   1.135  17.701  0.00  0.00    +0.000 C 
ATOM     11  O   UNL     1      54.275   1.469  17.264  0.00  0.00    +0.000 OA
ATOM     12  H   UNL     1      53.737  -0.779  18.082  0.00  0.00    +0.000 HD
ATOM     13  H   UNL     1      52.043  -0.507  18.304  0.00  0.00    +0.000 HD
ENDBRANCH   3  10
ENDBRANCH   1   6
BRANCH   1  14
ATOM     14  C   UNL     1      47.457   4.109  16.729  0.00  0.00    +0.000 C 
BRANCH  14  15
ATOM     15  C   UNL     1      47.332   4.739  15.350  0.00  0.00    +0.000 A 
ATOM     16  N   UNL     1      48.200   5.718  15.044  0.00  0.00    +0.000 NA
ATOM     17  C   UNL     1      48.022   6.298  13.851  0.00  0.00    +0.000 A 
ATOM     18  C   UNL     1      47.020   5.945  12.976  0.00  0.00    +0.000 A 
ATOM     19  C   UNL     1      46.149   4.940  13.358  0.00  0.00    +0.000 A 
ATOM     20  N   UNL     1      46.309   4.341  14.555  0.00  0.00    +0.000 NA
BRANCH  19  21
ATOM     21  N   UNL     1      45.050   4.600  12.592  0.00  0.00    +0.000 N 
ATOM     22  C   UNL     1      44.282   5.573  11.801  0.00  0.00    +0.000 C 
ATOM     23  C   UNL     1      42.820   5.095  11.713  0.00  0.00    +0.000 C 
ATOM     24  O   UNL     1      42.728   3.772  11.159  0.00  0.00    +0.000 OA
ATOM     25  C   UNL     1      43.478   2.839  11.959  0.00  0.00    +0.000 C 
ATOM     26  C   UNL     1      44.963   3.234  12.046  0.00  0.00    +0.000 C 
ENDBRANCH  19  21
ENDBRANCH  14  15
ENDBRANCH   1  14
TORSDOF 5
ENDMDL
MODEL 5
REMARK VINA RESULT:    -6.679      3.758      8.251
REMARK INTER + INTRA:          -9.318
REMARK INTER:                  -8.918
REMARK INTRA:                  -0.400
REMARK UNBOUND:                -0.687
REMARK  Name = 
REMARK  5 active torsions:
REMARK  status: ('A' for Active; 'I' for Inactive)
REMARK    1  A    between atoms: C_2  and  C_4
REMARK    2  A    between atoms: C_7  and  N_8
REMARK    3  A    between atoms: N_8  and  C_9
REMARK    4  A    between atoms: C_9  and  C_10
REMARK    5  A    between atoms: C_14  and  N_15
REMARK                            x       y       z     vdW  Elec       q    Type
REMARK                         _______ _______ _______ _____ _____    ______ ____
ROOT
ATOM      1  N   UNL     1      46.538   4.083  14.898  0.00  0.00    +0.000 N 
ATOM      2  H   UNL     1      45.667   3.577  15.048  0.00  0.00    +0.000 HD
ENDROOT
BRANCH   1   6
ATOM      3  C   UNL     1      48.976   4.492  18.312  0.00  0.00    +0.000 A 
ATOM      4  C   UNL     1      48.214   3.334  18.148  0.00  0.00    +0.000 A 
ATOM      5  C   UNL     1      47.414   3.176  17.007  0.00  0.00    +0.000 A 
ATOM      6  C   UNL     1      47.384   4.147  15.999  0.00  0.00    +0.000 A 
ATOM      7  C   UNL     1      48.137   5.311  16.192  0.00  0.00    +0.000 A 
ATOM      8  C   UNL     1      48.924   5.489  17.337  0.00  0.00    +0.000 A 
BRANCH   3  10
ATOM      9  N   UNL     1      49.298   4.313  20.717  0.00  0.00    +0.000 N 
ATOM     10  C   UNL     1      49.817   4.713  19.516  0.00  0.00    +0.000 C 
ATOM     11  O   UNL     1      50.941   5.192  19.441  0.00  0.00    +0.000 OA
ATOM     12  H   UNL     1      49.924   4.362  21.512  0.00  0.00    +0.000 HD
ATOM     13  H   UNL     1      48.506   3.692  20.781  0.00  0.00    +0.000 HD
ENDBRANCH   3  10
ENDBRANCH   1   6
BRANCH   1  14
ATOM     14  C   UNL     1      46.374   5.221  13.992  0.00  0.00    +0.000 C 
BRANCH  14  15
ATOM     15  C   UNL     1      45.292   4.986  12.948  0.00  0.00    +0.000 A 
ATOM     16  N   UNL     1      44.023   5.234  13.315  0.00  0.00    +0.000 NA
ATOM     17  C   UNL     1      43.090   4.954  12.399  0.00  0.00    +0.000 A 
ATOM     18  C   UNL     1      43.376   4.435  11.157  0.00  0.00    +0.000 A 
ATOM     19  C   UNL     1      44.700   4.187  10.846  0.00  0.00    +0.000 A 
ATOM     20  N   UNL     1      45.659   4.462  11.753  0.00  0.00    +0.000 NA
BRANCH  19  21
ATOM     21  N   UNL     1      45.067   3.564   9.667  0.00  0.00    +0.000 N 
ATOM     22  C   UNL     1      44.731   2.169   9.351  0.00  0.00    +0.000 C 
ATOM     23  C   UNL     1      45.830   1.590   8.440  0.00  0.00    +0.000 C 
ATOM     24  O   UNL     1      46.000   2.377   7.249  0.00  0.00    +0.000 OA
ATOM     25  C   UNL     1      46.340   3.733   7.587  0.00  0.00    +0.000 C 
ATOM     26  C   UNL     1      45.254   4.388   8.460  0.00  0.00    +0.000 C 
ENDBRANCH  19  21
ENDBRANCH  14  15
ENDBRANCH   1  14
TORSDOF 5
ENDMDL
MODEL 6
REMARK VINA RESULT:    -6.616      2.331      6.817
REMARK INTER + INTRA:          -9.237
REMARK INTER:                  -8.638
REMARK INTRA:                  -0.599
REMARK UNBOUND:                -0.687
REMARK  Name = 
REMARK  5 active torsions:
REMARK  status: ('A' for Active; 'I' for Inactive)
REMARK    1  A    between atoms: C_2  and  C_4
REMARK    2  A    between atoms: C_7  and  N_8
REMARK    3  A    between atoms: N_8  and  C_9
REMARK    4  A    between atoms: C_9  and  C_10
REMARK    5  A    between atoms: C_14  and  N_15
REMARK                            x       y       z     vdW  Elec       q    Type
REMARK                         _______ _______ _______ _____ _____    ______ ____
ROOT
ATOM      1  N   UNL     1      46.215   6.375  13.424  0.00  0.00    +0.000 N 
ATOM      2  H   UNL     1      45.986   6.399  14.417  0.00  0.00    +0.000 HD
ENDROOT
BRANCH   1   6
ATOM      3  C   UNL     1      49.990   7.996  12.484  0.00  0.00    +0.000 A 
ATOM      4  C   UNL     1      49.089   7.715  11.456  0.00  0.00    +0.000 A 
ATOM      5  C   UNL     1      47.823   7.195  11.755  0.00  0.00    +0.000 A 
ATOM      6  C   UNL     1      47.419   6.977  13.078  0.00  0.00    +0.000 A 
ATOM      7  C   UNL     1      48.345   7.242  14.094  0.00  0.00    +0.000 A 
ATOM      8  C   UNL     1      49.621   7.743  13.806  0.00  0.00    +0.000 A 
BRANCH   3  10
ATOM      9  N   UNL     1      52.365   8.065  13.008  0.00  0.00    +0.000 N 
ATOM     10  C   UNL     1      51.352   8.523  12.212  0.00  0.00    +0.000 C 
ATOM     11  O   UNL     1      51.572   9.300  11.292  0.00  0.00    +0.000 OA
ATOM     12  H   UNL     1      53.303   8.341  12.740  0.00  0.00    +0.000 HD
ATOM     13  H   UNL     1      52.265   7.247  13.589  0.00  0.00    +0.000 HD
ENDBRANCH   3  10
ENDBRANCH   1   6
BRANCH   1  14
ATOM     14  C   UNL     1      45.029   6.492  12.574  0.00  0.00    +0.000 C 
BRANCH  14  15
ATOM     15  C   UNL     1      44.557   5.148  12.041  0.00  0.00    +0.000 A 
ATOM     16  N   UNL     1      43.764   4.415  12.842  0.00  0.00    +0.000 NA
ATOM     17  C   UNL     1      43.422   3.210  12.372  0.00  0.00    +0.000 A 
ATOM     18  C   UNL     1      43.844   2.719  11.158  0.00  0.00    +0.000 A 
ATOM     19  C   UNL     1      44.672   3.516  10.388  0.00  0.00    +0.000 A 
ATOM     20  N   UNL     1      45.031   4.734  10.840  0.00  0.00    +0.000 NA
BRANCH  19  21
ATOM     21  N   UNL     1      45.232   3.058   9.210  0.00  0.00    +0.000 N 
ATOM     22  C   UNL     1      45.251   1.642   8.819  0.00  0.00    +0.000 C 
ATOM     23  C   UNL     1      46.498   1.384   7.953  0.00  0.00    +0.000 C 
ATOM     24  O   UNL     1      46.536   2.250   6.807  0.00  0.00    +0.000 OA
ATOM     25  C   UNL     1      46.530   3.629   7.218  0.00  0.00    +0.000 C 
ATOM     26  C   UNL     1      45.279   3.965   8.049  0.00  0.00    +0.000 C 
ENDBRANCH  19  21
ENDBRANCH  14  15
ENDBRANCH   1  14
TORSDOF 5
ENDMDL
MODEL 7
REMARK VINA RESULT:    -6.241      3.894      5.898
REMARK INTER + INTRA:          -8.752
REMARK INTER:                  -8.165
REMARK INTRA:                  -0.588
REMARK UNBOUND:                -0.687
REMARK  Name = 
REMARK  5 active torsions:
REMARK  status: ('A' for Active; 'I' for Inactive)
REMARK    1  A    between atoms: C_2  and  C_4
REMARK    2  A    between atoms: C_7  and  N_8
REMARK    3  A    between atoms: N_8  and  C_9
REMARK    4  A    between atoms: C_9  and  C_10
REMARK    5  A    between atoms: C_14  and  N_15
REMARK                            x       y       z     vdW  Elec       q    Type
REMARK                         _______ _______ _______ _____ _____    ______ ____
ROOT
ATOM      1  N   UNL     1      47.021   7.338  12.448  0.00  0.00    +0.000 N 
ATOM      2  H   UNL     1      46.725   7.904  13.242  0.00  0.00    +0.000 HD
ENDROOT
BRANCH   1   6
ATOM      3  C   UNL     1      44.716   3.971  11.390  0.00  0.00    +0.000 A 
ATOM      4  C   UNL     1      45.086   4.158  12.723  0.00  0.00    +0.000 A 
ATOM      5  C   UNL     1      45.835   5.283  13.092  0.00  0.00    +0.000 A 
ATOM      6  C   UNL     1      46.200   6.256  12.153  0.00  0.00    +0.000 A 
ATOM      7  C   UNL     1      45.840   6.039  10.817  0.00  0.00    +0.000 A 
ATOM      8  C   UNL     1      45.109   4.908  10.433  0.00  0.00    +0.000 A 
BRANCH   3  10
ATOM      9  N   UNL     1      44.411   2.112   9.850  0.00  0.00    +0.000 N 
ATOM     10  C   UNL     1      43.945   2.781  10.949  0.00  0.00    +0.000 C 
ATOM     11  O   UNL     1      42.961   2.385  11.560  0.00  0.00    +0.000 OA
ATOM     12  H   UNL     1      43.946   1.240   9.629  0.00  0.00    +0.000 HD
ATOM     13  H   UNL     1      45.341   2.253   9.489  0.00  0.00    +0.000 HD
ENDBRANCH   3  10
ENDBRANCH   1   6
BRANCH   1  14
ATOM     14  C   UNL     1      48.477   7.245  12.339  0.00  0.00    +0.000 C 
BRANCH  14  15
ATOM     15  C   UNL     1      49.166   7.237  13.695  0.00  0.00    +0.000 A 
ATOM     16  N   UNL     1      50.259   8.008  13.832  0.00  0.00    +0.000 NA
ATOM     17  C   UNL     1      50.880   7.927  15.014  0.00  0.00    +0.000 A 
ATOM     18  C   UNL     1      50.461   7.110  16.039  0.00  0.00    +0.000 A 
ATOM     19  C   UNL     1      49.339   6.329  15.829  0.00  0.00    +0.000 A 
ATOM     20  N   UNL     1      48.696   6.393  14.646  0.00  0.00    +0.000 NA
BRANCH  19  21
ATOM     21  N   UNL     1      48.915   5.399  16.760  0.00  0.00    +0.000 N 
ATOM     22  C   UNL     1      49.112   5.555  18.208  0.00  0.00    +0.000 C 
ATOM     23  C   UNL     1      49.240   4.158  18.844  0.00  0.00    +0.000 C 
ATOM     24  O   UNL     1      48.097   3.336  18.551  0.00  0.00    +0.000 OA
ATOM     25  C   UNL     1      47.936   3.189  17.128  0.00  0.00    +0.000 C 
ATOM     26  C   UNL     1      47.753   4.552  16.436  0.00  0.00    +0.000 C 
ENDBRANCH  19  21
ENDBRANCH  14  15
ENDBRANCH   1  14
TORSDOF 5
ENDMDL
MODEL 8
REMARK VINA RESULT:    -5.741      4.060      8.457
REMARK INTER + INTRA:          -8.106
REMARK INTER:                  -7.601
REMARK INTRA:                  -0.506
REMARK UNBOUND:                -0.687
REMARK  Name = 
REMARK  5 active torsions:
REMARK  status: ('A' for Active; 'I' for Inactive)
REMARK    1  A    between atoms: C_2  and  C_4
REMARK    2  A    between atoms: C_7  and  N_8
REMARK    3  A    between atoms: N_8  and  C_9
REMARK    4  A    between atoms: C_9  and  C_10
REMARK    5  A    between atoms: C_14  and  N_15
REMARK                            x       y       z     vdW  Elec       q    Type
REMARK                         _______ _______ _______ _____ _____    ______ ____
ROOT
ATOM      1  N   UNL     1      48.119   6.119  14.546  0.00  0.00    +0.000 N 
ATOM      2  H   UNL     1      47.657   5.386  14.009  0.00  0.00    +0.000 HD
ENDROOT
BRANCH   1   6
ATOM      3  C   UNL     1      48.593   5.163  18.624  0.00  0.00    +0.000 A 
ATOM      4  C   UNL     1      49.072   6.384  18.146  0.00  0.00    +0.000 A 
ATOM      5  C   UNL     1      48.903   6.724  16.796  0.00  0.00    +0.000 A 
ATOM      6  C   UNL     1      48.229   5.874  15.910  0.00  0.00    +0.000 A 
ATOM      7  C   UNL     1      47.778   4.644  16.403  0.00  0.00    +0.000 A 
ATOM      8  C   UNL     1      47.958   4.285  17.745  0.00  0.00    +0.000 A 
BRANCH   3  10
ATOM      9  N   UNL     1      48.487   3.449  20.347  0.00  0.00    +0.000 N 
ATOM     10  C   UNL     1      48.773   4.751  20.039  0.00  0.00    +0.000 C 
ATOM     11  O   UNL     1      49.198   5.523  20.889  0.00  0.00    +0.000 OA
ATOM     12  H   UNL     1      48.723   3.151  21.287  0.00  0.00    +0.000 HD
ATOM     13  H   UNL     1      48.390   2.738  19.640  0.00  0.00    +0.000 HD
ENDBRANCH   3  10
ENDBRANCH   1   6
BRANCH   1  14
ATOM     14  C   UNL     1      47.830   7.457  14.029  0.00  0.00    +0.000 C 
BRANCH  14  15
ATOM     15  C   UNL     1      46.669   7.467  13.047  0.00  0.00    +0.000 A 
ATOM     16  N   UNL     1      46.188   8.667  12.679  0.00  0.00    +0.000 NA
ATOM     17  C   UNL     1      45.124   8.640  11.868  0.00  0.00    +0.000 A 
ATOM     18  C   UNL     1      44.531   7.478  11.430  0.00  0.00    +0.000 A 
ATOM     19  C   UNL     1      45.064   6.276  11.858  0.00  0.00    +0.000 A 
ATOM     20  N   UNL     1      46.136   6.277  12.675  0.00  0.00    +0.000 NA
BRANCH  19  21
ATOM     21  N   UNL     1      44.465   5.066  11.558  0.00  0.00    +0.000 N 
ATOM     22  C   UNL     1      43.420   4.452  12.390  0.00  0.00    +0.000 C 
ATOM     23  C   UNL     1      43.514   2.921  12.251  0.00  0.00    +0.000 C 
ATOM     24  O   UNL     1      43.410   2.506  10.879  0.00  0.00    +0.000 OA
ATOM     25  C   UNL     1      44.450   3.112  10.090  0.00  0.00    +0.000 C 
ATOM     26  C   UNL     1      44.381   4.648  10.147  0.00  0.00    +0.000 C 
ENDBRANCH  19  21
ENDBRANCH  14  15
ENDBRANCH   1  14
TORSDOF 5
ENDMDL
MODEL 9
REMARK VINA RESULT:    -5.721      4.660      6.895
REMARK INTER + INTRA:          -8.080
REMARK INTER:                  -7.497
REMARK INTRA:                  -0.583
REMARK UNBOUND:                -0.687
REMARK  Name = 
REMARK  5 active torsions:
REMARK  status: ('A' for Active; 'I' for Inactive)
REMARK    1  A    between atoms: C_2  and  C_4
REMARK    2  A    between atoms: C_7  and  N_8
REMARK    3  A    between atoms: N_8  and  C_9
REMARK    4  A    between atoms: C_9  and  C_10
REMARK    5  A    between atoms: C_14  and  N_15
REMARK                            x       y       z     vdW  Elec       q    Type
REMARK                         _______ _______ _______ _____ _____    ______ ____
ROOT
ATOM      1  N   UNL     1      48.569   6.707  13.613  0.00  0.00    +0.000 N 
ATOM      2  H   UNL     1      49.331   6.860  12.954  0.00  0.00    +0.000 HD
ENDROOT
BRANCH   1   6
ATOM      3  C   UNL     1      45.209   4.975  11.749  0.00  0.00    +0.000 A 
ATOM      4  C   UNL     1      45.610   4.514  13.004  0.00  0.00    +0.000 A 
ATOM      5  C   UNL     1      46.713   5.095  13.645  0.00  0.00    +0.000 A 
ATOM      6  C   UNL     1      47.414   6.161  13.066  0.00  0.00    +0.000 A 
ATOM      7  C   UNL     1      47.011   6.592  11.797  0.00  0.00    +0.000 A 
ATOM      8  C   UNL     1      45.922   6.007  11.138  0.00  0.00    +0.000 A 
BRANCH   3  10
ATOM      9  N   UNL     1      43.659   4.995   9.874  0.00  0.00    +0.000 N 
ATOM     10  C   UNL     1      44.062   4.371  11.023  0.00  0.00    +0.000 C 
ATOM     11  O   UNL     1      43.525   3.341  11.405  0.00  0.00    +0.000 OA
ATOM     12  H   UNL     1      42.955   4.512   9.328  0.00  0.00    +0.000 HD
ATOM     13  H   UNL     1      44.231   5.677   9.402  0.00  0.00    +0.000 HD
ENDBRANCH   3  10
ENDBRANCH   1   6
BRANCH   1  14
ATOM     14  C   UNL     1      48.512   7.737  14.651  0.00  0.00    +0.000 C 
BRANCH  14  15
ATOM     15  C   UNL     1      48.920   7.212  16.019  0.00  0.00    +0.000 A 
ATOM     16  N   UNL     1      49.035   8.111  17.011  0.00  0.00    +0.000 NA
ATOM     17  C   UNL     1      49.459   7.629  18.184  0.00  0.00    +0.000 A 
ATOM     18  C   UNL     1      49.777   6.306  18.392  0.00  0.00    +0.000 A 
ATOM     19  C   UNL     1      49.653   5.433  17.326  0.00  0.00    +0.000 A 
ATOM     20  N   UNL     1      49.227   5.896  16.134  0.00  0.00    +0.000 NA
BRANCH  19  21
ATOM     21  N   UNL     1      50.057   4.114  17.414  0.00  0.00    +0.000 N 
ATOM     22  C   UNL     1      51.224   3.674  18.192  0.00  0.00    +0.000 C 
ATOM     23  C   UNL     1      51.818   2.419  17.527  0.00  0.00    +0.000 C 
ATOM     24  O   UNL     1      50.840   1.372  17.402  0.00  0.00    +0.000 OA
ATOM     25  C   UNL     1      49.716   1.825  16.626  0.00  0.00    +0.000 C 
ATOM     26  C   UNL     1      49.044   3.053  17.267  0.00  0.00    +0.000 C 
ENDBRANCH  19  21
ENDBRANCH  14  15
ENDBRANCH   1  14
TORSDOF 5
ENDMDL
