MODEL 1
REMARK VINA RESULT:    -8.169      0.000      0.000
REMARK INTER + INTRA:         -10.020
REMARK INTER:                  -9.602
REMARK INTRA:                  -0.418
REMARK UNBOUND:                -0.418
REMARK  Name = 
REMARK  3 active torsions:
REMARK  status: ('A' for Active; 'I' for Inactive)
REMARK    1  A    between atoms: C_5  and  C_6
REMARK    2  A    between atoms: C_14  and  C_15
REMARK    3  A    between atoms: C_15  and  N_16
REMARK                            x       y       z     vdW  Elec       q    Type
REMARK                         _______ _______ _______ _____ _____    ______ ____
ROOT
ATOM      1  F   UNL     1      44.425   2.663  12.497  0.00  0.00    +0.000 F 
ATOM      2  C   UNL     1      45.181   3.769  12.450  0.00  0.00    +0.000 A 
ATOM      3  C   UNL     1      46.196   3.926  13.387  0.00  0.00    +0.000 A 
ATOM      4  C   UNL     1      46.958   5.097  13.413  0.00  0.00    +0.000 A 
ATOM      5  C   UNL     1      46.695   6.132  12.512  0.00  0.00    +0.000 A 
ATOM      6  C   UNL     1      45.688   5.921  11.550  0.00  0.00    +0.000 A 
ATOM      7  F   UNL     1      45.417   6.906  10.676  0.00  0.00    +0.000 F 
ATOM      8  C   UNL     1      44.914   4.754  11.499  0.00  0.00    +0.000 A 
ENDROOT
BRANCH   5   9
ATOM      9  C   UNL     1      47.382   7.495  12.570  0.00  0.00    +0.000 C 
ATOM     10  C   UNL     1      48.483   7.770  11.527  0.00  0.00    +0.000 C 
ATOM     11  C   UNL     1      49.883   7.300  11.929  0.00  0.00    +0.000 C 
ATOM     12  N   UNL     1      50.255   7.726  13.274  0.00  0.00    +0.000 NA
ATOM     13  C   UNL     1      49.293   7.238  14.260  0.00  0.00    +0.000 C 
ATOM     14  C   UNL     1      47.892   7.786  13.997  0.00  0.00    +0.000 C 
ATOM     15  H   UNL     1      50.285   8.746  13.309  0.00  0.00    +0.000 HD
ENDBRANCH   5   9
BRANCH   8  16
ATOM     16  C   UNL     1      43.806   4.604  10.499  0.00  0.00    +0.000 C 
BRANCH  16  17
ATOM     17  N   UNL     1      44.292   4.684   9.135  0.00  0.00    +0.000 N 
ATOM     18  C   UNL     1      45.126   3.686   8.648  0.00  0.00    +0.000 A 
ATOM     19  C   UNL     1      45.107   2.353   9.073  0.00  0.00    +0.000 A 
ATOM     20  N   UNL     1      45.904   1.377   8.564  0.00  0.00    +0.000 NA
ATOM     21  C   UNL     1      46.716   1.772   7.565  0.00  0.00    +0.000 A 
ATOM     22  C   UNL     1      46.736   3.080   7.115  0.00  0.00    +0.000 A 
ATOM     23  N   UNL     1      45.959   4.055   7.652  0.00  0.00    +0.000 NA
ATOM     24  H   UNL     1      44.682   5.577   8.840  0.00  0.00    +0.000 HD
ENDBRANCH  16  17
ENDBRANCH   8  16
TORSDOF 3
ENDMDL
MODEL 2
REMARK VINA RESULT:    -7.736      1.601      2.282
REMARK INTER + INTRA:          -9.510
REMARK INTER:                  -8.992
REMARK INTRA:                  -0.519
REMARK UNBOUND:                -0.418
REMARK  Name = 
REMARK  3 active torsions:
REMARK  status: ('A' for Active; 'I' for Inactive)
REMARK    1  A    between atoms: C_5  and  C_6
REMARK    2  A    between atoms: C_14  and  C_15
REMARK    3  A    between atoms: C_15  and  N_16
REMARK                            x       y       z     vdW  Elec       q    Type
REMARK                         _______ _______ _______ _____ _____    ______ ____
ROOT
ATOM      1  F   UNL     1      43.254   2.709  12.390  0.00  0.00    +0.000 F 
ATOM      2  C   UNL     1      44.097   3.733  12.202  0.00  0.00    +0.000 A 
ATOM      3  C   UNL     1      44.431   4.533  13.289  0.00  0.00    +0.000 A 
ATOM      4  C   UNL     1      45.252   5.651  13.118  0.00  0.00    +0.000 A 
ATOM      5  C   UNL     1      45.728   5.990  11.849  0.00  0.00    +0.000 A 
ATOM      6  C   UNL     1      45.405   5.134  10.778  0.00  0.00    +0.000 A 
ATOM      7  F   UNL     1      45.851   5.444   9.548  0.00  0.00    +0.000 F 
ATOM      8  C   UNL     1      44.589   4.004  10.926  0.00  0.00    +0.000 A 
ENDROOT
BRANCH   5   9
ATOM      9  C   UNL     1      46.506   7.272  11.556  0.00  0.00    +0.000 C 
ATOM     10  C   UNL     1      47.870   7.439  12.254  0.00  0.00    +0.000 C 
ATOM     11  C   UNL     1      47.807   8.066  13.649  0.00  0.00    +0.000 C 
ATOM     12  N   UNL     1      46.997   9.280  13.684  0.00  0.00    +0.000 NA
ATOM     13  C   UNL     1      45.635   9.011  13.226  0.00  0.00    +0.000 C 
ATOM     14  C   UNL     1      45.617   8.512  11.783  0.00  0.00    +0.000 C 
ATOM     15  H   UNL     1      47.421   9.986  13.082  0.00  0.00    +0.000 HD
ENDBRANCH   5   9
BRANCH   8  16
ATOM     16  C   UNL     1      44.216   3.160   9.742  0.00  0.00    +0.000 C 
BRANCH  16  17
ATOM     17  N   UNL     1      45.128   2.048   9.560  0.00  0.00    +0.000 N 
ATOM     18  C   UNL     1      45.933   2.004   8.429  0.00  0.00    +0.000 A 
ATOM     19  C   UNL     1      46.401   3.127   7.739  0.00  0.00    +0.000 A 
ATOM     20  N   UNL     1      47.217   3.073   6.653  0.00  0.00    +0.000 NA
ATOM     21  C   UNL     1      47.592   1.831   6.288  0.00  0.00    +0.000 A 
ATOM     22  C   UNL     1      47.157   0.708   6.968  0.00  0.00    +0.000 A 
ATOM     23  N   UNL     1      46.318   0.772   8.033  0.00  0.00    +0.000 NA
ATOM     24  H   UNL     1      44.746   1.115   9.698  0.00  0.00    +0.000 HD
ENDBRANCH  16  17
ENDBRANCH   8  16
TORSDOF 3
ENDMDL
MODEL 3
REMARK VINA RESULT:    -7.166      1.314      2.319
REMARK INTER + INTRA:          -8.840
REMARK INTER:                  -8.126
REMARK INTRA:                  -0.714
REMARK UNBOUND:                -0.418
REMARK  Name = 
REMARK  3 active torsions:
REMARK  status: ('A' for Active; 'I' for Inactive)
REMARK    1  A    between atoms: C_5  and  C_6
REMARK    2  A    between atoms: C_14  and  C_15
REMARK    3  A    between atoms: C_15  and  N_16
REMARK                            x       y       z     vdW  Elec       q    Type
REMARK                         _______ _______ _______ _____ _____    ______ ____
ROOT
ATOM      1  F   UNL     1      42.902   7.388  10.909  0.00  0.00    +0.000 F 
ATOM      2  C   UNL     1      44.034   7.055  11.544  0.00  0.00    +0.000 A 
ATOM      3  C   UNL     1      44.753   8.049  12.197  0.00  0.00    +0.000 A 
ATOM      4  C   UNL     1      45.973   7.751  12.810  0.00  0.00    +0.000 A 
ATOM      5  C   UNL     1      46.495   6.456  12.754  0.00  0.00    +0.000 A 
ATOM      6  C   UNL     1      45.719   5.465  12.122  0.00  0.00    +0.000 A 
ATOM      7  F   UNL     1      46.205   4.213  12.054  0.00  0.00    +0.000 F 
ATOM      8  C   UNL     1      44.490   5.738  11.505  0.00  0.00    +0.000 A 
ENDROOT
BRANCH   5   9
ATOM      9  C   UNL     1      47.884   6.085  13.270  0.00  0.00    +0.000 C 
ATOM     10  C   UNL     1      48.149   6.282  14.775  0.00  0.00    +0.000 C 
ATOM     11  C   UNL     1      48.626   7.682  15.168  0.00  0.00    +0.000 C 
ATOM     12  N   UNL     1      49.723   8.157  14.331  0.00  0.00    +0.000 NA
ATOM     13  C   UNL     1      49.336   8.169  12.922  0.00  0.00    +0.000 C 
ATOM     14  C   UNL     1      48.979   6.770  12.426  0.00  0.00    +0.000 C 
ATOM     15  H   UNL     1      50.531   7.545  14.452  0.00  0.00    +0.000 HD
ENDBRANCH   5   9
BRANCH   8  16
ATOM     16  C   UNL     1      43.733   4.662  10.783  0.00  0.00    +0.000 C 
BRANCH  16  17
ATOM     17  N   UNL     1      43.999   4.675   9.357  0.00  0.00    +0.000 N 
ATOM     18  C   UNL     1      44.862   3.732   8.816  0.00  0.00    +0.000 A 
ATOM     19  C   UNL     1      45.064   2.446   9.330  0.00  0.00    +0.000 A 
ATOM     20  N   UNL     1      45.885   1.519   8.771  0.00  0.00    +0.000 NA
ATOM     21  C   UNL     1      46.488   1.910   7.631  0.00  0.00    +0.000 A 
ATOM     22  C   UNL     1      46.288   3.169   7.094  0.00  0.00    +0.000 A 
ATOM     23  N   UNL     1      45.489   4.099   7.678  0.00  0.00    +0.000 NA
ATOM     24  H   UNL     1      44.233   5.576   8.944  0.00  0.00    +0.000 HD
ENDBRANCH  16  17
ENDBRANCH   8  16
TORSDOF 3
ENDMDL
MODEL 4
REMARK VINA RESULT:    -6.648      1.235      1.454
REMARK INTER + INTRA:          -8.232
REMARK INTER:                  -7.688
REMARK INTRA:                  -0.544
REMARK UNBOUND:                -0.418
REMARK  Name = 
REMARK  3 active torsions:
REMARK  status: ('A' for Active; 'I' for Inactive)
REMARK    1  A    between atoms: C_5  and  C_6
REMARK    2  A    between atoms: C_14  and  C_15
REMARK    3  A    between atoms: C_15  and  N_16
REMARK                            x       y       z     vdW  Elec       q    Type
REMARK                         _______ _______ _______ _____ _____    ______ ____
ROOT
ATOM      1  F   UNL     1      44.895   3.870  13.501  0.00  0.00    +0.000 F 
ATOM      2  C   UNL     1      45.745   4.893  13.334  0.00  0.00    +0.000 A 
ATOM      3  C   UNL     1      46.908   4.926  14.094  0.00  0.00    +0.000 A 
ATOM      4  C   UNL     1      47.784   6.011  13.999  0.00  0.00    +0.000 A 
ATOM      5  C   UNL     1      47.489   7.086  13.155  0.00  0.00    +0.000 A 
ATOM      6  C   UNL     1      46.324   6.998  12.368  0.00  0.00    +0.000 A 
ATOM      7  F   UNL     1      46.020   8.022  11.552  0.00  0.00    +0.000 F 
ATOM      8  C   UNL     1      45.433   5.918  12.442  0.00  0.00    +0.000 A 
ENDROOT
BRANCH   5   9
ATOM      9  C   UNL     1      48.316   8.368  13.104  0.00  0.00    +0.000 C 
ATOM     10  C   UNL     1      49.167   8.604  11.841  0.00  0.00    +0.000 C 
ATOM     11  C   UNL     1      50.562   7.975  11.877  0.00  0.00    +0.000 C 
ATOM     12  N   UNL     1      51.281   8.274  13.111  0.00  0.00    +0.000 NA
ATOM     13  C   UNL     1      50.528   7.817  14.277  0.00  0.00    +0.000 C 
ATOM     14  C   UNL     1      49.173   8.514  14.378  0.00  0.00    +0.000 C 
ATOM     15  H   UNL     1      51.430   9.281  13.180  0.00  0.00    +0.000 HD
ENDBRANCH   5   9
BRANCH   8  16
ATOM     16  C   UNL     1      44.169   5.902  11.634  0.00  0.00    +0.000 C 
BRANCH  16  17
ATOM     17  N   UNL     1      44.435   5.797  10.212  0.00  0.00    +0.000 N 
ATOM     18  C   UNL     1      44.792   4.567   9.674  0.00  0.00    +0.000 A 
ATOM     19  C   UNL     1      44.387   3.327  10.180  0.00  0.00    +0.000 A 
ATOM     20  N   UNL     1      44.713   2.131   9.624  0.00  0.00    +0.000 NA
ATOM     21  C   UNL     1      45.446   2.212   8.496  0.00  0.00    +0.000 A 
ATOM     22  C   UNL     1      45.840   3.427   7.968  0.00  0.00    +0.000 A 
ATOM     23  N   UNL     1      45.535   4.616   8.548  0.00  0.00    +0.000 NA
ATOM     24  H   UNL     1      45.055   6.497   9.809  0.00  0.00    +0.000 HD
ENDBRANCH  16  17
ENDBRANCH   8  16
TORSDOF 3
ENDMDL
MODEL 5
REMARK VINA RESULT:    -6.311      3.084      7.566
REMARK INTER + INTRA:          -7.836
REMARK INTER:                  -7.305
REMARK INTRA:                  -0.531
REMARK UNBOUND:                -0.418
REMARK  Name = 
REMARK  3 active torsions:
REMARK  status: ('A' for Active; 'I' for Inactive)
REMARK    1  A    between atoms: C_5  and  C_6
REMARK    2  A    between atoms: C_14  and  C_15
REMARK    3  A    between atoms: C_15  and  N_16
REMARK                            x       y       z     vdW  Elec       q    Type
REMARK                         _______ _______ _______ _____ _____    ______ ____
ROOT
ATOM      1  F   UNL     1      48.252   8.893  12.748  0.00  0.00    +0.000 F 
ATOM      2  C   UNL     1      47.501   7.783  12.787  0.00  0.00    +0.000 A 
ATOM      3  C   UNL     1      46.424   7.674  11.915  0.00  0.00    +0.000 A 
ATOM      4  C   UNL     1      45.578   6.563  11.974  0.00  0.00    +0.000 A 
ATOM      5  C   UNL     1      45.790   5.562  12.925  0.00  0.00    +0.000 A 
ATOM      6  C   UNL     1      46.915   5.685  13.763  0.00  0.00    +0.000 A 
ATOM      7  F   UNL     1      47.136   4.734  14.688  0.00  0.00    +0.000 F 
ATOM      8  C   UNL     1      47.782   6.786  13.719  0.00  0.00    +0.000 A 
ENDROOT
BRANCH   5   9
ATOM      9  C   UNL     1      44.830   4.396  13.149  0.00  0.00    +0.000 C 
ATOM     10  C   UNL     1      44.978   3.177  12.218  0.00  0.00    +0.000 C 
ATOM     11  C   UNL     1      44.197   3.271  10.905  0.00  0.00    +0.000 C 
ATOM     12  N   UNL     1      42.807   3.669  11.104  0.00  0.00    +0.000 NA
ATOM     13  C   UNL     1      42.727   4.955  11.793  0.00  0.00    +0.000 C 
ATOM     14  C   UNL     1      43.369   4.891  13.177  0.00  0.00    +0.000 C 
ATOM     15  H   UNL     1      42.329   2.959  11.660  0.00  0.00    +0.000 HD
ENDBRANCH   5   9
BRANCH   8  16
ATOM     16  C   UNL     1      48.928   6.905  14.681  0.00  0.00    +0.000 C 
BRANCH  16  17
ATOM     17  N   UNL     1      48.475   7.157  16.035  0.00  0.00    +0.000 N 
ATOM     18  C   UNL     1      48.844   6.284  17.050  0.00  0.00    +0.000 A 
ATOM     19  C   UNL     1      50.026   5.537  17.070  0.00  0.00    +0.000 A 
ATOM     20  N   UNL     1      50.393   4.711  18.086  0.00  0.00    +0.000 NA
ATOM     21  C   UNL     1      49.539   4.681  19.128  0.00  0.00    +0.000 A 
ATOM     22  C   UNL     1      48.375   5.427  19.138  0.00  0.00    +0.000 A 
ATOM     23  N   UNL     1      48.002   6.224  18.105  0.00  0.00    +0.000 NA
ATOM     24  H   UNL     1      47.486   7.365  16.156  0.00  0.00    +0.000 HD
ENDBRANCH  16  17
ENDBRANCH   8  16
TORSDOF 3
ENDMDL
MODEL 6
REMARK VINA RESULT:    -6.065      3.808      7.312
REMARK INTER + INTRA:          -7.546
REMARK INTER:                  -7.267
REMARK INTRA:                  -0.279
REMARK UNBOUND:                -0.418
REMARK  Name = 
REMARK  3 active torsions:
REMARK  status: ('A' for Active; 'I' for Inactive)
REMARK    1  A    between atoms: C_5  and  C_6
REMARK    2  A    between atoms: C_14  and  C_15
REMARK    3  A    between atoms: C_15  and  N_16
REMARK                            x       y       z     vdW  Elec       q    Type
REMARK                         _______ _______ _______ _____ _____    ______ ____
ROOT
ATOM      1  F   UNL     1      49.420   7.220  14.520  0.00  0.00    +0.000 F 
ATOM      2  C   UNL     1      48.404   6.474  14.062  0.00  0.00    +0.000 A 
ATOM      3  C   UNL     1      47.949   6.686  12.766  0.00  0.00    +0.000 A 
ATOM      4  C   UNL     1      46.848   5.977  12.279  0.00  0.00    +0.000 A 
ATOM      5  C   UNL     1      46.177   5.064  13.096  0.00  0.00    +0.000 A 
ATOM      6  C   UNL     1      46.691   4.844  14.389  0.00  0.00    +0.000 A 
ATOM      7  F   UNL     1      46.059   3.971  15.193  0.00  0.00    +0.000 F 
ATOM      8  C   UNL     1      47.798   5.538  14.899  0.00  0.00    +0.000 A 
ENDROOT
BRANCH   5   9
ATOM      9  C   UNL     1      44.884   4.362  12.690  0.00  0.00    +0.000 C 
ATOM     10  C   UNL     1      44.881   3.628  11.334  0.00  0.00    +0.000 C 
ATOM     11  C   UNL     1      44.518   4.500  10.130  0.00  0.00    +0.000 C 
ATOM     12  N   UNL     1      43.311   5.291  10.352  0.00  0.00    +0.000 NA
ATOM     13  C   UNL     1      43.458   6.147  11.527  0.00  0.00    +0.000 C 
ATOM     14  C   UNL     1      43.684   5.326  12.795  0.00  0.00    +0.000 C 
ATOM     15  H   UNL     1      42.517   4.665  10.489  0.00  0.00    +0.000 HD
ENDBRANCH   5   9
BRANCH   8  16
ATOM     16  C   UNL     1      48.266   5.318  16.307  0.00  0.00    +0.000 C 
BRANCH  16  17
ATOM     17  N   UNL     1      48.406   3.909  16.619  0.00  0.00    +0.000 N 
ATOM     18  C   UNL     1      49.644   3.416  17.010  0.00  0.00    +0.000 A 
ATOM     19  C   UNL     1      50.620   4.157  17.685  0.00  0.00    +0.000 A 
ATOM     20  N   UNL     1      51.815   3.654  18.094  0.00  0.00    +0.000 NA
ATOM     21  C   UNL     1      51.997   2.345  17.834  0.00  0.00    +0.000 A 
ATOM     22  C   UNL     1      51.037   1.589  17.186  0.00  0.00    +0.000 A 
ATOM     23  N   UNL     1      49.860   2.108  16.754  0.00  0.00    +0.000 NA
ATOM     24  H   UNL     1      48.014   3.250  15.948  0.00  0.00    +0.000 HD
ENDBRANCH  16  17
ENDBRANCH   8  16
TORSDOF 3
ENDMDL
MODEL 7
REMARK VINA RESULT:    -6.042      3.854      5.818
REMARK INTER + INTRA:          -7.520
REMARK INTER:                  -6.822
REMARK INTRA:                  -0.698
REMARK UNBOUND:                -0.418
REMARK  Name = 
REMARK  3 active torsions:
REMARK  status: ('A' for Active; 'I' for Inactive)
REMARK    1  A    between atoms: C_5  and  C_6
REMARK    2  A    between atoms: C_14  and  C_15
REMARK    3  A    between atoms: C_15  and  N_16
REMARK                            x       y       z     vdW  Elec       q    Type
REMARK                         _______ _______ _______ _____ _____    ______ ____
ROOT
ATOM      1  F   UNL     1      48.941   8.375  13.745  0.00  0.00    +0.000 F 
ATOM      2  C   UNL     1      48.844   7.472  14.731  0.00  0.00    +0.000 A 
ATOM      3  C   UNL     1      49.537   7.697  15.914  0.00  0.00    +0.000 A 
ATOM      4  C   UNL     1      49.516   6.744  16.937  0.00  0.00    +0.000 A 
ATOM      5  C   UNL     1      48.816   5.546  16.773  0.00  0.00    +0.000 A 
ATOM      6  C   UNL     1      48.090   5.372  15.579  0.00  0.00    +0.000 A 
ATOM      7  F   UNL     1      47.412   4.225  15.399  0.00  0.00    +0.000 F 
ATOM      8  C   UNL     1      48.091   6.314  14.541  0.00  0.00    +0.000 A 
ENDROOT
BRANCH   5   9
ATOM      9  C   UNL     1      48.864   4.398  17.779  0.00  0.00    +0.000 C 
ATOM     10  C   UNL     1      49.102   4.770  19.256  0.00  0.00    +0.000 C 
ATOM     11  C   UNL     1      50.573   4.885  19.662  0.00  0.00    +0.000 C 
ATOM     12  N   UNL     1      51.368   3.741  19.228  0.00  0.00    +0.000 NA
ATOM     13  C   UNL     1      51.291   3.573  17.778  0.00  0.00    +0.000 C 
ATOM     14  C   UNL     1      49.858   3.312  17.319  0.00  0.00    +0.000 C 
ATOM     15  H   UNL     1      51.021   2.896  19.683  0.00  0.00    +0.000 HD
ENDBRANCH   5   9
BRANCH   8  16
ATOM     16  C   UNL     1      47.357   6.052  13.259  0.00  0.00    +0.000 C 
BRANCH  16  17
ATOM     17  N   UNL     1      45.929   6.259  13.399  0.00  0.00    +0.000 N 
ATOM     18  C   UNL     1      45.050   5.297  12.917  0.00  0.00    +0.000 A 
ATOM     19  C   UNL     1      45.331   3.930  12.834  0.00  0.00    +0.000 A 
ATOM     20  N   UNL     1      44.451   2.993  12.393  0.00  0.00    +0.000 NA
ATOM     21  C   UNL     1      43.234   3.470  12.064  0.00  0.00    +0.000 A 
ATOM     22  C   UNL     1      42.928   4.815  12.158  0.00  0.00    +0.000 A 
ATOM     23  N   UNL     1      43.825   5.747  12.569  0.00  0.00    +0.000 NA
ATOM     24  H   UNL     1      45.568   7.169  13.118  0.00  0.00    +0.000 HD
ENDBRANCH  16  17
ENDBRANCH   8  16
TORSDOF 3
ENDMDL
MODEL 8
REMARK VINA RESULT:    -5.962      2.174      2.754
REMARK INTER + INTRA:          -7.425
REMARK INTER:                  -6.889
REMARK INTRA:                  -0.536
REMARK UNBOUND:                -0.418
REMARK  Name = 
REMARK  3 active torsions:
REMARK  status: ('A' for Active; 'I' for Inactive)
REMARK    1  A    between atoms: C_5  and  C_6
REMARK    2  A    between atoms: C_14  and  C_15
REMARK    3  A    between atoms: C_15  and  N_16
REMARK                            x       y       z     vdW  Elec       q    Type
REMARK                         _______ _______ _______ _____ _____    ______ ____
ROOT
ATOM      1  F   UNL     1      46.800   4.728  13.295  0.00  0.00    +0.000 F 
ATOM      2  C   UNL     1      47.108   6.008  13.043  0.00  0.00    +0.000 A 
ATOM      3  C   UNL     1      48.316   6.510  13.513  0.00  0.00    +0.000 A 
ATOM      4  C   UNL     1      48.640   7.858  13.331  0.00  0.00    +0.000 A 
ATOM      5  C   UNL     1      47.743   8.720  12.695  0.00  0.00    +0.000 A 
ATOM      6  C   UNL     1      46.548   8.168  12.194  0.00  0.00    +0.000 A 
ATOM      7  F   UNL     1      45.670   8.981  11.582  0.00  0.00    +0.000 F 
ATOM      8  C   UNL     1      46.204   6.819  12.359  0.00  0.00    +0.000 A 
ENDROOT
BRANCH   5   9
ATOM      9  C   UNL     1      47.958  10.228  12.587  0.00  0.00    +0.000 C 
ATOM     10  C   UNL     1      48.438  10.773  11.228  0.00  0.00    +0.000 C 
ATOM     11  C   UNL     1      49.956  10.772  11.033  0.00  0.00    +0.000 C 
ATOM     12  N   UNL     1      50.668  11.359  12.165  0.00  0.00    +0.000 NA
ATOM     13  C   UNL     1      50.351  10.651  13.403  0.00  0.00    +0.000 C 
ATOM     14  C   UNL     1      48.862  10.732  13.731  0.00  0.00    +0.000 C 
ATOM     15  H   UNL     1      50.402  12.339  12.260  0.00  0.00    +0.000 HD
ENDBRANCH   5   9
BRANCH   8  16
ATOM     16  C   UNL     1      44.887   6.292  11.869  0.00  0.00    +0.000 C 
BRANCH  16  17
ATOM     17  N   UNL     1      44.879   6.107  10.430  0.00  0.00    +0.000 N 
ATOM     18  C   UNL     1      44.923   4.820   9.909  0.00  0.00    +0.000 A 
ATOM     19  C   UNL     1      44.409   3.684  10.542  0.00  0.00    +0.000 A 
ATOM     20  N   UNL     1      44.427   2.435  10.006  0.00  0.00    +0.000 NA
ATOM     21  C   UNL     1      44.954   2.358   8.769  0.00  0.00    +0.000 A 
ATOM     22  C   UNL     1      45.449   3.471   8.115  0.00  0.00    +0.000 A 
ATOM     23  N   UNL     1      45.455   4.709   8.673  0.00  0.00    +0.000 NA
ATOM     24  H   UNL     1      45.528   6.676   9.892  0.00  0.00    +0.000 HD
ENDBRANCH  16  17
ENDBRANCH   8  16
TORSDOF 3
ENDMDL
MODEL 9
REMARK VINA RESULT:    -5.814      2.498      7.388
REMARK INTER + INTRA:          -7.251
REMARK INTER:                  -6.605
REMARK INTRA:                  -0.647
REMARK UNBOUND:                -0.418
REMARK  Name = 
REMARK  3 active torsions:
REMARK  status: ('A' for Active; 'I' for Inactive)
REMARK    1  A    between atoms: C_5  and  C_6
REMARK    2  A    between atoms: C_14  and  C_15
REMARK    3  A    between atoms: C_15  and  N_16
REMARK                            x       y       z     vdW  Elec       q    Type
REMARK                         _______ _______ _______ _____ _____    ______ ____
ROOT
ATOM      1  F   UNL     1      49.075   6.840  13.877  0.00  0.00    +0.000 F 
ATOM      2  C   UNL     1      47.865   6.506  13.408  0.00  0.00    +0.000 A 
ATOM      3  C   UNL     1      47.362   5.243  13.695  0.00  0.00    +0.000 A 
ATOM      4  C   UNL     1      46.135   4.834  13.165  0.00  0.00    +0.000 A 
ATOM      5  C   UNL     1      45.411   5.682  12.322  0.00  0.00    +0.000 A 
ATOM      6  C   UNL     1      45.931   6.971  12.088  0.00  0.00    +0.000 A 
ATOM      7  F   UNL     1      45.252   7.801  11.278  0.00  0.00    +0.000 F 
ATOM      8  C   UNL     1      47.156   7.406  12.613  0.00  0.00    +0.000 A 
ENDROOT
BRANCH   5   9
ATOM      9  C   UNL     1      44.141   5.258  11.589  0.00  0.00    +0.000 C 
ATOM     10  C   UNL     1      43.174   4.325  12.344  0.00  0.00    +0.000 C 
ATOM     11  C   UNL     1      43.481   2.831  12.206  0.00  0.00    +0.000 C 
ATOM     12  N   UNL     1      43.695   2.427  10.821  0.00  0.00    +0.000 NA
ATOM     13  C   UNL     1      44.787   3.190  10.218  0.00  0.00    +0.000 C 
ATOM     14  C   UNL     1      44.481   4.686  10.197  0.00  0.00    +0.000 C 
ATOM     15  H   UNL     1      42.840   2.584  10.286  0.00  0.00    +0.000 HD
ENDBRANCH   5   9
BRANCH   8  16
ATOM     16  C   UNL     1      47.701   8.763  12.279  0.00  0.00    +0.000 C 
BRANCH  16  17
ATOM     17  N   UNL     1      47.689   9.650  13.426  0.00  0.00    +0.000 N 
ATOM     18  C   UNL     1      48.893  10.093  13.957  0.00  0.00    +0.000 A 
ATOM     19  C   UNL     1      50.071  10.272  13.225  0.00  0.00    +0.000 A 
ATOM     20  N   UNL     1      51.235  10.740  13.749  0.00  0.00    +0.000 NA
ATOM     21  C   UNL     1      51.176  11.069  15.054  0.00  0.00    +0.000 A 
ATOM     22  C   UNL     1      50.017  10.920  15.792  0.00  0.00    +0.000 A 
ATOM     23  N   UNL     1      48.868  10.422  15.267  0.00  0.00    +0.000 NA
ATOM     24  H   UNL     1      47.093   9.381  14.206  0.00  0.00    +0.000 HD
ENDBRANCH  16  17
ENDBRANCH   8  16
TORSDOF 3
ENDMDL
