MODEL 1
REMARK VINA RESULT:    -7.847      0.000      0.000
REMARK INTER + INTRA:         -11.545
REMARK INTER:                 -10.829
REMARK INTRA:                  -0.716
REMARK UNBOUND:                -0.716
REMARK  Name = 
REMARK  7 active torsions:
REMARK  status: ('A' for Active; 'I' for Inactive)
REMARK    1  A    between atoms: N_1  and  C_2
REMARK    2  A    between atoms: C_2  and  C_3
REMARK    3  A    between atoms: C_7  and  C_8
REMARK    4  A    between atoms: C_8  and  C_9
REMARK    5  A    between atoms: C_9  and  N_10
REMARK    6  A    between atoms: N_10  and  C_11
REMARK    7  A    between atoms: C_14  and  C_15
REMARK                            x       y       z     vdW  Elec       q    Type
REMARK                         _______ _______ _______ _____ _____    ______ ____
ROOT
ATOM      1  N   UNL     1      43.666   4.709  10.115  0.00  0.00    +0.000 N 
ATOM      2  H   UNL     1      43.201   5.506   9.693  0.00  0.00    +0.000 HD
ENDROOT
BRANCH   1   3
ATOM      3  C   UNL     1      44.507   3.960   9.300  0.00  0.00    +0.000 A 
ATOM      4  C   UNL     1      44.612   2.565   9.385  0.00  0.00    +0.000 A 
ATOM      5  C   UNL     1      45.555   1.854   8.630  0.00  0.00    +0.000 A 
ATOM      6  C   UNL     1      46.424   2.528   7.770  0.00  0.00    +0.000 A 
ATOM      7  C   UNL     1      46.345   3.920   7.678  0.00  0.00    +0.000 A 
ATOM      8  C   UNL     1      45.397   4.620   8.445  0.00  0.00    +0.000 A 
BRANCH   6   9
ATOM      9  C   UNL     1      47.431   1.731   7.027  0.00  0.00    +0.000 C 
ATOM     10  N   UNL     1      48.471   2.393   6.444  0.00  0.00    +0.000 N 
ATOM     11  O   UNL     1      47.326   0.509   6.913  0.00  0.00    +0.000 OA
ATOM     12  H   UNL     1      48.567   3.399   6.432  0.00  0.00    +0.000 HD
ATOM     13  H   UNL     1      49.122   1.839   5.904  0.00  0.00    +0.000 HD
ENDBRANCH   6   9
ENDBRANCH   1   3
BRANCH   1  14
ATOM     14  C   UNL     1      43.111   4.158  11.348  0.00  0.00    +0.000 C 
BRANCH  14  15
ATOM     15  C   UNL     1      43.303   5.109  12.539  0.00  0.00    +0.000 C 
BRANCH  15  20
ATOM     16  C   UNL     1      46.590   6.979  13.071  0.00  0.00    +0.000 A 
ATOM     17  C   UNL     1      47.429   5.950  13.513  0.00  0.00    +0.000 A 
ATOM     18  C   UNL     1      46.952   4.642  13.590  0.00  0.00    +0.000 A 
ATOM     19  C   UNL     1      45.628   4.354  13.248  0.00  0.00    +0.000 A 
ATOM     20  C   UNL     1      44.770   5.372  12.807  0.00  0.00    +0.000 A 
ATOM     21  C   UNL     1      45.270   6.678  12.702  0.00  0.00    +0.000 A 
BRANCH  16  22
ATOM     22  C   UNL     1      47.054   8.409  13.130  0.00  0.00    +0.000 C 
BRANCH  22  23
ATOM     23  N   UNL     1      46.971   8.893  14.502  0.00  0.00    +0.000 NA
ATOM     24  H   UNL     1      47.912   9.050  14.862  0.00  0.00    +0.000 HD
ATOM     25  H   UNL     1      46.555   8.166  15.083  0.00  0.00    +0.000 HD
ENDBRANCH  22  23
ENDBRANCH  16  22
ENDBRANCH  15  20
ENDBRANCH  14  15
ENDBRANCH   1  14
TORSDOF 7
ENDMDL
MODEL 2
REMARK VINA RESULT:    -7.786      1.622      2.298
REMARK INTER + INTRA:         -11.461
REMARK INTER:                 -10.625
REMARK INTRA:                  -0.837
REMARK UNBOUND:                -0.716
REMARK  Name = 
REMARK  7 active torsions:
REMARK  status: ('A' for Active; 'I' for Inactive)
REMARK    1  A    between atoms: N_1  and  C_2
REMARK    2  A    between atoms: C_2  and  C_3
REMARK    3  A    between atoms: C_7  and  C_8
REMARK    4  A    between atoms: C_8  and  C_9
REMARK    5  A    between atoms: C_9  and  N_10
REMARK    6  A    between atoms: N_10  and  C_11
REMARK    7  A    between atoms: C_14  and  C_15
REMARK                            x       y       z     vdW  Elec       q    Type
REMARK                         _______ _______ _______ _____ _____    ______ ____
ROOT
ATOM      1  N   UNL     1      43.776   3.728  10.538  0.00  0.00    +0.000 N 
ATOM      2  H   UNL     1      43.716   3.129  11.355  0.00  0.00    +0.000 HD
ENDROOT
BRANCH   1   3
ATOM      3  C   UNL     1      44.743   3.414   9.590  0.00  0.00    +0.000 A 
ATOM      4  C   UNL     1      45.317   4.366   8.738  0.00  0.00    +0.000 A 
ATOM      5  C   UNL     1      46.201   3.996   7.715  0.00  0.00    +0.000 A 
ATOM      6  C   UNL     1      46.532   2.654   7.519  0.00  0.00    +0.000 A 
ATOM      7  C   UNL     1      45.962   1.686   8.350  0.00  0.00    +0.000 A 
ATOM      8  C   UNL     1      45.073   2.071   9.368  0.00  0.00    +0.000 A 
BRANCH   6   9
ATOM      9  C   UNL     1      47.439   2.314   6.396  0.00  0.00    +0.000 C 
ATOM     10  N   UNL     1      47.372   3.075   5.265  0.00  0.00    +0.000 N 
ATOM     11  O   UNL     1      48.215   1.361   6.461  0.00  0.00    +0.000 OA
ATOM     12  H   UNL     1      46.701   3.816   5.118  0.00  0.00    +0.000 HD
ATOM     13  H   UNL     1      47.965   2.800   4.492  0.00  0.00    +0.000 HD
ENDBRANCH   6   9
ENDBRANCH   1   3
BRANCH   1  14
ATOM     14  C   UNL     1      43.189   5.062  10.615  0.00  0.00    +0.000 C 
BRANCH  14  15
ATOM     15  C   UNL     1      43.354   5.684  12.010  0.00  0.00    +0.000 C 
BRANCH  15  20
ATOM     16  C   UNL     1      46.755   5.403  13.722  0.00  0.00    +0.000 A 
ATOM     17  C   UNL     1      47.562   6.162  12.867  0.00  0.00    +0.000 A 
ATOM     18  C   UNL     1      47.002   6.810  11.767  0.00  0.00    +0.000 A 
ATOM     19  C   UNL     1      45.636   6.687  11.499  0.00  0.00    +0.000 A 
ATOM     20  C   UNL     1      44.811   5.926  12.340  0.00  0.00    +0.000 A 
ATOM     21  C   UNL     1      45.380   5.307  13.462  0.00  0.00    +0.000 A 
BRANCH  16  22
ATOM     22  C   UNL     1      47.379   4.583  14.819  0.00  0.00    +0.000 C 
BRANCH  22  23
ATOM     23  N   UNL     1      47.363   3.174  14.446  0.00  0.00    +0.000 NA
ATOM     24  H   UNL     1      48.318   2.861  14.269  0.00  0.00    +0.000 HD
ATOM     25  H   UNL     1      46.857   3.073  13.567  0.00  0.00    +0.000 HD
ENDBRANCH  22  23
ENDBRANCH  16  22
ENDBRANCH  15  20
ENDBRANCH  14  15
ENDBRANCH   1  14
TORSDOF 7
ENDMDL
MODEL 3
REMARK VINA RESULT:    -7.291      1.230      1.788
REMARK INTER + INTRA:         -10.778
REMARK INTER:                 -10.125
REMARK INTRA:                  -0.653
REMARK UNBOUND:                -0.716
REMARK  Name = 
REMARK  7 active torsions:
REMARK  status: ('A' for Active; 'I' for Inactive)
REMARK    1  A    between atoms: N_1  and  C_2
REMARK    2  A    between atoms: C_2  and  C_3
REMARK    3  A    between atoms: C_7  and  C_8
REMARK    4  A    between atoms: C_8  and  C_9
REMARK    5  A    between atoms: C_9  and  N_10
REMARK    6  A    between atoms: N_10  and  C_11
REMARK    7  A    between atoms: C_14  and  C_15
REMARK                            x       y       z     vdW  Elec       q    Type
REMARK                         _______ _______ _______ _____ _____    ______ ____
ROOT
ATOM      1  N   UNL     1      43.802   4.734  10.048  0.00  0.00    +0.000 N 
ATOM      2  H   UNL     1      43.180   5.400   9.602  0.00  0.00    +0.000 HD
ENDROOT
BRANCH   1   3
ATOM      3  C   UNL     1      44.622   3.977   9.219  0.00  0.00    +0.000 A 
ATOM      4  C   UNL     1      44.652   2.576   9.245  0.00  0.00    +0.000 A 
ATOM      5  C   UNL     1      45.574   1.848   8.479  0.00  0.00    +0.000 A 
ATOM      6  C   UNL     1      46.495   2.511   7.666  0.00  0.00    +0.000 A 
ATOM      7  C   UNL     1      46.490   3.908   7.634  0.00  0.00    +0.000 A 
ATOM      8  C   UNL     1      45.563   4.625   8.411  0.00  0.00    +0.000 A 
BRANCH   6   9
ATOM      9  C   UNL     1      47.475   1.694   6.910  0.00  0.00    +0.000 C 
ATOM     10  N   UNL     1      48.533   2.332   6.332  0.00  0.00    +0.000 N 
ATOM     11  O   UNL     1      47.333   0.478   6.780  0.00  0.00    +0.000 OA
ATOM     12  H   UNL     1      48.660   3.335   6.333  0.00  0.00    +0.000 HD
ATOM     13  H   UNL     1      49.165   1.766   5.782  0.00  0.00    +0.000 HD
ENDBRANCH   6   9
ENDBRANCH   1   3
BRANCH   1  14
ATOM     14  C   UNL     1      43.500   4.311  11.412  0.00  0.00    +0.000 C 
BRANCH  14  15
ATOM     15  C   UNL     1      44.728   4.409  12.330  0.00  0.00    +0.000 C 
BRANCH  15  20
ATOM     16  C   UNL     1      47.256   7.263  12.128  0.00  0.00    +0.000 A 
ATOM     17  C   UNL     1      46.415   8.381  12.112  0.00  0.00    +0.000 A 
ATOM     18  C   UNL     1      45.034   8.220  12.219  0.00  0.00    +0.000 A 
ATOM     19  C   UNL     1      44.481   6.942  12.322  0.00  0.00    +0.000 A 
ATOM     20  C   UNL     1      45.306   5.808  12.335  0.00  0.00    +0.000 A 
ATOM     21  C   UNL     1      46.695   5.983  12.260  0.00  0.00    +0.000 A 
BRANCH  16  22
ATOM     22  C   UNL     1      48.729   7.422  11.863  0.00  0.00    +0.000 C 
BRANCH  22  23
ATOM     23  N   UNL     1      49.485   6.583  12.784  0.00  0.00    +0.000 NA
ATOM     24  H   UNL     1      49.495   7.018  13.707  0.00  0.00    +0.000 HD
ATOM     25  H   UNL     1      50.454   6.542  12.472  0.00  0.00    +0.000 HD
ENDBRANCH  22  23
ENDBRANCH  16  22
ENDBRANCH  15  20
ENDBRANCH  14  15
ENDBRANCH   1  14
TORSDOF 7
ENDMDL
MODEL 4
REMARK VINA RESULT:    -7.100      2.504      6.415
REMARK INTER + INTRA:         -10.514
REMARK INTER:                  -9.541
REMARK INTRA:                  -0.972
REMARK UNBOUND:                -0.716
REMARK  Name = 
REMARK  7 active torsions:
REMARK  status: ('A' for Active; 'I' for Inactive)
REMARK    1  A    between atoms: N_1  and  C_2
REMARK    2  A    between atoms: C_2  and  C_3
REMARK    3  A    between atoms: C_7  and  C_8
REMARK    4  A    between atoms: C_8  and  C_9
REMARK    5  A    between atoms: C_9  and  N_10
REMARK    6  A    between atoms: N_10  and  C_11
REMARK    7  A    between atoms: C_14  and  C_15
REMARK                            x       y       z     vdW  Elec       q    Type
REMARK                         _______ _______ _______ _____ _____    ______ ____
ROOT
ATOM      1  N   UNL     1      43.740   4.254  12.736  0.00  0.00    +0.000 N 
ATOM      2  H   UNL     1      43.103   4.196  13.523  0.00  0.00    +0.000 HD
ENDROOT
BRANCH   1   3
ATOM      3  C   UNL     1      44.920   4.964  12.925  0.00  0.00    +0.000 A 
ATOM      4  C   UNL     1      45.115   6.266  12.445  0.00  0.00    +0.000 A 
ATOM      5  C   UNL     1      46.357   6.908  12.551  0.00  0.00    +0.000 A 
ATOM      6  C   UNL     1      47.440   6.255  13.141  0.00  0.00    +0.000 A 
ATOM      7  C   UNL     1      47.272   4.951  13.615  0.00  0.00    +0.000 A 
ATOM      8  C   UNL     1      46.022   4.318  13.497  0.00  0.00    +0.000 A 
BRANCH   6   9
ATOM      9  C   UNL     1      48.742   6.964  13.188  0.00  0.00    +0.000 C 
ATOM     10  N   UNL     1      49.080   7.758  12.131  0.00  0.00    +0.000 N 
ATOM     11  O   UNL     1      49.515   6.828  14.137  0.00  0.00    +0.000 OA
ATOM     12  H   UNL     1      48.528   7.846  11.289  0.00  0.00    +0.000 HD
ATOM     13  H   UNL     1      49.990   8.197  12.160  0.00  0.00    +0.000 HD
ENDBRANCH   6   9
ENDBRANCH   1   3
BRANCH   1  14
ATOM     14  C   UNL     1      43.213   3.994  11.399  0.00  0.00    +0.000 C 
BRANCH  14  15
ATOM     15  C   UNL     1      43.811   2.720  10.783  0.00  0.00    +0.000 C 
BRANCH  15  20
ATOM     16  C   UNL     1      46.338   2.265   7.957  0.00  0.00    +0.000 A 
ATOM     17  C   UNL     1      46.495   3.582   7.508  0.00  0.00    +0.000 A 
ATOM     18  C   UNL     1      45.828   4.625   8.150  0.00  0.00    +0.000 A 
ATOM     19  C   UNL     1      44.982   4.360   9.230  0.00  0.00    +0.000 A 
ATOM     20  C   UNL     1      44.807   3.048   9.691  0.00  0.00    +0.000 A 
ATOM     21  C   UNL     1      45.508   2.011   9.060  0.00  0.00    +0.000 A 
BRANCH  16  22
ATOM     22  C   UNL     1      46.935   1.125   7.177  0.00  0.00    +0.000 C 
BRANCH  22  23
ATOM     23  N   UNL     1      48.204   1.543   6.595  0.00  0.00    +0.000 NA
ATOM     24  H   UNL     1      48.063   2.397   6.055  0.00  0.00    +0.000 HD
ATOM     25  H   UNL     1      48.514   0.831   5.936  0.00  0.00    +0.000 HD
ENDBRANCH  22  23
ENDBRANCH  16  22
ENDBRANCH  15  20
ENDBRANCH  14  15
ENDBRANCH   1  14
TORSDOF 7
ENDMDL
MODEL 5
REMARK VINA RESULT:    -6.877      2.429      6.788
REMARK INTER + INTRA:         -10.207
REMARK INTER:                  -9.621
REMARK INTRA:                  -0.586
REMARK UNBOUND:                -0.716
REMARK  Name = 
REMARK  7 active torsions:
REMARK  status: ('A' for Active; 'I' for Inactive)
REMARK    1  A    between atoms: N_1  and  C_2
REMARK    2  A    between atoms: C_2  and  C_3
REMARK    3  A    between atoms: C_7  and  C_8
REMARK    4  A    between atoms: C_8  and  C_9
REMARK    5  A    between atoms: C_9  and  N_10
REMARK    6  A    between atoms: N_10  and  C_11
REMARK    7  A    between atoms: C_14  and  C_15
REMARK                            x       y       z     vdW  Elec       q    Type
REMARK                         _______ _______ _______ _____ _____    ______ ____
ROOT
ATOM      1  N   UNL     1      43.664   4.953  11.506  0.00  0.00    +0.000 N 
ATOM      2  H   UNL     1      42.856   5.530  11.716  0.00  0.00    +0.000 HD
ENDROOT
BRANCH   1   3
ATOM      3  C   UNL     1      44.861   5.287  12.129  0.00  0.00    +0.000 A 
ATOM      4  C   UNL     1      45.595   4.384  12.911  0.00  0.00    +0.000 A 
ATOM      5  C   UNL     1      46.735   4.787  13.619  0.00  0.00    +0.000 A 
ATOM      6  C   UNL     1      47.168   6.113  13.564  0.00  0.00    +0.000 A 
ATOM      7  C   UNL     1      46.445   7.033  12.800  0.00  0.00    +0.000 A 
ATOM      8  C   UNL     1      45.300   6.615  12.099  0.00  0.00    +0.000 A 
BRANCH   6   9
ATOM      9  C   UNL     1      48.356   6.495  14.367  0.00  0.00    +0.000 C 
ATOM     10  N   UNL     1      48.235   6.506  15.726  0.00  0.00    +0.000 N 
ATOM     11  O   UNL     1      49.417   6.818  13.832  0.00  0.00    +0.000 OA
ATOM     12  H   UNL     1      47.371   6.332  16.220  0.00  0.00    +0.000 HD
ATOM     13  H   UNL     1      49.040   6.813  16.255  0.00  0.00    +0.000 HD
ENDBRANCH   6   9
ENDBRANCH   1   3
BRANCH   1  14
ATOM     14  C   UNL     1      43.636   4.137  10.296  0.00  0.00    +0.000 C 
BRANCH  14  15
ATOM     15  C   UNL     1      44.693   4.587   9.275  0.00  0.00    +0.000 C 
BRANCH  15  20
ATOM     16  C   UNL     1      46.624   2.569   6.672  0.00  0.00    +0.000 A 
ATOM     17  C   UNL     1      46.588   1.286   7.229  0.00  0.00    +0.000 A 
ATOM     18  C   UNL     1      45.896   1.058   8.418  0.00  0.00    +0.000 A 
ATOM     19  C   UNL     1      45.253   2.113   9.071  0.00  0.00    +0.000 A 
ATOM     20  C   UNL     1      45.282   3.407   8.532  0.00  0.00    +0.000 A 
ATOM     21  C   UNL     1      45.953   3.618   7.319  0.00  0.00    +0.000 A 
BRANCH  16  22
ATOM     22  C   UNL     1      47.492   2.848   5.474  0.00  0.00    +0.000 C 
BRANCH  22  23
ATOM     23  N   UNL     1      48.571   1.871   5.415  0.00  0.00    +0.000 NA
ATOM     24  H   UNL     1      48.223   1.008   4.995  0.00  0.00    +0.000 HD
ATOM     25  H   UNL     1      48.855   1.636   6.365  0.00  0.00    +0.000 HD
ENDBRANCH  22  23
ENDBRANCH  16  22
ENDBRANCH  15  20
ENDBRANCH  14  15
ENDBRANCH   1  14
TORSDOF 7
ENDMDL
MODEL 6
REMARK VINA RESULT:    -6.670      1.481      2.189
REMARK INTER + INTRA:          -9.921
REMARK INTER:                  -9.276
REMARK INTRA:                  -0.645
REMARK UNBOUND:                -0.716
REMARK  Name = 
REMARK  7 active torsions:
REMARK  status: ('A' for Active; 'I' for Inactive)
REMARK    1  A    between atoms: N_1  and  C_2
REMARK    2  A    between atoms: C_2  and  C_3
REMARK    3  A    between atoms: C_7  and  C_8
REMARK    4  A    between atoms: C_8  and  C_9
REMARK    5  A    between atoms: C_9  and  N_10
REMARK    6  A    between atoms: N_10  and  C_11
REMARK    7  A    between atoms: C_14  and  C_15
REMARK                            x       y       z     vdW  Elec       q    Type
REMARK                         _______ _______ _______ _____ _____    ______ ____
ROOT
ATOM      1  N   UNL     1      43.496   3.853  10.858  0.00  0.00    +0.000 N 
ATOM      2  H   UNL     1      42.584   3.414  10.803  0.00  0.00    +0.000 HD
ENDROOT
BRANCH   1   3
ATOM      3  C   UNL     1      44.415   3.531   9.866  0.00  0.00    +0.000 A 
ATOM      4  C   UNL     1      44.879   4.458   8.922  0.00  0.00    +0.000 A 
ATOM      5  C   UNL     1      45.715   4.071   7.865  0.00  0.00    +0.000 A 
ATOM      6  C   UNL     1      46.105   2.738   7.725  0.00  0.00    +0.000 A 
ATOM      7  C   UNL     1      45.646   1.796   8.648  0.00  0.00    +0.000 A 
ATOM      8  C   UNL     1      44.804   2.196   9.700  0.00  0.00    +0.000 A 
BRANCH   6   9
ATOM      9  C   UNL     1      46.955   2.377   6.564  0.00  0.00    +0.000 C 
ATOM     10  N   UNL     1      48.134   1.735   6.807  0.00  0.00    +0.000 N 
ATOM     11  O   UNL     1      46.629   2.667   5.413  0.00  0.00    +0.000 OA
ATOM     12  H   UNL     1      48.496   1.544   7.731  0.00  0.00    +0.000 HD
ATOM     13  H   UNL     1      48.722   1.538   6.008  0.00  0.00    +0.000 HD
ENDBRANCH   6   9
ENDBRANCH   1   3
BRANCH   1  14
ATOM     14  C   UNL     1      43.921   4.409  12.138  0.00  0.00    +0.000 C 
BRANCH  14  15
ATOM     15  C   UNL     1      45.374   4.037  12.473  0.00  0.00    +0.000 C 
BRANCH  15  20
ATOM     16  C   UNL     1      47.804   6.535  14.032  0.00  0.00    +0.000 A 
ATOM     17  C   UNL     1      48.018   7.419  12.968  0.00  0.00    +0.000 A 
ATOM     18  C   UNL     1      47.338   7.242  11.763  0.00  0.00    +0.000 A 
ATOM     19  C   UNL     1      46.457   6.169  11.604  0.00  0.00    +0.000 A 
ATOM     20  C   UNL     1      46.234   5.270  12.656  0.00  0.00    +0.000 A 
ATOM     21  C   UNL     1      46.897   5.477  13.874  0.00  0.00    +0.000 A 
BRANCH  16  22
ATOM     22  C   UNL     1      48.645   6.635  15.276  0.00  0.00    +0.000 C 
BRANCH  22  23
ATOM     23  N   UNL     1      50.056   6.636  14.913  0.00  0.00    +0.000 NA
ATOM     24  H   UNL     1      50.593   7.103  15.645  0.00  0.00    +0.000 HD
ATOM     25  H   UNL     1      50.178   7.190  14.067  0.00  0.00    +0.000 HD
ENDBRANCH  22  23
ENDBRANCH  16  22
ENDBRANCH  15  20
ENDBRANCH  14  15
ENDBRANCH   1  14
TORSDOF 7
ENDMDL
MODEL 7
REMARK VINA RESULT:    -6.369      2.770      7.002
REMARK INTER + INTRA:          -9.505
REMARK INTER:                  -8.945
REMARK INTRA:                  -0.560
REMARK UNBOUND:                -0.716
REMARK  Name = 
REMARK  7 active torsions:
REMARK  status: ('A' for Active; 'I' for Inactive)
REMARK    1  A    between atoms: N_1  and  C_2
REMARK    2  A    between atoms: C_2  and  C_3
REMARK    3  A    between atoms: C_7  and  C_8
REMARK    4  A    between atoms: C_8  and  C_9
REMARK    5  A    between atoms: C_9  and  N_10
REMARK    6  A    between atoms: N_10  and  C_11
REMARK    7  A    between atoms: C_14  and  C_15
REMARK                            x       y       z     vdW  Elec       q    Type
REMARK                         _______ _______ _______ _____ _____    ______ ____
ROOT
ATOM      1  N   UNL     1      44.584   4.190  11.731  0.00  0.00    +0.000 N 
ATOM      2  H   UNL     1      44.497   3.513  12.481  0.00  0.00    +0.000 HD
ENDROOT
BRANCH   1   3
ATOM      3  C   UNL     1      45.129   5.428  12.054  0.00  0.00    +0.000 A 
ATOM      4  C   UNL     1      44.360   6.592  12.187  0.00  0.00    +0.000 A 
ATOM      5  C   UNL     1      44.955   7.843  12.398  0.00  0.00    +0.000 A 
ATOM      6  C   UNL     1      46.344   7.959  12.477  0.00  0.00    +0.000 A 
ATOM      7  C   UNL     1      47.131   6.814  12.335  0.00  0.00    +0.000 A 
ATOM      8  C   UNL     1      46.520   5.566  12.119  0.00  0.00    +0.000 A 
BRANCH   6   9
ATOM      9  C   UNL     1      46.923   9.313  12.658  0.00  0.00    +0.000 C 
ATOM     10  N   UNL     1      46.155  10.390  12.321  0.00  0.00    +0.000 N 
ATOM     11  O   UNL     1      48.071   9.472  13.074  0.00  0.00    +0.000 OA
ATOM     12  H   UNL     1      45.240  10.324  11.897  0.00  0.00    +0.000 HD
ATOM     13  H   UNL     1      46.583  11.302  12.407  0.00  0.00    +0.000 HD
ENDBRANCH   6   9
ENDBRANCH   1   3
BRANCH   1  14
ATOM     14  C   UNL     1      43.769   4.006  10.534  0.00  0.00    +0.000 C 
BRANCH  14  15
ATOM     15  C   UNL     1      44.488   4.495   9.268  0.00  0.00    +0.000 C 
BRANCH  15  20
ATOM     16  C   UNL     1      46.593   2.595   6.710  0.00  0.00    +0.000 A 
ATOM     17  C   UNL     1      46.584   1.302   7.246  0.00  0.00    +0.000 A 
ATOM     18  C   UNL     1      45.856   1.029   8.404  0.00  0.00    +0.000 A 
ATOM     19  C   UNL     1      45.150   2.048   9.048  0.00  0.00    +0.000 A 
ATOM     20  C   UNL     1      45.150   3.351   8.530  0.00  0.00    +0.000 A 
ATOM     21  C   UNL     1      45.858   3.607   7.347  0.00  0.00    +0.000 A 
BRANCH  16  22
ATOM     22  C   UNL     1      47.494   2.926   5.552  0.00  0.00    +0.000 C 
BRANCH  22  23
ATOM     23  N   UNL     1      48.505   1.886   5.407  0.00  0.00    +0.000 NA
ATOM     24  H   UNL     1      48.531   1.575   4.435  0.00  0.00    +0.000 HD
ATOM     25  H   UNL     1      48.227   1.078   5.963  0.00  0.00    +0.000 HD
ENDBRANCH  22  23
ENDBRANCH  16  22
ENDBRANCH  15  20
ENDBRANCH  14  15
ENDBRANCH   1  14
TORSDOF 7
ENDMDL
MODEL 8
REMARK VINA RESULT:    -5.981      3.521      5.534
REMARK INTER + INTRA:          -8.970
REMARK INTER:                  -8.358
REMARK INTRA:                  -0.612
REMARK UNBOUND:                -0.716
REMARK  Name = 
REMARK  7 active torsions:
REMARK  status: ('A' for Active; 'I' for Inactive)
REMARK    1  A    between atoms: N_1  and  C_2
REMARK    2  A    between atoms: C_2  and  C_3
REMARK    3  A    between atoms: C_7  and  C_8
REMARK    4  A    between atoms: C_8  and  C_9
REMARK    5  A    between atoms: C_9  and  N_10
REMARK    6  A    between atoms: N_10  and  C_11
REMARK    7  A    between atoms: C_14  and  C_15
REMARK                            x       y       z     vdW  Elec       q    Type
REMARK                         _______ _______ _______ _____ _____    ______ ____
ROOT
ATOM      1  N   UNL     1      47.014   7.150  13.687  0.00  0.00    +0.000 N 
ATOM      2  H   UNL     1      46.534   7.882  14.201  0.00  0.00    +0.000 HD
ENDROOT
BRANCH   1   3
ATOM      3  C   UNL     1      46.224   6.209  13.038  0.00  0.00    +0.000 A 
ATOM      4  C   UNL     1      45.888   4.971  13.603  0.00  0.00    +0.000 A 
ATOM      5  C   UNL     1      45.189   3.999  12.875  0.00  0.00    +0.000 A 
ATOM      6  C   UNL     1      44.810   4.243  11.554  0.00  0.00    +0.000 A 
ATOM      7  C   UNL     1      45.145   5.466  10.967  0.00  0.00    +0.000 A 
ATOM      8  C   UNL     1      45.851   6.430  11.707  0.00  0.00    +0.000 A 
BRANCH   6   9
ATOM      9  C   UNL     1      44.109   3.163  10.817  0.00  0.00    +0.000 C 
ATOM     10  N   UNL     1      44.547   2.854   9.562  0.00  0.00    +0.000 N 
ATOM     11  O   UNL     1      43.144   2.574  11.303  0.00  0.00    +0.000 OA
ATOM     12  H   UNL     1      45.279   3.355   9.077  0.00  0.00    +0.000 HD
ATOM     13  H   UNL     1      44.029   2.148   9.057  0.00  0.00    +0.000 HD
ENDBRANCH   6   9
ENDBRANCH   1   3
BRANCH   1  14
ATOM     14  C   UNL     1      48.411   6.879  14.012  0.00  0.00    +0.000 C 
BRANCH  14  15
ATOM     15  C   UNL     1      48.775   7.351  15.428  0.00  0.00    +0.000 C 
BRANCH  15  20
ATOM     16  C   UNL     1      48.856   3.999  17.255  0.00  0.00    +0.000 A 
ATOM     17  C   UNL     1      50.188   3.943  17.679  0.00  0.00    +0.000 A 
ATOM     18  C   UNL     1      51.050   5.010  17.423  0.00  0.00    +0.000 A 
ATOM     19  C   UNL     1      50.594   6.130  16.723  0.00  0.00    +0.000 A 
ATOM     20  C   UNL     1      49.264   6.202  16.285  0.00  0.00    +0.000 A 
ATOM     21  C   UNL     1      48.398   5.138  16.577  0.00  0.00    +0.000 A 
BRANCH  16  22
ATOM     22  C   UNL     1      47.968   2.792  17.396  0.00  0.00    +0.000 C 
BRANCH  22  23
ATOM     23  N   UNL     1      46.580   3.219  17.525  0.00  0.00    +0.000 NA
ATOM     24  H   UNL     1      45.967   2.488  17.163  0.00  0.00    +0.000 HD
ATOM     25  H   UNL     1      46.433   4.039  16.938  0.00  0.00    +0.000 HD
ENDBRANCH  22  23
ENDBRANCH  16  22
ENDBRANCH  15  20
ENDBRANCH  14  15
ENDBRANCH   1  14
TORSDOF 7
ENDMDL
MODEL 9
REMARK VINA RESULT:    -5.828      3.757      5.530
REMARK INTER + INTRA:          -8.759
REMARK INTER:                  -8.192
REMARK INTRA:                  -0.568
REMARK UNBOUND:                -0.716
REMARK  Name = 
REMARK  7 active torsions:
REMARK  status: ('A' for Active; 'I' for Inactive)
REMARK    1  A    between atoms: N_1  and  C_2
REMARK    2  A    between atoms: C_2  and  C_3
REMARK    3  A    between atoms: C_7  and  C_8
REMARK    4  A    between atoms: C_8  and  C_9
REMARK    5  A    between atoms: C_9  and  N_10
REMARK    6  A    between atoms: N_10  and  C_11
REMARK    7  A    between atoms: C_14  and  C_15
REMARK                            x       y       z     vdW  Elec       q    Type
REMARK                         _______ _______ _______ _____ _____    ______ ____
ROOT
ATOM      1  N   UNL     1      47.085   6.993  13.822  0.00  0.00    +0.000 N 
ATOM      2  H   UNL     1      46.622   7.703  14.379  0.00  0.00    +0.000 HD
ENDROOT
BRANCH   1   3
ATOM      3  C   UNL     1      46.301   6.285  12.918  0.00  0.00    +0.000 A 
ATOM      4  C   UNL     1      45.479   5.213  13.293  0.00  0.00    +0.000 A 
ATOM      5  C   UNL     1      44.793   4.447  12.341  0.00  0.00    +0.000 A 
ATOM      6  C   UNL     1      44.917   4.737  10.981  0.00  0.00    +0.000 A 
ATOM      7  C   UNL     1      45.740   5.793  10.583  0.00  0.00    +0.000 A 
ATOM      8  C   UNL     1      46.426   6.549  11.550  0.00  0.00    +0.000 A 
BRANCH   6   9
ATOM      9  C   UNL     1      44.203   3.867  10.013  0.00  0.00    +0.000 C 
ATOM     10  N   UNL     1      44.097   4.296   8.722  0.00  0.00    +0.000 N 
ATOM     11  O   UNL     1      43.695   2.801  10.360  0.00  0.00    +0.000 OA
ATOM     12  H   UNL     1      44.419   5.196   8.395  0.00  0.00    +0.000 HD
ATOM     13  H   UNL     1      43.567   3.713   8.088  0.00  0.00    +0.000 HD
ENDBRANCH   6   9
ENDBRANCH   1   3
BRANCH   1  14
ATOM     14  C   UNL     1      48.367   6.473  14.288  0.00  0.00    +0.000 C 
BRANCH  14  15
ATOM     15  C   UNL     1      48.596   6.763  15.780  0.00  0.00    +0.000 C 
BRANCH  15  20
ATOM     16  C   UNL     1      48.781   4.383  18.760  0.00  0.00    +0.000 A 
ATOM     17  C   UNL     1      48.067   3.278  18.280  0.00  0.00    +0.000 A 
ATOM     18  C   UNL     1      47.571   3.277  16.978  0.00  0.00    +0.000 A 
ATOM     19  C   UNL     1      47.764   4.387  16.150  0.00  0.00    +0.000 A 
ATOM     20  C   UNL     1      48.471   5.505  16.613  0.00  0.00    +0.000 A 
ATOM     21  C   UNL     1      48.995   5.482  17.914  0.00  0.00    +0.000 A 
BRANCH  16  22
ATOM     22  C   UNL     1      49.186   4.450  20.207  0.00  0.00    +0.000 C 
BRANCH  22  23
ATOM     23  N   UNL     1      47.998   4.402  21.050  0.00  0.00    +0.000 NA
ATOM     24  H   UNL     1      48.267   4.553  22.022  0.00  0.00    +0.000 HD
ATOM     25  H   UNL     1      47.598   3.466  21.002  0.00  0.00    +0.000 HD
ENDBRANCH  22  23
ENDBRANCH  16  22
ENDBRANCH  15  20
ENDBRANCH  14  15
ENDBRANCH   1  14
TORSDOF 7
ENDMDL
