MODEL 1
REMARK VINA RESULT:    -7.833      0.000      0.000
REMARK INTER + INTRA:         -10.894
REMARK INTER:                 -10.123
REMARK INTRA:                  -0.771
REMARK UNBOUND:                -0.771
REMARK  Name = 
REMARK  5 active torsions:
REMARK  status: ('A' for Active; 'I' for Inactive)
REMARK    1  A    between atoms: C_2  and  C_4
REMARK    2  A    between atoms: C_8  and  C_9
REMARK    3  A    between atoms: C_9  and  C_10
REMARK    4  A    between atoms: C_10  and  C_11
REMARK    5  A    between atoms: C_15  and  C_16
REMARK                            x       y       z     vdW  Elec       q    Type
REMARK                         _______ _______ _______ _____ _____    ______ ____
ROOT
ATOM      1  C   UNL     1      43.729   4.025  11.639  0.00  0.00    +0.000 C 
ENDROOT
BRANCH   1   2
ATOM      2  C   UNL     1      44.981   4.328  12.437  0.00  0.00    +0.000 A 
ATOM      3  C   UNL     1      45.801   3.323  12.962  0.00  0.00    +0.000 A 
ATOM      4  C   UNL     1      46.946   3.645  13.685  0.00  0.00    +0.000 A 
ATOM      5  C   UNL     1      47.328   4.977  13.821  0.00  0.00    +0.000 A 
ATOM      6  C   UNL     1      46.584   6.012  13.231  0.00  0.00    +0.000 A 
ATOM      7  C   UNL     1      45.389   5.666  12.577  0.00  0.00    +0.000 A 
BRANCH   6   8
ATOM      8  C   UNL     1      47.191   7.412  13.172  0.00  0.00    +0.000 C 
ATOM      9  C   UNL     1      47.956   7.725  11.875  0.00  0.00    +0.000 C 
ATOM     10  C   UNL     1      49.372   7.157  11.891  0.00  0.00    +0.000 C 
ATOM     11  N   UNL     1      50.142   7.639  13.038  0.00  0.00    +0.000 NA
ATOM     12  C   UNL     1      49.482   7.299  14.298  0.00  0.00    +0.000 C 
ATOM     13  C   UNL     1      48.057   7.846  14.371  0.00  0.00    +0.000 C 
ATOM     14  H   UNL     1      50.237   8.654  12.976  0.00  0.00    +0.000 HD
ENDBRANCH   6   8
ENDBRANCH   1   2
BRANCH   1  15
ATOM     15  C   UNL     1      43.883   2.859  10.661  0.00  0.00    +0.000 C 
BRANCH  15  20
ATOM     16  C   UNL     1      46.429   2.282   7.895  0.00  0.00    +0.000 A 
ATOM     17  C   UNL     1      46.603   3.582   7.408  0.00  0.00    +0.000 A 
ATOM     18  C   UNL     1      45.940   4.652   8.011  0.00  0.00    +0.000 A 
ATOM     19  C   UNL     1      45.084   4.429   9.089  0.00  0.00    +0.000 A 
ATOM     20  C   UNL     1      44.875   3.129   9.560  0.00  0.00    +0.000 A 
ATOM     21  C   UNL     1      45.562   2.060   8.971  0.00  0.00    +0.000 A 
BRANCH  16  23
ATOM     22  N   UNL     1      46.673  -0.127   7.668  0.00  0.00    +0.000 N 
ATOM     23  C   UNL     1      47.106   1.109   7.286  0.00  0.00    +0.000 C 
ATOM     24  O   UNL     1      47.986   1.235   6.448  0.00  0.00    +0.000 OA
ATOM     25  H   UNL     1      47.063  -0.915   7.162  0.00  0.00    +0.000 HD
ATOM     26  H   UNL     1      45.797  -0.272   8.147  0.00  0.00    +0.000 HD
ENDBRANCH  16  23
ENDBRANCH  15  20
ENDBRANCH   1  15
TORSDOF 5
ENDMDL
MODEL 2
REMARK VINA RESULT:    -7.687      1.430      2.247
REMARK INTER + INTRA:         -10.705
REMARK INTER:                  -9.679
REMARK INTRA:                  -1.025
REMARK UNBOUND:                -0.771
REMARK  Name = 
REMARK  5 active torsions:
REMARK  status: ('A' for Active; 'I' for Inactive)
REMARK    1  A    between atoms: C_2  and  C_4
REMARK    2  A    between atoms: C_8  and  C_9
REMARK    3  A    between atoms: C_9  and  C_10
REMARK    4  A    between atoms: C_10  and  C_11
REMARK    5  A    between atoms: C_15  and  C_16
REMARK                            x       y       z     vdW  Elec       q    Type
REMARK                         _______ _______ _______ _____ _____    ______ ____
ROOT
ATOM      1  C   UNL     1      44.657   5.653  10.929  0.00  0.00    +0.000 C 
ENDROOT
BRANCH   1   2
ATOM      2  C   UNL     1      45.651   5.583  12.070  0.00  0.00    +0.000 A 
ATOM      3  C   UNL     1      45.497   4.708  13.152  0.00  0.00    +0.000 A 
ATOM      4  C   UNL     1      46.438   4.672  14.177  0.00  0.00    +0.000 A 
ATOM      5  C   UNL     1      47.587   5.454  14.091  0.00  0.00    +0.000 A 
ATOM      6  C   UNL     1      47.826   6.277  12.978  0.00  0.00    +0.000 A 
ATOM      7  C   UNL     1      46.822   6.357  11.998  0.00  0.00    +0.000 A 
BRANCH   6   8
ATOM      8  C   UNL     1      49.213   6.891  12.803  0.00  0.00    +0.000 C 
ATOM      9  C   UNL     1      49.720   7.689  14.016  0.00  0.00    +0.000 C 
ATOM     10  C   UNL     1      49.145   9.102  14.055  0.00  0.00    +0.000 C 
ATOM     11  N   UNL     1      49.436   9.845  12.828  0.00  0.00    +0.000 NA
ATOM     12  C   UNL     1      48.907   9.153  11.653  0.00  0.00    +0.000 C 
ATOM     13  C   UNL     1      49.447   7.728  11.530  0.00  0.00    +0.000 C 
ATOM     14  H   UNL     1      50.446   9.945  12.728  0.00  0.00    +0.000 HD
ENDBRANCH   6   8
ENDBRANCH   1   2
BRANCH   1  15
ATOM     15  C   UNL     1      45.297   5.563   9.542  0.00  0.00    +0.000 C 
BRANCH  15  20
ATOM     16  C   UNL     1      46.434   2.554   7.514  0.00  0.00    +0.000 A 
ATOM     17  C   UNL     1      45.733   1.518   8.142  0.00  0.00    +0.000 A 
ATOM     18  C   UNL     1      44.849   1.802   9.185  0.00  0.00    +0.000 A 
ATOM     19  C   UNL     1      44.676   3.116   9.620  0.00  0.00    +0.000 A 
ATOM     20  C   UNL     1      45.400   4.153   9.023  0.00  0.00    +0.000 A 
ATOM     21  C   UNL     1      46.265   3.869   7.959  0.00  0.00    +0.000 A 
BRANCH  16  23
ATOM     22  N   UNL     1      47.316   3.133   5.322  0.00  0.00    +0.000 N 
ATOM     23  C   UNL     1      47.390   2.305   6.405  0.00  0.00    +0.000 C 
ATOM     24  O   UNL     1      48.236   1.426   6.466  0.00  0.00    +0.000 OA
ATOM     25  H   UNL     1      48.046   3.026   4.626  0.00  0.00    +0.000 HD
ATOM     26  H   UNL     1      46.821   4.012   5.344  0.00  0.00    +0.000 HD
ENDBRANCH  16  23
ENDBRANCH  15  20
ENDBRANCH   1  15
TORSDOF 5
ENDMDL
MODEL 3
REMARK VINA RESULT:    -7.002      4.057      7.799
REMARK INTER + INTRA:          -9.821
REMARK INTER:                  -9.146
REMARK INTRA:                  -0.674
REMARK UNBOUND:                -0.771
REMARK  Name = 
REMARK  5 active torsions:
REMARK  status: ('A' for Active; 'I' for Inactive)
REMARK    1  A    between atoms: C_2  and  C_4
REMARK    2  A    between atoms: C_8  and  C_9
REMARK    3  A    between atoms: C_9  and  C_10
REMARK    4  A    between atoms: C_10  and  C_11
REMARK    5  A    between atoms: C_15  and  C_16
REMARK                            x       y       z     vdW  Elec       q    Type
REMARK                         _______ _______ _______ _____ _____    ______ ____
ROOT
ATOM      1  C   UNL     1      47.262   3.658  14.872  0.00  0.00    +0.000 C 
ENDROOT
BRANCH   1   2
ATOM      2  C   UNL     1      46.935   4.680  13.802  0.00  0.00    +0.000 A 
ATOM      3  C   UNL     1      47.778   5.757  13.505  0.00  0.00    +0.000 A 
ATOM      4  C   UNL     1      47.442   6.670  12.510  0.00  0.00    +0.000 A 
ATOM      5  C   UNL     1      46.296   6.470  11.745  0.00  0.00    +0.000 A 
ATOM      6  C   UNL     1      45.471   5.352  11.948  0.00  0.00    +0.000 A 
ATOM      7  C   UNL     1      45.788   4.491  13.011  0.00  0.00    +0.000 A 
BRANCH   6   8
ATOM      8  C   UNL     1      44.397   5.033  10.910  0.00  0.00    +0.000 C 
ATOM      9  C   UNL     1      43.159   4.311  11.469  0.00  0.00    +0.000 C 
ATOM     10  C   UNL     1      43.390   2.812  11.629  0.00  0.00    +0.000 C 
ATOM     11  N   UNL     1      43.793   2.182  10.370  0.00  0.00    +0.000 NA
ATOM     12  C   UNL     1      45.011   2.794   9.840  0.00  0.00    +0.000 C 
ATOM     13  C   UNL     1      44.859   4.301   9.634  0.00  0.00    +0.000 C 
ATOM     14  H   UNL     1      43.042   2.289   9.688  0.00  0.00    +0.000 HD
ENDBRANCH   6   8
ENDBRANCH   1   2
BRANCH   1  15
ATOM     15  C   UNL     1      47.328   4.239  16.286  0.00  0.00    +0.000 C 
BRANCH  15  20
ATOM     16  C   UNL     1      50.789   3.231  17.497  0.00  0.00    +0.000 A 
ATOM     17  C   UNL     1      51.389   4.482  17.684  0.00  0.00    +0.000 A 
ATOM     18  C   UNL     1      50.655   5.650  17.472  0.00  0.00    +0.000 A 
ATOM     19  C   UNL     1      49.327   5.578  17.053  0.00  0.00    +0.000 A 
ATOM     20  C   UNL     1      48.729   4.334  16.829  0.00  0.00    +0.000 A 
ATOM     21  C   UNL     1      49.459   3.163  17.068  0.00  0.00    +0.000 A 
BRANCH  16  23
ATOM     22  N   UNL     1      52.615   1.997  18.526  0.00  0.00    +0.000 N 
ATOM     23  C   UNL     1      51.527   1.959  17.703  0.00  0.00    +0.000 C 
ATOM     24  O   UNL     1      51.160   0.910  17.196  0.00  0.00    +0.000 OA
ATOM     25  H   UNL     1      53.039   1.103  18.749  0.00  0.00    +0.000 HD
ATOM     26  H   UNL     1      52.793   2.765  19.156  0.00  0.00    +0.000 HD
ENDBRANCH  16  23
ENDBRANCH  15  20
ENDBRANCH   1  15
TORSDOF 5
ENDMDL
MODEL 4
REMARK VINA RESULT:    -6.889      3.554      7.341
REMARK INTER + INTRA:          -9.674
REMARK INTER:                  -8.584
REMARK INTRA:                  -1.089
REMARK UNBOUND:                -0.771
REMARK  Name = 
REMARK  5 active torsions:
REMARK  status: ('A' for Active; 'I' for Inactive)
REMARK    1  A    between atoms: C_2  and  C_4
REMARK    2  A    between atoms: C_8  and  C_9
REMARK    3  A    between atoms: C_9  and  C_10
REMARK    4  A    between atoms: C_10  and  C_11
REMARK    5  A    between atoms: C_15  and  C_16
REMARK                            x       y       z     vdW  Elec       q    Type
REMARK                         _______ _______ _______ _____ _____    ______ ____
ROOT
ATOM      1  C   UNL     1      48.868   7.119  13.005  0.00  0.00    +0.000 C 
ENDROOT
BRANCH   1   2
ATOM      2  C   UNL     1      47.459   7.474  12.572  0.00  0.00    +0.000 A 
ATOM      3  C   UNL     1      47.033   8.796  12.401  0.00  0.00    +0.000 A 
ATOM      4  C   UNL     1      45.731   9.077  11.998  0.00  0.00    +0.000 A 
ATOM      5  C   UNL     1      44.864   8.035  11.681  0.00  0.00    +0.000 A 
ATOM      6  C   UNL     1      45.279   6.695  11.750  0.00  0.00    +0.000 A 
ATOM      7  C   UNL     1      46.571   6.436  12.239  0.00  0.00    +0.000 A 
BRANCH   6   8
ATOM      8  C   UNL     1      44.391   5.617  11.131  0.00  0.00    +0.000 C 
ATOM      9  C   UNL     1      42.999   5.488  11.771  0.00  0.00    +0.000 C 
ATOM     10  C   UNL     1      43.030   4.665  13.056  0.00  0.00    +0.000 C 
ATOM     11  N   UNL     1      43.592   3.331  12.837  0.00  0.00    +0.000 NA
ATOM     12  C   UNL     1      44.947   3.410  12.293  0.00  0.00    +0.000 C 
ATOM     13  C   UNL     1      45.002   4.209  10.991  0.00  0.00    +0.000 C 
ATOM     14  H   UNL     1      42.999   2.822  12.181  0.00  0.00    +0.000 HD
ENDBRANCH   6   8
ENDBRANCH   1   2
BRANCH   1  15
ATOM     15  C   UNL     1      49.299   7.780  14.316  0.00  0.00    +0.000 C 
BRANCH  15  20
ATOM     16  C   UNL     1      48.043   4.971  16.550  0.00  0.00    +0.000 A 
ATOM     17  C   UNL     1      48.149   5.559  17.815  0.00  0.00    +0.000 A 
ATOM     18  C   UNL     1      48.574   6.883  17.940  0.00  0.00    +0.000 A 
ATOM     19  C   UNL     1      48.914   7.620  16.806  0.00  0.00    +0.000 A 
ATOM     20  C   UNL     1      48.846   7.030  15.540  0.00  0.00    +0.000 A 
ATOM     21  C   UNL     1      48.394   5.711  15.415  0.00  0.00    +0.000 A 
BRANCH  16  23
ATOM     22  N   UNL     1      46.952   2.973  17.406  0.00  0.00    +0.000 N 
ATOM     23  C   UNL     1      47.602   3.565  16.363  0.00  0.00    +0.000 C 
ATOM     24  O   UNL     1      47.772   2.969  15.310  0.00  0.00    +0.000 OA
ATOM     25  H   UNL     1      46.557   2.057  17.226  0.00  0.00    +0.000 HD
ATOM     26  H   UNL     1      46.569   3.500  18.177  0.00  0.00    +0.000 HD
ENDBRANCH  16  23
ENDBRANCH  15  20
ENDBRANCH   1  15
TORSDOF 5
ENDMDL
MODEL 5
REMARK VINA RESULT:    -6.874      4.035      7.385
REMARK INTER + INTRA:          -9.655
REMARK INTER:                  -8.838
REMARK INTRA:                  -0.817
REMARK UNBOUND:                -0.771
REMARK  Name = 
REMARK  5 active torsions:
REMARK  status: ('A' for Active; 'I' for Inactive)
REMARK    1  A    between atoms: C_2  and  C_4
REMARK    2  A    between atoms: C_8  and  C_9
REMARK    3  A    between atoms: C_9  and  C_10
REMARK    4  A    between atoms: C_10  and  C_11
REMARK    5  A    between atoms: C_15  and  C_16
REMARK                            x       y       z     vdW  Elec       q    Type
REMARK                         _______ _______ _______ _____ _____    ______ ____
ROOT
ATOM      1  C   UNL     1      48.183   8.197  11.985  0.00  0.00    +0.000 C 
ENDROOT
BRANCH   1   2
ATOM      2  C   UNL     1      47.406   6.951  12.359  0.00  0.00    +0.000 A 
ATOM      3  C   UNL     1      47.608   6.270  13.565  0.00  0.00    +0.000 A 
ATOM      4  C   UNL     1      46.869   5.130  13.870  0.00  0.00    +0.000 A 
ATOM      5  C   UNL     1      45.861   4.707  13.009  0.00  0.00    +0.000 A 
ATOM      6  C   UNL     1      45.562   5.415  11.833  0.00  0.00    +0.000 A 
ATOM      7  C   UNL     1      46.377   6.512  11.507  0.00  0.00    +0.000 A 
BRANCH   6   8
ATOM      8  C   UNL     1      44.280   5.075  11.077  0.00  0.00    +0.000 C 
ATOM      9  C   UNL     1      43.204   4.371  11.922  0.00  0.00    +0.000 C 
ATOM     10  C   UNL     1      43.470   2.875  12.059  0.00  0.00    +0.000 C 
ATOM     11  N   UNL     1      43.575   2.215  10.756  0.00  0.00    +0.000 NA
ATOM     12  C   UNL     1      44.637   2.811   9.946  0.00  0.00    +0.000 C 
ATOM     13  C   UNL     1      44.438   4.314   9.746  0.00  0.00    +0.000 C 
ATOM     14  H   UNL     1      42.687   2.308  10.262  0.00  0.00    +0.000 HD
ENDBRANCH   6   8
ENDBRANCH   1   2
BRANCH   1  15
ATOM     15  C   UNL     1      47.688   9.468  12.680  0.00  0.00    +0.000 C 
BRANCH  15  20
ATOM     16  C   UNL     1      44.485  10.831  11.149  0.00  0.00    +0.000 A 
ATOM     17  C   UNL     1      44.978  11.898  10.388  0.00  0.00    +0.000 A 
ATOM     18  C   UNL     1      46.351  12.140  10.327  0.00  0.00    +0.000 A 
ATOM     19  C   UNL     1      47.238  11.334  11.039  0.00  0.00    +0.000 A 
ATOM     20  C   UNL     1      46.753  10.288  11.831  0.00  0.00    +0.000 A 
ATOM     21  C   UNL     1      45.378  10.030  11.869  0.00  0.00    +0.000 A 
BRANCH  16  23
ATOM     22  N   UNL     1      42.349  11.123  12.274  0.00  0.00    +0.000 N 
ATOM     23  C   UNL     1      43.034  10.534  11.252  0.00  0.00    +0.000 C 
ATOM     24  O   UNL     1      42.460   9.827  10.437  0.00  0.00    +0.000 OA
ATOM     25  H   UNL     1      41.342  11.005  12.266  0.00  0.00    +0.000 HD
ATOM     26  H   UNL     1      42.720  11.901  12.799  0.00  0.00    +0.000 HD
ENDBRANCH  16  23
ENDBRANCH  15  20
ENDBRANCH   1  15
TORSDOF 5
ENDMDL
MODEL 6
REMARK VINA RESULT:    -6.731      2.763      4.665
REMARK INTER + INTRA:          -9.471
REMARK INTER:                  -8.489
REMARK INTRA:                  -0.981
REMARK UNBOUND:                -0.771
REMARK  Name = 
REMARK  5 active torsions:
REMARK  status: ('A' for Active; 'I' for Inactive)
REMARK    1  A    between atoms: C_2  and  C_4
REMARK    2  A    between atoms: C_8  and  C_9
REMARK    3  A    between atoms: C_9  and  C_10
REMARK    4  A    between atoms: C_10  and  C_11
REMARK    5  A    between atoms: C_15  and  C_16
REMARK                            x       y       z     vdW  Elec       q    Type
REMARK                         _______ _______ _______ _____ _____    ______ ____
ROOT
ATOM      1  C   UNL     1      47.241   6.534  12.092  0.00  0.00    +0.000 C 
ENDROOT
BRANCH   1   2
ATOM      2  C   UNL     1      48.119   6.646  13.322  0.00  0.00    +0.000 A 
ATOM      3  C   UNL     1      49.142   7.594  13.434  0.00  0.00    +0.000 A 
ATOM      4  C   UNL     1      49.923   7.666  14.585  0.00  0.00    +0.000 A 
ATOM      5  C   UNL     1      49.634   6.844  15.670  0.00  0.00    +0.000 A 
ATOM      6  C   UNL     1      48.557   5.942  15.635  0.00  0.00    +0.000 A 
ATOM      7  C   UNL     1      47.838   5.831  14.433  0.00  0.00    +0.000 A 
BRANCH   6   8
ATOM      8  C   UNL     1      48.115   5.274  16.935  0.00  0.00    +0.000 C 
ATOM      9  C   UNL     1      49.225   5.127  17.990  0.00  0.00    +0.000 C 
ATOM     10  C   UNL     1      50.118   3.919  17.721  0.00  0.00    +0.000 C 
ATOM     11  N   UNL     1      49.349   2.675  17.647  0.00  0.00    +0.000 NA
ATOM     12  C   UNL     1      48.326   2.748  16.604  0.00  0.00    +0.000 C 
ATOM     13  C   UNL     1      47.375   3.928  16.808  0.00  0.00    +0.000 C 
ATOM     14  H   UNL     1      48.897   2.508  18.546  0.00  0.00    +0.000 HD
ENDBRANCH   6   8
ENDBRANCH   1   2
BRANCH   1  15
ATOM     15  C   UNL     1      45.745   6.668  12.384  0.00  0.00    +0.000 C 
BRANCH  15  20
ATOM     16  C   UNL     1      44.499   3.597  10.518  0.00  0.00    +0.000 A 
ATOM     17  C   UNL     1      43.631   3.036  11.462  0.00  0.00    +0.000 A 
ATOM     18  C   UNL     1      43.407   3.682  12.679  0.00  0.00    +0.000 A 
ATOM     19  C   UNL     1      44.062   4.879  12.969  0.00  0.00    +0.000 A 
ATOM     20  C   UNL     1      44.958   5.428  12.048  0.00  0.00    +0.000 A 
ATOM     21  C   UNL     1      45.161   4.793  10.816  0.00  0.00    +0.000 A 
BRANCH  16  23
ATOM     22  N   UNL     1      44.294   3.566   8.094  0.00  0.00    +0.000 N 
ATOM     23  C   UNL     1      44.776   2.948   9.211  0.00  0.00    +0.000 C 
ATOM     24  O   UNL     1      45.441   1.926   9.125  0.00  0.00    +0.000 OA
ATOM     25  H   UNL     1      44.586   3.177   7.205  0.00  0.00    +0.000 HD
ATOM     26  H   UNL     1      43.973   4.523   8.099  0.00  0.00    +0.000 HD
ENDBRANCH  16  23
ENDBRANCH  15  20
ENDBRANCH   1  15
TORSDOF 5
ENDMDL
MODEL 7
REMARK VINA RESULT:    -6.527      3.003      5.194
REMARK INTER + INTRA:          -9.207
REMARK INTER:                  -8.174
REMARK INTRA:                  -1.033
REMARK UNBOUND:                -0.771
REMARK  Name = 
REMARK  5 active torsions:
REMARK  status: ('A' for Active; 'I' for Inactive)
REMARK    1  A    between atoms: C_2  and  C_4
REMARK    2  A    between atoms: C_8  and  C_9
REMARK    3  A    between atoms: C_9  and  C_10
REMARK    4  A    between atoms: C_10  and  C_11
REMARK    5  A    between atoms: C_15  and  C_16
REMARK                            x       y       z     vdW  Elec       q    Type
REMARK                         _______ _______ _______ _____ _____    ______ ____
ROOT
ATOM      1  C   UNL     1      48.604   7.215  12.520  0.00  0.00    +0.000 C 
ENDROOT
BRANCH   1   2
ATOM      2  C   UNL     1      48.653   7.596  13.986  0.00  0.00    +0.000 A 
ATOM      3  C   UNL     1      48.220   8.841  14.456  0.00  0.00    +0.000 A 
ATOM      4  C   UNL     1      48.278   9.148  15.813  0.00  0.00    +0.000 A 
ATOM      5  C   UNL     1      48.694   8.182  16.725  0.00  0.00    +0.000 A 
ATOM      6  C   UNL     1      49.048   6.889  16.305  0.00  0.00    +0.000 A 
ATOM      7  C   UNL     1      49.060   6.631  14.924  0.00  0.00    +0.000 A 
BRANCH   6   8
ATOM      8  C   UNL     1      49.224   5.797  17.358  0.00  0.00    +0.000 C 
ATOM      9  C   UNL     1      48.892   4.376  16.870  0.00  0.00    +0.000 C 
ATOM     10  C   UNL     1      47.392   4.097  16.890  0.00  0.00    +0.000 C 
ATOM     11  N   UNL     1      46.814   4.302  18.219  0.00  0.00    +0.000 NA
ATOM     12  C   UNL     1      47.047   5.666  18.692  0.00  0.00    +0.000 C 
ATOM     13  C   UNL     1      48.533   6.024  18.717  0.00  0.00    +0.000 C 
ATOM     14  H   UNL     1      47.241   3.645  18.874  0.00  0.00    +0.000 HD
ENDBRANCH   6   8
ENDBRANCH   1   2
BRANCH   1  15
ATOM     15  C   UNL     1      47.228   7.402  11.876  0.00  0.00    +0.000 C 
BRANCH  15  20
ATOM     16  C   UNL     1      45.094   4.384  10.983  0.00  0.00    +0.000 A 
ATOM     17  C   UNL     1      44.803   3.869  12.252  0.00  0.00    +0.000 A 
ATOM     18  C   UNL     1      45.251   4.530  13.396  0.00  0.00    +0.000 A 
ATOM     19  C   UNL     1      46.008   5.696  13.282  0.00  0.00    +0.000 A 
ATOM     20  C   UNL     1      46.334   6.199  12.019  0.00  0.00    +0.000 A 
ATOM     21  C   UNL     1      45.860   5.549  10.872  0.00  0.00    +0.000 A 
BRANCH  16  23
ATOM     22  N   UNL     1      44.055   4.501   8.787  0.00  0.00    +0.000 N 
ATOM     23  C   UNL     1      44.646   3.717   9.734  0.00  0.00    +0.000 C 
ATOM     24  O   UNL     1      44.831   2.525   9.536  0.00  0.00    +0.000 OA
ATOM     25  H   UNL     1      43.859   4.057   7.896  0.00  0.00    +0.000 HD
ATOM     26  H   UNL     1      44.118   5.508   8.799  0.00  0.00    +0.000 HD
ENDBRANCH  16  23
ENDBRANCH  15  20
ENDBRANCH   1  15
TORSDOF 5
ENDMDL
MODEL 8
REMARK VINA RESULT:    -6.324      3.973      6.297
REMARK INTER + INTRA:          -8.944
REMARK INTER:                  -7.753
REMARK INTRA:                  -1.190
REMARK UNBOUND:                -0.771
REMARK  Name = 
REMARK  5 active torsions:
REMARK  status: ('A' for Active; 'I' for Inactive)
REMARK    1  A    between atoms: C_2  and  C_4
REMARK    2  A    between atoms: C_8  and  C_9
REMARK    3  A    between atoms: C_9  and  C_10
REMARK    4  A    between atoms: C_10  and  C_11
REMARK    5  A    between atoms: C_15  and  C_16
REMARK                            x       y       z     vdW  Elec       q    Type
REMARK                         _______ _______ _______ _____ _____    ______ ____
ROOT
ATOM      1  C   UNL     1      49.710   7.543  14.077  0.00  0.00    +0.000 C 
ENDROOT
BRANCH   1   2
ATOM      2  C   UNL     1      49.177   7.801  15.472  0.00  0.00    +0.000 A 
ATOM      3  C   UNL     1      48.728   9.060  15.887  0.00  0.00    +0.000 A 
ATOM      4  C   UNL     1      48.241   9.252  17.177  0.00  0.00    +0.000 A 
ATOM      5  C   UNL     1      48.122   8.167  18.041  0.00  0.00    +0.000 A 
ATOM      6  C   UNL     1      48.474   6.869  17.634  0.00  0.00    +0.000 A 
ATOM      7  C   UNL     1      49.040   6.717  16.357  0.00  0.00    +0.000 A 
BRANCH   6   8
ATOM      8  C   UNL     1      48.065   5.688  18.511  0.00  0.00    +0.000 C 
ATOM      9  C   UNL     1      49.116   5.269  19.554  0.00  0.00    +0.000 C 
ATOM     10  C   UNL     1      50.207   4.390  18.950  0.00  0.00    +0.000 C 
ATOM     11  N   UNL     1      49.655   3.195  18.308  0.00  0.00    +0.000 NA
ATOM     12  C   UNL     1      48.701   3.552  17.259  0.00  0.00    +0.000 C 
ATOM     13  C   UNL     1      47.561   4.425  17.785  0.00  0.00    +0.000 C 
ATOM     14  H   UNL     1      49.180   2.627  19.011  0.00  0.00    +0.000 HD
ENDBRANCH   6   8
ENDBRANCH   1   2
BRANCH   1  15
ATOM     15  C   UNL     1      48.780   8.020  12.960  0.00  0.00    +0.000 C 
BRANCH  15  20
ATOM     16  C   UNL     1      46.344   5.102  13.064  0.00  0.00    +0.000 A 
ATOM     17  C   UNL     1      45.123   5.756  12.863  0.00  0.00    +0.000 A 
ATOM     18  C   UNL     1      45.095   7.134  12.637  0.00  0.00    +0.000 A 
ATOM     19  C   UNL     1      46.281   7.868  12.632  0.00  0.00    +0.000 A 
ATOM     20  C   UNL     1      47.502   7.229  12.868  0.00  0.00    +0.000 A 
ATOM     21  C   UNL     1      47.530   5.843  13.067  0.00  0.00    +0.000 A 
BRANCH  16  23
ATOM     22  N   UNL     1      45.526   2.846  12.668  0.00  0.00    +0.000 N 
ATOM     23  C   UNL     1      46.428   3.640  13.314  0.00  0.00    +0.000 C 
ATOM     24  O   UNL     1      47.291   3.156  14.031  0.00  0.00    +0.000 OA
ATOM     25  H   UNL     1      45.666   1.845  12.756  0.00  0.00    +0.000 HD
ATOM     26  H   UNL     1      44.979   3.170  11.884  0.00  0.00    +0.000 HD
ENDBRANCH  16  23
ENDBRANCH  15  20
ENDBRANCH   1  15
TORSDOF 5
ENDMDL
MODEL 9
REMARK VINA RESULT:    -6.221      3.854      6.089
REMARK INTER + INTRA:          -8.811
REMARK INTER:                  -8.049
REMARK INTRA:                  -0.762
REMARK UNBOUND:                -0.771
REMARK  Name = 
REMARK  5 active torsions:
REMARK  status: ('A' for Active; 'I' for Inactive)
REMARK    1  A    between atoms: C_2  and  C_4
REMARK    2  A    between atoms: C_8  and  C_9
REMARK    3  A    between atoms: C_9  and  C_10
REMARK    4  A    between atoms: C_10  and  C_11
REMARK    5  A    between atoms: C_15  and  C_16
REMARK                            x       y       z     vdW  Elec       q    Type
REMARK                         _______ _______ _______ _____ _____    ______ ____
ROOT
ATOM      1  C   UNL     1      48.904   7.813  13.961  0.00  0.00    +0.000 C 
ENDROOT
BRANCH   1   2
ATOM      2  C   UNL     1      49.830   7.252  15.021  0.00  0.00    +0.000 A 
ATOM      3  C   UNL     1      51.134   7.725  15.211  0.00  0.00    +0.000 A 
ATOM      4  C   UNL     1      51.950   7.185  16.200  0.00  0.00    +0.000 A 
ATOM      5  C   UNL     1      51.443   6.220  17.067  0.00  0.00    +0.000 A 
ATOM      6  C   UNL     1      50.111   5.783  16.971  0.00  0.00    +0.000 A 
ATOM      7  C   UNL     1      49.334   6.284  15.912  0.00  0.00    +0.000 A 
BRANCH   6   8
ATOM      8  C   UNL     1      49.530   4.943  18.106  0.00  0.00    +0.000 C 
ATOM      9  C   UNL     1      48.576   3.824  17.652  0.00  0.00    +0.000 C 
ATOM     10  C   UNL     1      47.170   4.345  17.373  0.00  0.00    +0.000 C 
ATOM     11  N   UNL     1      46.599   5.030  18.534  0.00  0.00    +0.000 NA
ATOM     12  C   UNL     1      47.442   6.148  18.955  0.00  0.00    +0.000 C 
ATOM     13  C   UNL     1      48.872   5.708  19.271  0.00  0.00    +0.000 C 
ATOM     14  H   UNL     1      46.515   4.367  19.306  0.00  0.00    +0.000 HD
ENDBRANCH   6   8
ENDBRANCH   1   2
BRANCH   1  15
ATOM     15  C   UNL     1      48.669   6.869  12.780  0.00  0.00    +0.000 C 
BRANCH  15  20
ATOM     16  C   UNL     1      45.260   5.209  12.494  0.00  0.00    +0.000 A 
ATOM     17  C   UNL     1      44.472   6.276  12.046  0.00  0.00    +0.000 A 
ATOM     18  C   UNL     1      45.056   7.516  11.784  0.00  0.00    +0.000 A 
ATOM     19  C   UNL     1      46.423   7.705  11.986  0.00  0.00    +0.000 A 
ATOM     20  C   UNL     1      47.211   6.656  12.467  0.00  0.00    +0.000 A 
ATOM     21  C   UNL     1      46.629   5.405  12.704  0.00  0.00    +0.000 A 
BRANCH  16  23
ATOM     22  N   UNL     1      45.474   2.786  12.535  0.00  0.00    +0.000 N 
ATOM     23  C   UNL     1      44.687   3.872  12.792  0.00  0.00    +0.000 C 
ATOM     24  O   UNL     1      43.577   3.739  13.286  0.00  0.00    +0.000 OA
ATOM     25  H   UNL     1      45.117   1.890  12.849  0.00  0.00    +0.000 HD
ATOM     26  H   UNL     1      46.468   2.861  12.377  0.00  0.00    +0.000 HD
ENDBRANCH  16  23
ENDBRANCH  15  20
ENDBRANCH   1  15
TORSDOF 5
ENDMDL
