MODEL 1
REMARK VINA RESULT:    -8.463      0.000      0.000
REMARK INTER + INTRA:         -14.103
REMARK INTER:                 -13.163
REMARK INTRA:                  -0.940
REMARK UNBOUND:                -0.940
REMARK  Name = 
REMARK  10 active torsions:
REMARK  status: ('A' for Active; 'I' for Inactive)
REMARK    1  A    between atoms: C_2  and  C_23
REMARK    2  A    between atoms: N_3  and  C_4
REMARK    3  A    between atoms: C_4  and  C_5
REMARK    4  A    between atoms: C_8  and  C_9
REMARK    5  A    between atoms: C_9  and  N_10
REMARK    6  A    between atoms: N_10  and  C_11
REMARK    7  A    between atoms: N_10  and  C_14
REMARK    8  A    between atoms: C_11  and  C_12
REMARK    9  A    between atoms: C_12  and  O_13
REMARK   10  A    between atoms: C_14  and  C_15
REMARK                            x       y       z     vdW  Elec       q    Type
REMARK                         _______ _______ _______ _____ _____    ______ ____
ROOT
ATOM      1  C   UNL     1      48.048   6.482  13.868  0.00  0.00    +0.000 A 
ATOM      2  C   UNL     1      47.136   5.432  14.040  0.00  0.00    +0.000 A 
ATOM      3  C   UNL     1      46.198   5.141  13.049  0.00  0.00    +0.000 A 
ATOM      4  C   UNL     1      46.153   5.900  11.872  0.00  0.00    +0.000 A 
ATOM      5  C   UNL     1      47.133   6.877  11.654  0.00  0.00    +0.000 A 
ATOM      6  C   UNL     1      48.077   7.163  12.645  0.00  0.00    +0.000 A 
ENDROOT
BRANCH   1   7
ATOM      7  C   UNL     1      48.955   6.895  14.996  0.00  0.00    +0.000 C 
BRANCH   7  10
ATOM      8  O   UNL     1      50.726   5.503  16.588  0.00  0.00    +0.000 OA
ATOM      9  C   UNL     1      49.565   5.597  16.969  0.00  0.00    +0.000 C 
ATOM     10  N   UNL     1      48.602   6.258  16.235  0.00  0.00    +0.000 N 
ATOM     11  H   UNL     1      47.684   6.413  16.616  0.00  0.00    +0.000 HD
BRANCH   9  12
ATOM     12  C   UNL     1      49.099   5.029  18.234  0.00  0.00    +0.000 A 
ATOM     13  C   UNL     1      48.824   3.697  18.511  0.00  0.00    +0.000 A 
ATOM     14  N   UNL     1      48.416   3.593  19.815  0.00  0.00    +0.000 N 
ATOM     15  C   UNL     1      48.418   4.827  20.412  0.00  0.00    +0.000 A 
ATOM     16  C   UNL     1      48.088   5.201  21.708  0.00  0.00    +0.000 A 
ATOM     17  N   UNL     1      48.176   6.501  22.064  0.00  0.00    +0.000 NA
ATOM     18  C   UNL     1      48.586   7.403  21.145  0.00  0.00    +0.000 A 
ATOM     19  C   UNL     1      48.929   7.098  19.836  0.00  0.00    +0.000 A 
ATOM     20  C   UNL     1      48.842   5.749  19.453  0.00  0.00    +0.000 A 
ATOM     21  H   UNL     1      48.157   2.731  20.278  0.00  0.00    +0.000 HD
ENDBRANCH   9  12
ENDBRANCH   7  10
ENDBRANCH   1   7
BRANCH   4  22
ATOM     22  C   UNL     1      45.015   5.713  10.886  0.00  0.00    +0.000 C 
BRANCH  22  23
ATOM     23  N   UNL     1      44.622   4.289  10.705  0.00  0.00    +0.000 NA
BRANCH  23  24
ATOM     24  C   UNL     1      43.423   3.971  11.522  0.00  0.00    +0.000 C 
BRANCH  24  25
ATOM     25  C   UNL     1      42.574   5.183  11.951  0.00  0.00    +0.000 C 
BRANCH  25  26
ATOM     26  O   UNL     1      42.593   5.331  13.370  0.00  0.00    +0.000 OA
ATOM     27  H   UNL     1      42.479   4.443  13.752  0.00  0.00    +0.000 HD
ENDBRANCH  25  26
ENDBRANCH  24  25
ENDBRANCH  23  24
BRANCH  23  28
ATOM     28  C   UNL     1      44.344   4.023   9.279  0.00  0.00    +0.000 C 
BRANCH  28  29
ATOM     29  C   UNL     1      45.395   3.215   8.549  0.00  0.00    +0.000 A 
ATOM     30  C   UNL     1      45.525   1.836   8.771  0.00  0.00    +0.000 A 
ATOM     31  C   UNL     1      46.405   1.076   7.998  0.00  0.00    +0.000 A 
ATOM     32  C   UNL     1      47.166   1.687   7.002  0.00  0.00    +0.000 A 
ATOM     33  C   UNL     1      47.065   3.061   6.792  0.00  0.00    +0.000 A 
ATOM     34  C   UNL     1      46.185   3.822   7.562  0.00  0.00    +0.000 A 
ENDBRANCH  28  29
ENDBRANCH  23  28
ENDBRANCH  22  23
ENDBRANCH   4  22
TORSDOF 10
ENDMDL
MODEL 2
REMARK VINA RESULT:    -8.197      1.954      2.809
REMARK INTER + INTRA:         -13.689
REMARK INTER:                 -12.515
REMARK INTRA:                  -1.174
REMARK UNBOUND:                -0.940
REMARK  Name = 
REMARK  10 active torsions:
REMARK  status: ('A' for Active; 'I' for Inactive)
REMARK    1  A    between atoms: C_2  and  C_23
REMARK    2  A    between atoms: N_3  and  C_4
REMARK    3  A    between atoms: C_4  and  C_5
REMARK    4  A    between atoms: C_8  and  C_9
REMARK    5  A    between atoms: C_9  and  N_10
REMARK    6  A    between atoms: N_10  and  C_11
REMARK    7  A    between atoms: N_10  and  C_14
REMARK    8  A    between atoms: C_11  and  C_12
REMARK    9  A    between atoms: C_12  and  O_13
REMARK   10  A    between atoms: C_14  and  C_15
REMARK                            x       y       z     vdW  Elec       q    Type
REMARK                         _______ _______ _______ _____ _____    ______ ____
ROOT
ATOM      1  C   UNL     1      46.873   8.003  12.909  0.00  0.00    +0.000 A 
ATOM      2  C   UNL     1      47.459   7.044  12.072  0.00  0.00    +0.000 A 
ATOM      3  C   UNL     1      46.664   6.240  11.254  0.00  0.00    +0.000 A 
ATOM      4  C   UNL     1      45.270   6.377  11.264  0.00  0.00    +0.000 A 
ATOM      5  C   UNL     1      44.694   7.408  12.019  0.00  0.00    +0.000 A 
ATOM      6  C   UNL     1      45.491   8.218  12.832  0.00  0.00    +0.000 A 
ENDROOT
BRANCH   1   7
ATOM      7  C   UNL     1      47.712   8.762  13.901  0.00  0.00    +0.000 C 
BRANCH   7  10
ATOM      8  O   UNL     1      50.130   7.499  14.311  0.00  0.00    +0.000 OA
ATOM      9  C   UNL     1      49.273   7.393  15.181  0.00  0.00    +0.000 C 
ATOM     10  N   UNL     1      48.027   7.973  15.060  0.00  0.00    +0.000 N 
ATOM     11  H   UNL     1      47.378   7.960  15.829  0.00  0.00    +0.000 HD
BRANCH   9  12
ATOM     12  C   UNL     1      49.493   6.652  16.424  0.00  0.00    +0.000 A 
ATOM     13  C   UNL     1      50.364   6.972  17.455  0.00  0.00    +0.000 A 
ATOM     14  N   UNL     1      50.260   6.018  18.433  0.00  0.00    +0.000 N 
ATOM     15  C   UNL     1      49.333   5.073  18.075  0.00  0.00    +0.000 A 
ATOM     16  C   UNL     1      48.898   3.939  18.749  0.00  0.00    +0.000 A 
ATOM     17  N   UNL     1      47.956   3.154  18.182  0.00  0.00    +0.000 NA
ATOM     18  C   UNL     1      47.462   3.497  16.972  0.00  0.00    +0.000 A 
ATOM     19  C   UNL     1      47.853   4.613  16.247  0.00  0.00    +0.000 A 
ATOM     20  C   UNL     1      48.831   5.439  16.825  0.00  0.00    +0.000 A 
ATOM     21  H   UNL     1      50.782   6.012  19.300  0.00  0.00    +0.000 HD
ENDBRANCH   9  12
ENDBRANCH   7  10
ENDBRANCH   1   7
BRANCH   4  22
ATOM     22  C   UNL     1      44.398   5.377  10.528  0.00  0.00    +0.000 C 
BRANCH  22  23
ATOM     23  N   UNL     1      45.027   4.036  10.395  0.00  0.00    +0.000 NA
BRANCH  23  24
ATOM     24  C   UNL     1      44.754   3.209  11.600  0.00  0.00    +0.000 C 
BRANCH  24  25
ATOM     25  C   UNL     1      43.265   3.021  11.948  0.00  0.00    +0.000 C 
BRANCH  25  26
ATOM     26  O   UNL     1      42.858   1.676  11.699  0.00  0.00    +0.000 OA
ATOM     27  H   UNL     1      42.315   1.685  10.892  0.00  0.00    +0.000 HD
ENDBRANCH  25  26
ENDBRANCH  24  25
ENDBRANCH  23  24
BRANCH  23  28
ATOM     28  C   UNL     1      44.507   3.356   9.191  0.00  0.00    +0.000 C 
BRANCH  28  29
ATOM     29  C   UNL     1      45.555   2.769   8.271  0.00  0.00    +0.000 A 
ATOM     30  C   UNL     1      46.272   3.584   7.383  0.00  0.00    +0.000 A 
ATOM     31  C   UNL     1      47.328   3.057   6.635  0.00  0.00    +0.000 A 
ATOM     32  C   UNL     1      47.669   1.711   6.763  0.00  0.00    +0.000 A 
ATOM     33  C   UNL     1      46.945   0.886   7.621  0.00  0.00    +0.000 A 
ATOM     34  C   UNL     1      45.892   1.411   8.370  0.00  0.00    +0.000 A 
ENDBRANCH  28  29
ENDBRANCH  23  28
ENDBRANCH  22  23
ENDBRANCH   4  22
TORSDOF 10
ENDMDL
MODEL 3
REMARK VINA RESULT:    -7.393      1.913      2.656
REMARK INTER + INTRA:         -12.439
REMARK INTER:                 -11.620
REMARK INTRA:                  -0.819
REMARK UNBOUND:                -0.940
REMARK  Name = 
REMARK  10 active torsions:
REMARK  status: ('A' for Active; 'I' for Inactive)
REMARK    1  A    between atoms: C_2  and  C_23
REMARK    2  A    between atoms: N_3  and  C_4
REMARK    3  A    between atoms: C_4  and  C_5
REMARK    4  A    between atoms: C_8  and  C_9
REMARK    5  A    between atoms: C_9  and  N_10
REMARK    6  A    between atoms: N_10  and  C_11
REMARK    7  A    between atoms: N_10  and  C_14
REMARK    8  A    between atoms: C_11  and  C_12
REMARK    9  A    between atoms: C_12  and  O_13
REMARK   10  A    between atoms: C_14  and  C_15
REMARK                            x       y       z     vdW  Elec       q    Type
REMARK                         _______ _______ _______ _____ _____    ______ ____
ROOT
ATOM      1  C   UNL     1      47.464   7.389  13.584  0.00  0.00    +0.000 A 
ATOM      2  C   UNL     1      46.377   8.211  13.258  0.00  0.00    +0.000 A 
ATOM      3  C   UNL     1      45.391   7.762  12.378  0.00  0.00    +0.000 A 
ATOM      4  C   UNL     1      45.480   6.486  11.805  0.00  0.00    +0.000 A 
ATOM      5  C   UNL     1      46.508   5.627  12.216  0.00  0.00    +0.000 A 
ATOM      6  C   UNL     1      47.490   6.074  13.103  0.00  0.00    +0.000 A 
ENDROOT
BRANCH   1   7
ATOM      7  C   UNL     1      48.604   7.926  14.408  0.00  0.00    +0.000 C 
BRANCH   7  10
ATOM      8  O   UNL     1      48.810  10.150  16.026  0.00  0.00    +0.000 OA
ATOM      9  C   UNL     1      48.418   9.106  16.535  0.00  0.00    +0.000 C 
ATOM     10  N   UNL     1      48.299   7.937  15.812  0.00  0.00    +0.000 N 
ATOM     11  H   UNL     1      47.878   7.120  16.223  0.00  0.00    +0.000 HD
BRANCH   9  12
ATOM     12  C   UNL     1      48.037   9.005  17.943  0.00  0.00    +0.000 A 
ATOM     13  C   UNL     1      47.612  10.028  18.779  0.00  0.00    +0.000 A 
ATOM     14  N   UNL     1      47.352   9.506  20.019  0.00  0.00    +0.000 N 
ATOM     15  C   UNL     1      47.590   8.156  20.023  0.00  0.00    +0.000 A 
ATOM     16  C   UNL     1      47.460   7.223  21.044  0.00  0.00    +0.000 A 
ATOM     17  N   UNL     1      47.756   5.928  20.797  0.00  0.00    +0.000 NA
ATOM     18  C   UNL     1      48.171   5.578  19.560  0.00  0.00    +0.000 A 
ATOM     19  C   UNL     1      48.323   6.458  18.498  0.00  0.00    +0.000 A 
ATOM     20  C   UNL     1      48.017   7.807  18.741  0.00  0.00    +0.000 A 
ATOM     21  H   UNL     1      47.023  10.034  20.817  0.00  0.00    +0.000 HD
ENDBRANCH   9  12
ENDBRANCH   7  10
ENDBRANCH   1   7
BRANCH   4  22
ATOM     22  C   UNL     1      44.520   6.074  10.705  0.00  0.00    +0.000 C 
BRANCH  22  23
ATOM     23  N   UNL     1      44.409   4.600  10.544  0.00  0.00    +0.000 NA
BRANCH  23  24
ATOM     24  C   UNL     1      43.256   4.074  11.320  0.00  0.00    +0.000 C 
BRANCH  24  25
ATOM     25  C   UNL     1      43.563   2.860  12.218  0.00  0.00    +0.000 C 
BRANCH  25  26
ATOM     26  O   UNL     1      43.031   1.667  11.644  0.00  0.00    +0.000 OA
ATOM     27  H   UNL     1      42.801   1.072  12.380  0.00  0.00    +0.000 HD
ENDBRANCH  25  26
ENDBRANCH  24  25
ENDBRANCH  23  24
BRANCH  23  28
ATOM     28  C   UNL     1      44.249   4.262   9.115  0.00  0.00    +0.000 C 
BRANCH  28  29
ATOM     29  C   UNL     1      45.327   3.376   8.529  0.00  0.00    +0.000 A 
ATOM     30  C   UNL     1      45.344   1.998   8.787  0.00  0.00    +0.000 A 
ATOM     31  C   UNL     1      46.260   1.168   8.136  0.00  0.00    +0.000 A 
ATOM     32  C   UNL     1      47.170   1.710   7.229  0.00  0.00    +0.000 A 
ATOM     33  C   UNL     1      47.179   3.082   6.986  0.00  0.00    +0.000 A 
ATOM     34  C   UNL     1      46.264   3.912   7.633  0.00  0.00    +0.000 A 
ENDBRANCH  28  29
ENDBRANCH  23  28
ENDBRANCH  22  23
ENDBRANCH   4  22
TORSDOF 10
ENDMDL
MODEL 4
REMARK VINA RESULT:    -7.226      3.094      4.510
REMARK INTER + INTRA:         -12.178
REMARK INTER:                 -10.831
REMARK INTRA:                  -1.347
REMARK UNBOUND:                -0.940
REMARK  Name = 
REMARK  10 active torsions:
REMARK  status: ('A' for Active; 'I' for Inactive)
REMARK    1  A    between atoms: C_2  and  C_23
REMARK    2  A    between atoms: N_3  and  C_4
REMARK    3  A    between atoms: C_4  and  C_5
REMARK    4  A    between atoms: C_8  and  C_9
REMARK    5  A    between atoms: C_9  and  N_10
REMARK    6  A    between atoms: N_10  and  C_11
REMARK    7  A    between atoms: N_10  and  C_14
REMARK    8  A    between atoms: C_11  and  C_12
REMARK    9  A    between atoms: C_12  and  O_13
REMARK   10  A    between atoms: C_14  and  C_15
REMARK                            x       y       z     vdW  Elec       q    Type
REMARK                         _______ _______ _______ _____ _____    ______ ____
ROOT
ATOM      1  C   UNL     1      47.696   4.422  16.010  0.00  0.00    +0.000 A 
ATOM      2  C   UNL     1      46.994   4.031  14.861  0.00  0.00    +0.000 A 
ATOM      3  C   UNL     1      46.873   4.902  13.778  0.00  0.00    +0.000 A 
ATOM      4  C   UNL     1      47.445   6.180  13.828  0.00  0.00    +0.000 A 
ATOM      5  C   UNL     1      48.237   6.528  14.931  0.00  0.00    +0.000 A 
ATOM      6  C   UNL     1      48.365   5.652  16.012  0.00  0.00    +0.000 A 
ENDROOT
BRANCH   1   7
ATOM      7  C   UNL     1      47.697   3.547  17.235  0.00  0.00    +0.000 C 
BRANCH   7  10
ATOM      8  O   UNL     1      49.333   1.692  16.013  0.00  0.00    +0.000 OA
ATOM      9  C   UNL     1      49.776   2.295  16.983  0.00  0.00    +0.000 C 
ATOM     10  N   UNL     1      49.029   3.229  17.672  0.00  0.00    +0.000 N 
ATOM     11  H   UNL     1      49.447   3.786  18.398  0.00  0.00    +0.000 HD
BRANCH   9  12
ATOM     12  C   UNL     1      51.132   2.089  17.493  0.00  0.00    +0.000 A 
ATOM     13  C   UNL     1      51.762   0.880  17.752  0.00  0.00    +0.000 A 
ATOM     14  N   UNL     1      53.027   1.132  18.215  0.00  0.00    +0.000 N 
ATOM     15  C   UNL     1      53.252   2.484  18.264  0.00  0.00    +0.000 A 
ATOM     16  C   UNL     1      54.378   3.194  18.659  0.00  0.00    +0.000 A 
ATOM     17  N   UNL     1      54.357   4.544  18.614  0.00  0.00    +0.000 NA
ATOM     18  C   UNL     1      53.238   5.165  18.183  0.00  0.00    +0.000 A 
ATOM     19  C   UNL     1      52.081   4.517  17.776  0.00  0.00    +0.000 A 
ATOM     20  C   UNL     1      52.089   3.113  17.818  0.00  0.00    +0.000 A 
ATOM     21  H   UNL     1      53.704   0.427  18.476  0.00  0.00    +0.000 HD
ENDBRANCH   9  12
ENDBRANCH   7  10
ENDBRANCH   1   7
BRANCH   4  22
ATOM     22  C   UNL     1      47.149   7.193  12.738  0.00  0.00    +0.000 C 
BRANCH  22  23
ATOM     23  N   UNL     1      45.715   7.584  12.675  0.00  0.00    +0.000 NA
BRANCH  23  24
ATOM     24  C   UNL     1      45.561   9.043  12.911  0.00  0.00    +0.000 C 
BRANCH  24  25
ATOM     25  C   UNL     1      44.832   9.820  11.798  0.00  0.00    +0.000 C 
BRANCH  25  26
ATOM     26  O   UNL     1      43.610  10.370  12.290  0.00  0.00    +0.000 OA
ATOM     27  H   UNL     1      43.807  11.271  12.603  0.00  0.00    +0.000 HD
ENDBRANCH  25  26
ENDBRANCH  24  25
ENDBRANCH  23  24
BRANCH  23  28
ATOM     28  C   UNL     1      45.156   7.228  11.354  0.00  0.00    +0.000 C 
BRANCH  28  29
ATOM     29  C   UNL     1      44.720   5.787  11.199  0.00  0.00    +0.000 A 
ATOM     30  C   UNL     1      43.739   5.237  12.037  0.00  0.00    +0.000 A 
ATOM     31  C   UNL     1      43.248   3.951  11.801  0.00  0.00    +0.000 A 
ATOM     32  C   UNL     1      43.737   3.203  10.731  0.00  0.00    +0.000 A 
ATOM     33  C   UNL     1      44.732   3.729   9.909  0.00  0.00    +0.000 A 
ATOM     34  C   UNL     1      45.223   5.013  10.142  0.00  0.00    +0.000 A 
ENDBRANCH  28  29
ENDBRANCH  23  28
ENDBRANCH  22  23
ENDBRANCH   4  22
TORSDOF 10
ENDMDL
MODEL 5
REMARK VINA RESULT:    -6.965      2.644      9.357
REMARK INTER + INTRA:         -11.773
REMARK INTER:                 -10.096
REMARK INTRA:                  -1.677
REMARK UNBOUND:                -0.940
REMARK  Name = 
REMARK  10 active torsions:
REMARK  status: ('A' for Active; 'I' for Inactive)
REMARK    1  A    between atoms: C_2  and  C_23
REMARK    2  A    between atoms: N_3  and  C_4
REMARK    3  A    between atoms: C_4  and  C_5
REMARK    4  A    between atoms: C_8  and  C_9
REMARK    5  A    between atoms: C_9  and  N_10
REMARK    6  A    between atoms: N_10  and  C_11
REMARK    7  A    between atoms: N_10  and  C_14
REMARK    8  A    between atoms: C_11  and  C_12
REMARK    9  A    between atoms: C_12  and  O_13
REMARK   10  A    between atoms: C_14  and  C_15
REMARK                            x       y       z     vdW  Elec       q    Type
REMARK                         _______ _______ _______ _____ _____    ______ ____
ROOT
ATOM      1  C   UNL     1      46.911   7.809  12.769  0.00  0.00    +0.000 A 
ATOM      2  C   UNL     1      46.990   8.761  13.795  0.00  0.00    +0.000 A 
ATOM      3  C   UNL     1      48.178   8.935  14.506  0.00  0.00    +0.000 A 
ATOM      4  C   UNL     1      49.304   8.157  14.208  0.00  0.00    +0.000 A 
ATOM      5  C   UNL     1      49.256   7.284  13.112  0.00  0.00    +0.000 A 
ATOM      6  C   UNL     1      48.068   7.115  12.396  0.00  0.00    +0.000 A 
ENDROOT
BRANCH   1   7
ATOM      7  C   UNL     1      45.593   7.512  12.107  0.00  0.00    +0.000 C 
BRANCH   7  10
ATOM      8  O   UNL     1      43.271   6.294  11.248  0.00  0.00    +0.000 OA
ATOM      9  C   UNL     1      44.307   5.640  11.214  0.00  0.00    +0.000 C 
ATOM     10  N   UNL     1      45.515   6.156  11.639  0.00  0.00    +0.000 N 
ATOM     11  H   UNL     1      46.368   5.639  11.505  0.00  0.00    +0.000 HD
BRANCH   9  12
ATOM     12  C   UNL     1      44.361   4.266  10.717  0.00  0.00    +0.000 A 
ATOM     13  C   UNL     1      43.745   3.146  11.260  0.00  0.00    +0.000 A 
ATOM     14  N   UNL     1      44.048   2.057  10.485  0.00  0.00    +0.000 N 
ATOM     15  C   UNL     1      44.848   2.431   9.435  0.00  0.00    +0.000 A 
ATOM     16  C   UNL     1      45.391   1.675   8.405  0.00  0.00    +0.000 A 
ATOM     17  N   UNL     1      46.156   2.282   7.472  0.00  0.00    +0.000 NA
ATOM     18  C   UNL     1      46.370   3.613   7.569  0.00  0.00    +0.000 A 
ATOM     19  C   UNL     1      45.860   4.424   8.571  0.00  0.00    +0.000 A 
ATOM     20  C   UNL     1      45.062   3.805   9.548  0.00  0.00    +0.000 A 
ATOM     21  H   UNL     1      43.724   1.114  10.653  0.00  0.00    +0.000 HD
ENDBRANCH   9  12
ENDBRANCH   7  10
ENDBRANCH   1   7
BRANCH   4  22
ATOM     22  C   UNL     1      50.527   8.207  15.104  0.00  0.00    +0.000 C 
BRANCH  22  23
ATOM     23  N   UNL     1      50.907   6.878  15.654  0.00  0.00    +0.000 NA
BRANCH  23  24
ATOM     24  C   UNL     1      52.356   6.843  15.980  0.00  0.00    +0.000 C 
BRANCH  24  25
ATOM     25  C   UNL     1      52.703   6.358  17.400  0.00  0.00    +0.000 C 
BRANCH  25  26
ATOM     26  O   UNL     1      53.227   5.031  17.363  0.00  0.00    +0.000 OA
ATOM     27  H   UNL     1      54.115   5.085  16.968  0.00  0.00    +0.000 HD
ENDBRANCH  25  26
ENDBRANCH  24  25
ENDBRANCH  23  24
BRANCH  23  28
ATOM     28  C   UNL     1      50.112   6.593  16.867  0.00  0.00    +0.000 C 
BRANCH  28  29
ATOM     29  C   UNL     1      49.295   5.320  16.826  0.00  0.00    +0.000 A 
ATOM     30  C   UNL     1      49.696   4.184  17.543  0.00  0.00    +0.000 A 
ATOM     31  C   UNL     1      48.869   3.060  17.608  0.00  0.00    +0.000 A 
ATOM     32  C   UNL     1      47.639   3.061  16.951  0.00  0.00    +0.000 A 
ATOM     33  C   UNL     1      47.243   4.174  16.212  0.00  0.00    +0.000 A 
ATOM     34  C   UNL     1      48.067   5.298  16.149  0.00  0.00    +0.000 A 
ENDBRANCH  28  29
ENDBRANCH  23  28
ENDBRANCH  22  23
ENDBRANCH   4  22
TORSDOF 10
ENDMDL
MODEL 6
REMARK VINA RESULT:    -6.937      2.948      9.034
REMARK INTER + INTRA:         -11.729
REMARK INTER:                  -9.549
REMARK INTRA:                  -2.180
REMARK UNBOUND:                -0.940
REMARK  Name = 
REMARK  10 active torsions:
REMARK  status: ('A' for Active; 'I' for Inactive)
REMARK    1  A    between atoms: C_2  and  C_23
REMARK    2  A    between atoms: N_3  and  C_4
REMARK    3  A    between atoms: C_4  and  C_5
REMARK    4  A    between atoms: C_8  and  C_9
REMARK    5  A    between atoms: C_9  and  N_10
REMARK    6  A    between atoms: N_10  and  C_11
REMARK    7  A    between atoms: N_10  and  C_14
REMARK    8  A    between atoms: C_11  and  C_12
REMARK    9  A    between atoms: C_12  and  O_13
REMARK   10  A    between atoms: C_14  and  C_15
REMARK                            x       y       z     vdW  Elec       q    Type
REMARK                         _______ _______ _______ _____ _____    ______ ____
ROOT
ATOM      1  C   UNL     1      48.989   7.803  15.793  0.00  0.00    +0.000 A 
ATOM      2  C   UNL     1      48.679   8.548  16.939  0.00  0.00    +0.000 A 
ATOM      3  C   UNL     1      49.370   8.329  18.131  0.00  0.00    +0.000 A 
ATOM      4  C   UNL     1      50.377   7.358  18.199  0.00  0.00    +0.000 A 
ATOM      5  C   UNL     1      50.759   6.692  17.027  0.00  0.00    +0.000 A 
ATOM      6  C   UNL     1      50.072   6.917  15.831  0.00  0.00    +0.000 A 
ENDROOT
BRANCH   1   7
ATOM      7  C   UNL     1      48.145   7.928  14.553  0.00  0.00    +0.000 C 
BRANCH   7  10
ATOM      8  O   UNL     1      47.756   6.843  12.047  0.00  0.00    +0.000 OA
ATOM      9  C   UNL     1      47.257   6.265  13.005  0.00  0.00    +0.000 C 
ATOM     10  N   UNL     1      47.381   6.739  14.295  0.00  0.00    +0.000 N 
ATOM     11  H   UNL     1      47.054   6.194  15.075  0.00  0.00    +0.000 HD
BRANCH   9  12
ATOM     12  C   UNL     1      46.497   5.022  12.872  0.00  0.00    +0.000 A 
ATOM     13  C   UNL     1      46.848   3.763  13.336  0.00  0.00    +0.000 A 
ATOM     14  N   UNL     1      45.856   2.878  13.004  0.00  0.00    +0.000 N 
ATOM     15  C   UNL     1      44.849   3.524  12.334  0.00  0.00    +0.000 A 
ATOM     16  C   UNL     1      43.656   3.038  11.816  0.00  0.00    +0.000 A 
ATOM     17  N   UNL     1      42.812   3.888  11.190  0.00  0.00    +0.000 NA
ATOM     18  C   UNL     1      43.155   5.190  11.089  0.00  0.00    +0.000 A 
ATOM     19  C   UNL     1      44.329   5.740  11.582  0.00  0.00    +0.000 A 
ATOM     20  C   UNL     1      45.216   4.867  12.235  0.00  0.00    +0.000 A 
ATOM     21  H   UNL     1      45.856   1.891  13.228  0.00  0.00    +0.000 HD
ENDBRANCH   9  12
ENDBRANCH   7  10
ENDBRANCH   1   7
BRANCH   4  22
ATOM     22  C   UNL     1      50.990   6.984  19.535  0.00  0.00    +0.000 C 
BRANCH  22  23
ATOM     23  N   UNL     1      50.738   5.570  19.922  0.00  0.00    +0.000 NA
BRANCH  23  24
ATOM     24  C   UNL     1      51.334   5.277  21.251  0.00  0.00    +0.000 C 
BRANCH  24  25
ATOM     25  C   UNL     1      52.564   4.348  21.234  0.00  0.00    +0.000 C 
BRANCH  25  26
ATOM     26  O   UNL     1      52.680   3.696  19.970  0.00  0.00    +0.000 OA
ATOM     27  H   UNL     1      51.821   3.278  19.782  0.00  0.00    +0.000 HD
ENDBRANCH  25  26
ENDBRANCH  24  25
ENDBRANCH  23  24
BRANCH  23  28
ATOM     28  C   UNL     1      49.284   5.311  19.956  0.00  0.00    +0.000 C 
BRANCH  28  29
ATOM     29  C   UNL     1      48.742   4.482  18.812  0.00  0.00    +0.000 A 
ATOM     30  C   UNL     1      47.539   4.827  18.179  0.00  0.00    +0.000 A 
ATOM     31  C   UNL     1      47.116   4.137  17.041  0.00  0.00    +0.000 A 
ATOM     32  C   UNL     1      47.887   3.094  16.530  0.00  0.00    +0.000 A 
ATOM     33  C   UNL     1      49.071   2.724  17.168  0.00  0.00    +0.000 A 
ATOM     34  C   UNL     1      49.496   3.413  18.304  0.00  0.00    +0.000 A 
ENDBRANCH  28  29
ENDBRANCH  23  28
ENDBRANCH  22  23
ENDBRANCH   4  22
TORSDOF 10
ENDMDL
MODEL 7
REMARK VINA RESULT:    -6.470      1.663      1.805
REMARK INTER + INTRA:         -11.002
REMARK INTER:                 -10.329
REMARK INTRA:                  -0.673
REMARK UNBOUND:                -0.940
REMARK  Name = 
REMARK  10 active torsions:
REMARK  status: ('A' for Active; 'I' for Inactive)
REMARK    1  A    between atoms: C_2  and  C_23
REMARK    2  A    between atoms: N_3  and  C_4
REMARK    3  A    between atoms: C_4  and  C_5
REMARK    4  A    between atoms: C_8  and  C_9
REMARK    5  A    between atoms: C_9  and  N_10
REMARK    6  A    between atoms: N_10  and  C_11
REMARK    7  A    between atoms: N_10  and  C_14
REMARK    8  A    between atoms: C_11  and  C_12
REMARK    9  A    between atoms: C_12  and  O_13
REMARK   10  A    between atoms: C_14  and  C_15
REMARK                            x       y       z     vdW  Elec       q    Type
REMARK                         _______ _______ _______ _____ _____    ______ ____
ROOT
ATOM      1  C   UNL     1      47.772   7.889  13.911  0.00  0.00    +0.000 A 
ATOM      2  C   UNL     1      47.846   6.505  13.708  0.00  0.00    +0.000 A 
ATOM      3  C   UNL     1      47.262   5.924  12.581  0.00  0.00    +0.000 A 
ATOM      4  C   UNL     1      46.589   6.718  11.643  0.00  0.00    +0.000 A 
ATOM      5  C   UNL     1      46.610   8.111  11.792  0.00  0.00    +0.000 A 
ATOM      6  C   UNL     1      47.201   8.692  12.916  0.00  0.00    +0.000 A 
ENDROOT
BRANCH   1   7
ATOM      7  C   UNL     1      48.264   8.497  15.197  0.00  0.00    +0.000 C 
BRANCH   7  10
ATOM      8  O   UNL     1      47.840   9.082  17.860  0.00  0.00    +0.000 OA
ATOM      9  C   UNL     1      48.091   7.920  17.561  0.00  0.00    +0.000 C 
ATOM     10  N   UNL     1      48.335   7.532  16.260  0.00  0.00    +0.000 N 
ATOM     11  H   UNL     1      48.435   6.558  16.025  0.00  0.00    +0.000 HD
BRANCH   9  12
ATOM     12  C   UNL     1      48.146   6.842  18.550  0.00  0.00    +0.000 A 
ATOM     13  C   UNL     1      47.118   5.993  18.932  0.00  0.00    +0.000 A 
ATOM     14  N   UNL     1      47.592   5.126  19.882  0.00  0.00    +0.000 N 
ATOM     15  C   UNL     1      48.915   5.379  20.134  0.00  0.00    +0.000 A 
ATOM     16  C   UNL     1      49.799   4.757  21.007  0.00  0.00    +0.000 A 
ATOM     17  N   UNL     1      51.077   5.191  21.075  0.00  0.00    +0.000 NA
ATOM     18  C   UNL     1      51.458   6.222  20.288  0.00  0.00    +0.000 A 
ATOM     19  C   UNL     1      50.627   6.887  19.399  0.00  0.00    +0.000 A 
ATOM     20  C   UNL     1      49.296   6.444  19.318  0.00  0.00    +0.000 A 
ATOM     21  H   UNL     1      47.050   4.397  20.328  0.00  0.00    +0.000 HD
ENDBRANCH   9  12
ENDBRANCH   7  10
ENDBRANCH   1   7
BRANCH   4  22
ATOM     22  C   UNL     1      45.791   6.070  10.527  0.00  0.00    +0.000 C 
BRANCH  22  23
ATOM     23  N   UNL     1      45.108   4.816  10.945  0.00  0.00    +0.000 NA
BRANCH  23  24
ATOM     24  C   UNL     1      44.078   5.101  11.977  0.00  0.00    +0.000 C 
BRANCH  24  25
ATOM     25  C   UNL     1      42.964   6.075  11.549  0.00  0.00    +0.000 C 
BRANCH  25  26
ATOM     26  O   UNL     1      41.679   5.519  11.824  0.00  0.00    +0.000 OA
ATOM     27  H   UNL     1      41.219   6.140  12.416  0.00  0.00    +0.000 HD
ENDBRANCH  25  26
ENDBRANCH  24  25
ENDBRANCH  23  24
BRANCH  23  28
ATOM     28  C   UNL     1      44.480   4.173   9.772  0.00  0.00    +0.000 C 
BRANCH  28  29
ATOM     29  C   UNL     1      45.414   3.376   8.888  0.00  0.00    +0.000 A 
ATOM     30  C   UNL     1      45.493   1.980   9.000  0.00  0.00    +0.000 A 
ATOM     31  C   UNL     1      46.256   1.241   8.092  0.00  0.00    +0.000 A 
ATOM     32  C   UNL     1      46.949   1.890   7.072  0.00  0.00    +0.000 A 
ATOM     33  C   UNL     1      46.899   3.279   6.969  0.00  0.00    +0.000 A 
ATOM     34  C   UNL     1      46.137   4.019   7.873  0.00  0.00    +0.000 A 
ENDBRANCH  28  29
ENDBRANCH  23  28
ENDBRANCH  22  23
ENDBRANCH   4  22
TORSDOF 10
ENDMDL
MODEL 8
REMARK VINA RESULT:    -6.263      2.691      4.341
REMARK INTER + INTRA:         -10.681
REMARK INTER:                  -8.855
REMARK INTRA:                  -1.826
REMARK UNBOUND:                -0.940
REMARK  Name = 
REMARK  10 active torsions:
REMARK  status: ('A' for Active; 'I' for Inactive)
REMARK    1  A    between atoms: C_2  and  C_23
REMARK    2  A    between atoms: N_3  and  C_4
REMARK    3  A    between atoms: C_4  and  C_5
REMARK    4  A    between atoms: C_8  and  C_9
REMARK    5  A    between atoms: C_9  and  N_10
REMARK    6  A    between atoms: N_10  and  C_11
REMARK    7  A    between atoms: N_10  and  C_14
REMARK    8  A    between atoms: C_11  and  C_12
REMARK    9  A    between atoms: C_12  and  O_13
REMARK   10  A    between atoms: C_14  and  C_15
REMARK                            x       y       z     vdW  Elec       q    Type
REMARK                         _______ _______ _______ _____ _____    ______ ____
ROOT
ATOM      1  C   UNL     1      47.816   4.799  16.202  0.00  0.00    +0.000 A 
ATOM      2  C   UNL     1      47.077   4.194  15.176  0.00  0.00    +0.000 A 
ATOM      3  C   UNL     1      46.960   4.812  13.931  0.00  0.00    +0.000 A 
ATOM      4  C   UNL     1      47.574   6.049  13.692  0.00  0.00    +0.000 A 
ATOM      5  C   UNL     1      48.401   6.598  14.681  0.00  0.00    +0.000 A 
ATOM      6  C   UNL     1      48.524   5.975  15.926  0.00  0.00    +0.000 A 
ENDROOT
BRANCH   1   7
ATOM      7  C   UNL     1      47.816   4.212  17.587  0.00  0.00    +0.000 C 
BRANCH   7  10
ATOM      8  O   UNL     1      49.523   5.229  19.501  0.00  0.00    +0.000 OA
ATOM      9  C   UNL     1      48.367   5.636  19.490  0.00  0.00    +0.000 C 
ATOM     10  N   UNL     1      47.435   5.174  18.583  0.00  0.00    +0.000 N 
ATOM     11  H   UNL     1      46.523   5.597  18.525  0.00  0.00    +0.000 HD
BRANCH   9  12
ATOM     12  C   UNL     1      47.874   6.647  20.425  0.00  0.00    +0.000 A 
ATOM     13  C   UNL     1      47.616   6.490  21.780  0.00  0.00    +0.000 A 
ATOM     14  N   UNL     1      47.171   7.684  22.285  0.00  0.00    +0.000 N 
ATOM     15  C   UNL     1      47.134   8.632  21.295  0.00  0.00    +0.000 A 
ATOM     16  C   UNL     1      46.758   9.969  21.343  0.00  0.00    +0.000 A 
ATOM     17  N   UNL     1      46.812  10.711  20.216  0.00  0.00    +0.000 NA
ATOM     18  C   UNL     1      47.232  10.130  19.071  0.00  0.00    +0.000 A 
ATOM     19  C   UNL     1      47.619   8.803  18.954  0.00  0.00    +0.000 A 
ATOM     20  C   UNL     1      47.569   8.020  20.119  0.00  0.00    +0.000 A 
ATOM     21  H   UNL     1      46.916   7.850  23.250  0.00  0.00    +0.000 HD
ENDBRANCH   9  12
ENDBRANCH   7  10
ENDBRANCH   1   7
BRANCH   4  22
ATOM     22  C   UNL     1      47.287   6.811  12.413  0.00  0.00    +0.000 C 
BRANCH  22  23
ATOM     23  N   UNL     1      46.035   7.612  12.475  0.00  0.00    +0.000 NA
BRANCH  23  24
ATOM     24  C   UNL     1      46.334   9.060  12.329  0.00  0.00    +0.000 C 
BRANCH  24  25
ATOM     25  C   UNL     1      47.828   9.418  12.214  0.00  0.00    +0.000 C 
BRANCH  25  26
ATOM     26  O   UNL     1      48.030  10.401  11.200  0.00  0.00    +0.000 OA
ATOM     27  H   UNL     1      48.269  11.231  11.649  0.00  0.00    +0.000 HD
ENDBRANCH  25  26
ENDBRANCH  24  25
ENDBRANCH  23  24
BRANCH  23  28
ATOM     28  C   UNL     1      45.110   7.180  11.407  0.00  0.00    +0.000 C 
BRANCH  28  29
ATOM     29  C   UNL     1      44.512   5.800  11.581  0.00  0.00    +0.000 A 
ATOM     30  C   UNL     1      44.834   4.759  10.698  0.00  0.00    +0.000 A 
ATOM     31  C   UNL     1      44.384   3.460  10.944  0.00  0.00    +0.000 A 
ATOM     32  C   UNL     1      43.605   3.192  12.069  0.00  0.00    +0.000 A 
ATOM     33  C   UNL     1      43.256   4.224  12.938  0.00  0.00    +0.000 A 
ATOM     34  C   UNL     1      43.706   5.522  12.695  0.00  0.00    +0.000 A 
ENDBRANCH  28  29
ENDBRANCH  23  28
ENDBRANCH  22  23
ENDBRANCH   4  22
TORSDOF 10
ENDMDL
MODEL 9
REMARK VINA RESULT:    -6.192      3.409      9.430
REMARK INTER + INTRA:         -10.571
REMARK INTER:                  -9.030
REMARK INTRA:                  -1.540
REMARK UNBOUND:                -0.940
REMARK  Name = 
REMARK  10 active torsions:
REMARK  status: ('A' for Active; 'I' for Inactive)
REMARK    1  A    between atoms: C_2  and  C_23
REMARK    2  A    between atoms: N_3  and  C_4
REMARK    3  A    between atoms: C_4  and  C_5
REMARK    4  A    between atoms: C_8  and  C_9
REMARK    5  A    between atoms: C_9  and  N_10
REMARK    6  A    between atoms: N_10  and  C_11
REMARK    7  A    between atoms: N_10  and  C_14
REMARK    8  A    between atoms: C_11  and  C_12
REMARK    9  A    between atoms: C_12  and  O_13
REMARK   10  A    between atoms: C_14  and  C_15
REMARK                            x       y       z     vdW  Elec       q    Type
REMARK                         _______ _______ _______ _____ _____    ______ ____
ROOT
ATOM      1  C   UNL     1      46.998   8.089  12.365  0.00  0.00    +0.000 A 
ATOM      2  C   UNL     1      47.351   9.371  12.808  0.00  0.00    +0.000 A 
ATOM      3  C   UNL     1      48.682   9.790  12.768  0.00  0.00    +0.000 A 
ATOM      4  C   UNL     1      49.682   8.931  12.292  0.00  0.00    +0.000 A 
ATOM      5  C   UNL     1      49.313   7.693  11.749  0.00  0.00    +0.000 A 
ATOM      6  C   UNL     1      47.979   7.277  11.782  0.00  0.00    +0.000 A 
ENDROOT
BRANCH   1   7
ATOM      7  C   UNL     1      45.594   7.580  12.549  0.00  0.00    +0.000 C 
BRANCH   7  10
ATOM      8  O   UNL     1      43.346   6.027  12.927  0.00  0.00    +0.000 OA
ATOM      9  C   UNL     1      44.248   5.570  12.234  0.00  0.00    +0.000 C 
ATOM     10  N   UNL     1      45.418   6.264  12.002  0.00  0.00    +0.000 N 
ATOM     11  H   UNL     1      46.099   5.916  11.347  0.00  0.00    +0.000 HD
BRANCH   9  12
ATOM     12  C   UNL     1      44.165   4.260  11.588  0.00  0.00    +0.000 A 
ATOM     13  C   UNL     1      43.563   3.112  12.082  0.00  0.00    +0.000 A 
ATOM     14  N   UNL     1      43.708   2.107  11.161  0.00  0.00    +0.000 N 
ATOM     15  C   UNL     1      44.389   2.566  10.064  0.00  0.00    +0.000 A 
ATOM     16  C   UNL     1      44.758   1.911   8.895  0.00  0.00    +0.000 A 
ATOM     17  N   UNL     1      45.433   2.591   7.942  0.00  0.00    +0.000 NA
ATOM     18  C   UNL     1      45.729   3.892   8.154  0.00  0.00    +0.000 A 
ATOM     19  C   UNL     1      45.392   4.603   9.296  0.00  0.00    +0.000 A 
ATOM     20  C   UNL     1      44.689   3.909  10.295  0.00  0.00    +0.000 A 
ATOM     21  H   UNL     1      43.357   1.164  11.267  0.00  0.00    +0.000 HD
ENDBRANCH   9  12
ENDBRANCH   7  10
ENDBRANCH   1   7
BRANCH   4  22
ATOM     22  C   UNL     1      51.144   9.310  12.430  0.00  0.00    +0.000 C 
BRANCH  22  23
ATOM     23  N   UNL     1      51.902   8.404  13.335  0.00  0.00    +0.000 NA
BRANCH  23  24
ATOM     24  C   UNL     1      53.365   8.584  13.148  0.00  0.00    +0.000 C 
BRANCH  24  25
ATOM     25  C   UNL     1      54.214   8.471  14.429  0.00  0.00    +0.000 C 
BRANCH  25  26
ATOM     26  O   UNL     1      54.801   7.174  14.527  0.00  0.00    +0.000 OA
ATOM     27  H   UNL     1      55.494   7.121  13.846  0.00  0.00    +0.000 HD
ENDBRANCH  25  26
ENDBRANCH  24  25
ENDBRANCH  23  24
BRANCH  23  28
ATOM     28  C   UNL     1      51.537   8.679  14.740  0.00  0.00    +0.000 C 
BRANCH  28  29
ATOM     29  C   UNL     1      50.904   7.525  15.486  0.00  0.00    +0.000 A 
ATOM     30  C   UNL     1      51.683   6.658  16.267  0.00  0.00    +0.000 A 
ATOM     31  C   UNL     1      51.076   5.680  17.058  0.00  0.00    +0.000 A 
ATOM     32  C   UNL     1      49.687   5.555  17.069  0.00  0.00    +0.000 A 
ATOM     33  C   UNL     1      48.905   6.393  16.275  0.00  0.00    +0.000 A 
ATOM     34  C   UNL     1      49.510   7.372  15.487  0.00  0.00    +0.000 A 
ENDBRANCH  28  29
ENDBRANCH  23  28
ENDBRANCH  22  23
ENDBRANCH   4  22
TORSDOF 10
ENDMDL
