MODEL 1
REMARK VINA RESULT:    -7.299      0.000      0.000
REMARK INTER + INTRA:         -11.510
REMARK INTER:                 -10.286
REMARK INTRA:                  -1.223
REMARK UNBOUND:                -1.223
REMARK  Name = 
REMARK  8 active torsions:
REMARK  status: ('A' for Active; 'I' for Inactive)
REMARK    1  A    between atoms: C_1  and  O_2
REMARK    2  A    between atoms: O_2  and  C_3
REMARK    3  A    between atoms: C_8  and  C_9
REMARK    4  A    between atoms: N_11  and  C_12
REMARK    5  A    between atoms: C_12  and  C_13
REMARK    6  A    between atoms: C_16  and  C_17
REMARK    7  A    between atoms: C_17  and  N_18
REMARK    8  A    between atoms: C_19  and  C_21
REMARK                            x       y       z     vdW  Elec       q    Type
REMARK                         _______ _______ _______ _____ _____    ______ ____
ROOT
ATOM      1  C   UNL     1      50.464   7.405  15.344  0.00  0.00    +0.000 A 
ATOM      2  C   UNL     1      49.160   6.894  15.428  0.00  0.00    +0.000 A 
ATOM      3  C   UNL     1      48.275   7.012  14.352  0.00  0.00    +0.000 A 
ATOM      4  C   UNL     1      48.681   7.627  13.160  0.00  0.00    +0.000 A 
ATOM      5  C   UNL     1      49.978   8.150  13.081  0.00  0.00    +0.000 A 
ATOM      6  C   UNL     1      50.863   8.031  14.157  0.00  0.00    +0.000 A 
ENDROOT
BRANCH   1   7
ATOM      7  C   UNL     1      51.428   7.254  16.491  0.00  0.00    +0.000 C 
BRANCH   7  10
ATOM      8  C   UNL     1      51.292   5.091  17.661  0.00  0.00    +0.000 C 
ATOM      9  O   UNL     1      50.492   5.536  18.481  0.00  0.00    +0.000 OA
ATOM     10  N   UNL     1      51.823   5.879  16.667  0.00  0.00    +0.000 N 
ATOM     11  H   UNL     1      52.481   5.464  16.018  0.00  0.00    +0.000 HD
BRANCH   8  17
ATOM     12  C   UNL     1      50.889   2.569  17.256  0.00  0.00    +0.000 A 
ATOM     13  C   UNL     1      51.349   1.254  17.430  0.00  0.00    +0.000 A 
ATOM     14  C   UNL     1      52.599   0.999  18.001  0.00  0.00    +0.000 A 
ATOM     15  C   UNL     1      53.410   2.054  18.400  0.00  0.00    +0.000 A 
ATOM     16  C   UNL     1      52.958   3.365  18.253  0.00  0.00    +0.000 A 
ATOM     17  C   UNL     1      51.693   3.642  17.699  0.00  0.00    +0.000 A 
BRANCH  12  19
ATOM     18  C   UNL     1      48.510   2.760  17.474  0.00  0.00    +0.000 C 
ATOM     19  O   UNL     1      49.682   2.869  16.673  0.00  0.00    +0.000 OA
ENDBRANCH  12  19
ENDBRANCH   8  17
ENDBRANCH   7  10
ENDBRANCH   1   7
BRANCH   4  20
ATOM     20  C   UNL     1      47.739   7.752  11.990  0.00  0.00    +0.000 C 
BRANCH  20  21
ATOM     21  N   UNL     1      47.016   6.526  11.760  0.00  0.00    +0.000 N 
ATOM     22  C   UNL     1      45.644   6.493  11.805  0.00  0.00    +0.000 C 
ATOM     23  O   UNL     1      44.974   7.504  11.994  0.00  0.00    +0.000 OA
ATOM     24  H   UNL     1      47.540   5.660  11.836  0.00  0.00    +0.000 HD
BRANCH  22  25
ATOM     25  C   UNL     1      45.012   5.192  11.551  0.00  0.00    +0.000 A 
ATOM     26  C   UNL     1      44.311   4.557  12.569  0.00  0.00    +0.000 A 
ATOM     27  S   UNL     1      43.592   3.086  12.092  0.00  0.00    +0.000 S 
ATOM     28  C   UNL     1      44.238   3.217  10.523  0.00  0.00    +0.000 A 
ATOM     29  N   UNL     1      44.018   2.248   9.594  0.00  0.00    +0.000 NA
ATOM     30  C   UNL     1      44.594   2.458   8.458  0.00  0.00    +0.000 A 
ATOM     31  N   UNL     1      45.367   3.553   8.165  0.00  0.00    +0.000 N 
ATOM     32  C   UNL     1      45.590   4.570   9.062  0.00  0.00    +0.000 A 
ATOM     33  O   UNL     1      46.252   5.556   8.753  0.00  0.00    +0.000 OA
ATOM     34  C   UNL     1      44.975   4.376  10.360  0.00  0.00    +0.000 A 
ATOM     35  H   UNL     1      45.786   3.660   7.253  0.00  0.00    +0.000 HD
ENDBRANCH  22  25
ENDBRANCH  20  21
ENDBRANCH   4  20
TORSDOF 7
ENDMDL
MODEL 2
REMARK VINA RESULT:    -7.143      3.284      9.011
REMARK INTER + INTRA:         -11.290
REMARK INTER:                 -10.411
REMARK INTRA:                  -0.879
REMARK UNBOUND:                -1.223
REMARK  Name = 
REMARK  8 active torsions:
REMARK  status: ('A' for Active; 'I' for Inactive)
REMARK    1  A    between atoms: C_1  and  O_2
REMARK    2  A    between atoms: O_2  and  C_3
REMARK    3  A    between atoms: C_8  and  C_9
REMARK    4  A    between atoms: N_11  and  C_12
REMARK    5  A    between atoms: C_12  and  C_13
REMARK    6  A    between atoms: C_16  and  C_17
REMARK    7  A    between atoms: C_17  and  N_18
REMARK    8  A    between atoms: C_19  and  C_21
REMARK                            x       y       z     vdW  Elec       q    Type
REMARK                         _______ _______ _______ _____ _____    ______ ____
ROOT
ATOM      1  C   UNL     1      45.033   5.684  11.023  0.00  0.00    +0.000 A 
ATOM      2  C   UNL     1      44.401   6.195  12.166  0.00  0.00    +0.000 A 
ATOM      3  C   UNL     1      45.071   7.076  13.020  0.00  0.00    +0.000 A 
ATOM      4  C   UNL     1      46.382   7.481  12.739  0.00  0.00    +0.000 A 
ATOM      5  C   UNL     1      47.019   6.959  11.604  0.00  0.00    +0.000 A 
ATOM      6  C   UNL     1      46.347   6.079  10.751  0.00  0.00    +0.000 A 
ENDROOT
BRANCH   1   7
ATOM      7  C   UNL     1      44.303   4.757  10.086  0.00  0.00    +0.000 C 
BRANCH   7  10
ATOM      8  C   UNL     1      45.343   3.005   8.702  0.00  0.00    +0.000 C 
ATOM      9  O   UNL     1      44.843   2.112   9.381  0.00  0.00    +0.000 OA
ATOM     10  N   UNL     1      45.151   4.334   8.999  0.00  0.00    +0.000 N 
ATOM     11  H   UNL     1      45.588   5.033   8.409  0.00  0.00    +0.000 HD
BRANCH   8  17
ATOM     12  C   UNL     1      46.789   1.426   7.253  0.00  0.00    +0.000 A 
ATOM     13  C   UNL     1      47.602   1.273   6.118  0.00  0.00    +0.000 A 
ATOM     14  C   UNL     1      47.771   2.320   5.208  0.00  0.00    +0.000 A 
ATOM     15  C   UNL     1      47.124   3.532   5.414  0.00  0.00    +0.000 A 
ATOM     16  C   UNL     1      46.330   3.706   6.548  0.00  0.00    +0.000 A 
ATOM     17  C   UNL     1      46.164   2.669   7.487  0.00  0.00    +0.000 A 
BRANCH  12  19
ATOM     18  C   UNL     1      46.661  -0.927   7.693  0.00  0.00    +0.000 C 
ATOM     19  O   UNL     1      46.570   0.416   8.157  0.00  0.00    +0.000 OA
ENDBRANCH  12  19
ENDBRANCH   8  17
ENDBRANCH   7  10
ENDBRANCH   1   7
BRANCH   4  20
ATOM     20  C   UNL     1      47.112   8.437  13.647  0.00  0.00    +0.000 C 
BRANCH  20  21
ATOM     21  N   UNL     1      47.641   7.764  14.807  0.00  0.00    +0.000 N 
ATOM     22  C   UNL     1      48.908   7.235  14.805  0.00  0.00    +0.000 C 
ATOM     23  O   UNL     1      49.659   7.350  13.841  0.00  0.00    +0.000 OA
ATOM     24  H   UNL     1      46.973   7.460  15.508  0.00  0.00    +0.000 HD
BRANCH  22  25
ATOM     25  C   UNL     1      49.345   6.576  16.042  0.00  0.00    +0.000 A 
ATOM     26  C   UNL     1      50.414   7.099  16.759  0.00  0.00    +0.000 A 
ATOM     27  S   UNL     1      50.755   6.249  18.198  0.00  0.00    +0.000 S 
ATOM     28  C   UNL     1      49.522   5.118  17.886  0.00  0.00    +0.000 A 
ATOM     29  N   UNL     1      49.292   4.082  18.737  0.00  0.00    +0.000 NA
ATOM     30  C   UNL     1      48.352   3.282  18.361  0.00  0.00    +0.000 A 
ATOM     31  N   UNL     1      47.614   3.428  17.214  0.00  0.00    +0.000 N 
ATOM     32  C   UNL     1      47.791   4.475  16.343  0.00  0.00    +0.000 A 
ATOM     33  O   UNL     1      47.086   4.599  15.345  0.00  0.00    +0.000 OA
ATOM     34  C   UNL     1      48.847   5.397  16.711  0.00  0.00    +0.000 A 
ATOM     35  H   UNL     1      46.887   2.768  16.979  0.00  0.00    +0.000 HD
ENDBRANCH  22  25
ENDBRANCH  20  21
ENDBRANCH   4  20
TORSDOF 7
ENDMDL
MODEL 3
REMARK VINA RESULT:    -6.833      2.822      8.832
REMARK INTER + INTRA:         -10.852
REMARK INTER:                  -9.746
REMARK INTRA:                  -1.106
REMARK UNBOUND:                -1.223
REMARK  Name = 
REMARK  8 active torsions:
REMARK  status: ('A' for Active; 'I' for Inactive)
REMARK    1  A    between atoms: C_1  and  O_2
REMARK    2  A    between atoms: O_2  and  C_3
REMARK    3  A    between atoms: C_8  and  C_9
REMARK    4  A    between atoms: N_11  and  C_12
REMARK    5  A    between atoms: C_12  and  C_13
REMARK    6  A    between atoms: C_16  and  C_17
REMARK    7  A    between atoms: C_17  and  N_18
REMARK    8  A    between atoms: C_19  and  C_21
REMARK                            x       y       z     vdW  Elec       q    Type
REMARK                         _______ _______ _______ _____ _____    ______ ____
ROOT
ATOM      1  C   UNL     1      48.000   7.928  13.269  0.00  0.00    +0.000 A 
ATOM      2  C   UNL     1      47.638   8.943  14.167  0.00  0.00    +0.000 A 
ATOM      3  C   UNL     1      48.106   8.932  15.485  0.00  0.00    +0.000 A 
ATOM      4  C   UNL     1      48.963   7.916  15.928  0.00  0.00    +0.000 A 
ATOM      5  C   UNL     1      49.314   6.894  15.035  0.00  0.00    +0.000 A 
ATOM      6  C   UNL     1      48.846   6.907  13.718  0.00  0.00    +0.000 A 
ENDROOT
BRANCH   1   7
ATOM      7  C   UNL     1      47.520   7.952  11.842  0.00  0.00    +0.000 C 
BRANCH   7  10
ATOM      8  C   UNL     1      45.637   6.543  11.111  0.00  0.00    +0.000 C 
ATOM      9  O   UNL     1      44.852   7.487  11.170  0.00  0.00    +0.000 OA
ATOM     10  N   UNL     1      46.961   6.681  11.453  0.00  0.00    +0.000 N 
ATOM     11  H   UNL     1      47.567   5.871  11.390  0.00  0.00    +0.000 HD
BRANCH   8  17
ATOM     12  C   UNL     1      44.544   4.221  11.423  0.00  0.00    +0.000 A 
ATOM     13  C   UNL     1      44.243   2.970  10.862  0.00  0.00    +0.000 A 
ATOM     14  C   UNL     1      44.526   2.696   9.521  0.00  0.00    +0.000 A 
ATOM     15  C   UNL     1      45.109   3.669   8.720  0.00  0.00    +0.000 A 
ATOM     16  C   UNL     1      45.433   4.910   9.268  0.00  0.00    +0.000 A 
ATOM     17  C   UNL     1      45.174   5.198  10.623  0.00  0.00    +0.000 A 
BRANCH  12  19
ATOM     18  C   UNL     1      42.943   5.005  13.024  0.00  0.00    +0.000 C 
ATOM     19  O   UNL     1      44.257   4.545  12.726  0.00  0.00    +0.000 OA
ENDBRANCH  12  19
ENDBRANCH   8  17
ENDBRANCH   7  10
ENDBRANCH   1   7
BRANCH   4  20
ATOM     20  C   UNL     1      49.482   7.899  17.343  0.00  0.00    +0.000 C 
BRANCH  20  21
ATOM     21  N   UNL     1      50.479   6.874  17.528  0.00  0.00    +0.000 N 
ATOM     22  C   UNL     1      50.267   5.825  18.387  0.00  0.00    +0.000 C 
ATOM     23  O   UNL     1      49.210   5.685  18.996  0.00  0.00    +0.000 OA
ATOM     24  H   UNL     1      51.424   7.090  17.225  0.00  0.00    +0.000 HD
BRANCH  22  25
ATOM     25  C   UNL     1      51.349   4.837  18.494  0.00  0.00    +0.000 A 
ATOM     26  C   UNL     1      52.535   5.183  19.128  0.00  0.00    +0.000 A 
ATOM     27  S   UNL     1      53.662   3.905  19.217  0.00  0.00    +0.000 S 
ATOM     28  C   UNL     1      52.626   2.861  18.361  0.00  0.00    +0.000 A 
ATOM     29  N   UNL     1      53.005   1.588  18.067  0.00  0.00    +0.000 NA
ATOM     30  C   UNL     1      52.138   0.918  17.384  0.00  0.00    +0.000 A 
ATOM     31  N   UNL     1      50.922   1.404  16.974  0.00  0.00    +0.000 N 
ATOM     32  C   UNL     1      50.486   2.671  17.276  0.00  0.00    +0.000 A 
ATOM     33  O   UNL     1      49.375   3.061  16.929  0.00  0.00    +0.000 OA
ATOM     34  C   UNL     1      51.430   3.472  18.030  0.00  0.00    +0.000 A 
ATOM     35  H   UNL     1      50.286   0.825  16.446  0.00  0.00    +0.000 HD
ENDBRANCH  22  25
ENDBRANCH  20  21
ENDBRANCH   4  20
TORSDOF 7
ENDMDL
MODEL 4
REMARK VINA RESULT:    -6.796      3.461      9.692
REMARK INTER + INTRA:         -10.801
REMARK INTER:                  -9.538
REMARK INTRA:                  -1.263
REMARK UNBOUND:                -1.223
REMARK  Name = 
REMARK  8 active torsions:
REMARK  status: ('A' for Active; 'I' for Inactive)
REMARK    1  A    between atoms: C_1  and  O_2
REMARK    2  A    between atoms: O_2  and  C_3
REMARK    3  A    between atoms: C_8  and  C_9
REMARK    4  A    between atoms: N_11  and  C_12
REMARK    5  A    between atoms: C_12  and  C_13
REMARK    6  A    between atoms: C_16  and  C_17
REMARK    7  A    between atoms: C_17  and  N_18
REMARK    8  A    between atoms: C_19  and  C_21
REMARK                            x       y       z     vdW  Elec       q    Type
REMARK                         _______ _______ _______ _____ _____    ______ ____
ROOT
ATOM      1  C   UNL     1      45.222   3.791  12.060  0.00  0.00    +0.000 A 
ATOM      2  C   UNL     1      44.884   5.151  12.028  0.00  0.00    +0.000 A 
ATOM      3  C   UNL     1      45.577   6.079  12.811  0.00  0.00    +0.000 A 
ATOM      4  C   UNL     1      46.638   5.669  13.629  0.00  0.00    +0.000 A 
ATOM      5  C   UNL     1      46.967   4.307  13.672  0.00  0.00    +0.000 A 
ATOM      6  C   UNL     1      46.274   3.381  12.888  0.00  0.00    +0.000 A 
ENDROOT
BRANCH   1   7
ATOM      7  C   UNL     1      44.496   2.793  11.196  0.00  0.00    +0.000 C 
BRANCH   7  10
ATOM      8  C   UNL     1      45.076   3.218   8.840  0.00  0.00    +0.000 C 
ATOM      9  O   UNL     1      44.248   4.120   8.754  0.00  0.00    +0.000 OA
ATOM     10  N   UNL     1      45.241   2.495   9.998  0.00  0.00    +0.000 N 
ATOM     11  H   UNL     1      45.937   1.758  10.016  0.00  0.00    +0.000 HD
BRANCH   8  17
ATOM     12  C   UNL     1      46.554   1.631   7.431  0.00  0.00    +0.000 A 
ATOM     13  C   UNL     1      47.445   1.487   6.356  0.00  0.00    +0.000 A 
ATOM     14  C   UNL     1      47.735   2.563   5.513  0.00  0.00    +0.000 A 
ATOM     15  C   UNL     1      47.133   3.797   5.726  0.00  0.00    +0.000 A 
ATOM     16  C   UNL     1      46.261   3.961   6.803  0.00  0.00    +0.000 A 
ATOM     17  C   UNL     1      45.973   2.894   7.677  0.00  0.00    +0.000 A 
BRANCH  12  19
ATOM     18  C   UNL     1      46.589  -0.723   7.878  0.00  0.00    +0.000 C 
ATOM     19  O   UNL     1      46.216   0.595   8.267  0.00  0.00    +0.000 OA
ENDBRANCH  12  19
ENDBRANCH   8  17
ENDBRANCH   7  10
ENDBRANCH   1   7
BRANCH   4  20
ATOM     20  C   UNL     1      47.399   6.661  14.471  0.00  0.00    +0.000 C 
BRANCH  20  21
ATOM     21  N   UNL     1      48.025   6.024  15.603  0.00  0.00    +0.000 N 
ATOM     22  C   UNL     1      49.113   6.587  16.222  0.00  0.00    +0.000 C 
ATOM     23  O   UNL     1      49.570   7.672  15.875  0.00  0.00    +0.000 OA
ATOM     24  H   UNL     1      47.817   5.041  15.751  0.00  0.00    +0.000 HD
BRANCH  22  25
ATOM     25  C   UNL     1      49.667   5.854  17.367  0.00  0.00    +0.000 A 
ATOM     26  C   UNL     1      50.942   5.310  17.284  0.00  0.00    +0.000 A 
ATOM     27  S   UNL     1      51.455   4.542  18.719  0.00  0.00    +0.000 S 
ATOM     28  C   UNL     1      49.969   4.861  19.484  0.00  0.00    +0.000 A 
ATOM     29  N   UNL     1      49.732   4.437  20.754  0.00  0.00    +0.000 NA
ATOM     30  C   UNL     1      48.553   4.716  21.199  0.00  0.00    +0.000 A 
ATOM     31  N   UNL     1      47.589   5.386  20.489  0.00  0.00    +0.000 N 
ATOM     32  C   UNL     1      47.795   5.859  19.216  0.00  0.00    +0.000 A 
ATOM     33  O   UNL     1      46.925   6.492  18.623  0.00  0.00    +0.000 OA
ATOM     34  C   UNL     1      49.101   5.560  18.663  0.00  0.00    +0.000 A 
ATOM     35  H   UNL     1      46.686   5.577  20.897  0.00  0.00    +0.000 HD
ENDBRANCH  22  25
ENDBRANCH  20  21
ENDBRANCH   4  20
TORSDOF 7
ENDMDL
MODEL 5
REMARK VINA RESULT:    -6.791      5.058     10.862
REMARK INTER + INTRA:         -10.794
REMARK INTER:                  -9.542
REMARK INTRA:                  -1.252
REMARK UNBOUND:                -1.223
REMARK  Name = 
REMARK  8 active torsions:
REMARK  status: ('A' for Active; 'I' for Inactive)
REMARK    1  A    between atoms: C_1  and  O_2
REMARK    2  A    between atoms: O_2  and  C_3
REMARK    3  A    between atoms: C_8  and  C_9
REMARK    4  A    between atoms: N_11  and  C_12
REMARK    5  A    between atoms: C_12  and  C_13
REMARK    6  A    between atoms: C_16  and  C_17
REMARK    7  A    between atoms: C_17  and  N_18
REMARK    8  A    between atoms: C_19  and  C_21
REMARK                            x       y       z     vdW  Elec       q    Type
REMARK                         _______ _______ _______ _____ _____    ______ ____
ROOT
ATOM      1  C   UNL     1      44.361   8.627  11.455  0.00  0.00    +0.000 A 
ATOM      2  C   UNL     1      43.829   7.383  11.086  0.00  0.00    +0.000 A 
ATOM      3  C   UNL     1      44.345   6.198  11.620  0.00  0.00    +0.000 A 
ATOM      4  C   UNL     1      45.393   6.232  12.549  0.00  0.00    +0.000 A 
ATOM      5  C   UNL     1      45.935   7.474  12.907  0.00  0.00    +0.000 A 
ATOM      6  C   UNL     1      45.417   8.658  12.374  0.00  0.00    +0.000 A 
ENDROOT
BRANCH   1   7
ATOM      7  C   UNL     1      43.788   9.906  10.904  0.00  0.00    +0.000 C 
BRANCH   7  10
ATOM      8  C   UNL     1      41.597  11.021  10.756  0.00  0.00    +0.000 C 
ATOM      9  O   UNL     1      41.973  11.733   9.829  0.00  0.00    +0.000 OA
ATOM     10  N   UNL     1      42.436  10.116  11.361  0.00  0.00    +0.000 N 
ATOM     11  H   UNL     1      42.077   9.554  12.124  0.00  0.00    +0.000 HD
BRANCH   8  17
ATOM     12  C   UNL     1      39.783  11.496  12.536  0.00  0.00    +0.000 A 
ATOM     13  C   UNL     1      38.425  11.432  12.889  0.00  0.00    +0.000 A 
ATOM     14  C   UNL     1      37.462  11.010  11.969  0.00  0.00    +0.000 A 
ATOM     15  C   UNL     1      37.839  10.652  10.681  0.00  0.00    +0.000 A 
ATOM     16  C   UNL     1      39.187  10.690  10.322  0.00  0.00    +0.000 A 
ATOM     17  C   UNL     1      40.175  11.093  11.242  0.00  0.00    +0.000 A 
BRANCH  12  19
ATOM     18  C   UNL     1      40.350  12.547  14.615  0.00  0.00    +0.000 C 
ATOM     19  O   UNL     1      40.760  11.933  13.397  0.00  0.00    +0.000 OA
ENDBRANCH  12  19
ENDBRANCH   8  17
ENDBRANCH   7  10
ENDBRANCH   1   7
BRANCH   4  20
ATOM     20  C   UNL     1      45.952   4.962  13.137  0.00  0.00    +0.000 C 
BRANCH  20  21
ATOM     21  N   UNL     1      46.585   5.203  14.410  0.00  0.00    +0.000 N 
ATOM     22  C   UNL     1      47.267   4.207  15.063  0.00  0.00    +0.000 C 
ATOM     23  O   UNL     1      47.409   3.089  14.576  0.00  0.00    +0.000 OA
ATOM     24  H   UNL     1      46.287   6.026  14.924  0.00  0.00    +0.000 HD
BRANCH  22  25
ATOM     25  C   UNL     1      47.877   4.565  16.350  0.00  0.00    +0.000 A 
ATOM     26  C   UNL     1      47.524   3.865  17.496  0.00  0.00    +0.000 A 
ATOM     27  S   UNL     1      48.364   4.369  18.893  0.00  0.00    +0.000 S 
ATOM     28  C   UNL     1      49.189   5.578  18.025  0.00  0.00    +0.000 A 
ATOM     29  N   UNL     1      50.067   6.410  18.649  0.00  0.00    +0.000 NA
ATOM     30  C   UNL     1      50.594   7.302  17.880  0.00  0.00    +0.000 A 
ATOM     31  N   UNL     1      50.329   7.434  16.540  0.00  0.00    +0.000 N 
ATOM     32  C   UNL     1      49.475   6.597  15.864  0.00  0.00    +0.000 A 
ATOM     33  O   UNL     1      49.290   6.717  14.655  0.00  0.00    +0.000 OA
ATOM     34  C   UNL     1      48.843   5.584  16.686  0.00  0.00    +0.000 A 
ATOM     35  H   UNL     1      50.780   8.151  15.992  0.00  0.00    +0.000 HD
ENDBRANCH  22  25
ENDBRANCH  20  21
ENDBRANCH   4  20
TORSDOF 7
ENDMDL
MODEL 6
REMARK VINA RESULT:    -6.640      1.460      2.066
REMARK INTER + INTRA:         -10.581
REMARK INTER:                  -9.457
REMARK INTRA:                  -1.124
REMARK UNBOUND:                -1.223
REMARK  Name = 
REMARK  8 active torsions:
REMARK  status: ('A' for Active; 'I' for Inactive)
REMARK    1  A    between atoms: C_1  and  O_2
REMARK    2  A    between atoms: O_2  and  C_3
REMARK    3  A    between atoms: C_8  and  C_9
REMARK    4  A    between atoms: N_11  and  C_12
REMARK    5  A    between atoms: C_12  and  C_13
REMARK    6  A    between atoms: C_16  and  C_17
REMARK    7  A    between atoms: C_17  and  N_18
REMARK    8  A    between atoms: C_19  and  C_21
REMARK                            x       y       z     vdW  Elec       q    Type
REMARK                         _______ _______ _______ _____ _____    ______ ____
ROOT
ATOM      1  C   UNL     1      49.931   7.973  15.902  0.00  0.00    +0.000 A 
ATOM      2  C   UNL     1      48.904   8.916  16.047  0.00  0.00    +0.000 A 
ATOM      3  C   UNL     1      48.011   9.166  15.001  0.00  0.00    +0.000 A 
ATOM      4  C   UNL     1      48.114   8.464  13.793  0.00  0.00    +0.000 A 
ATOM      5  C   UNL     1      49.149   7.531  13.643  0.00  0.00    +0.000 A 
ATOM      6  C   UNL     1      50.041   7.281  14.690  0.00  0.00    +0.000 A 
ENDROOT
BRANCH   1   7
ATOM      7  C   UNL     1      50.877   7.681  17.038  0.00  0.00    +0.000 C 
BRANCH   7  10
ATOM      8  C   UNL     1      50.601   5.354  17.799  0.00  0.00    +0.000 C 
ATOM      9  O   UNL     1      49.667   5.661  18.535  0.00  0.00    +0.000 OA
ATOM     10  N   UNL     1      51.271   6.293  17.051  0.00  0.00    +0.000 N 
ATOM     11  H   UNL     1      52.037   5.989  16.461  0.00  0.00    +0.000 HD
BRANCH   8  17
ATOM     12  C   UNL     1      50.221   2.883  17.142  0.00  0.00    +0.000 A 
ATOM     13  C   UNL     1      50.708   1.566  17.155  0.00  0.00    +0.000 A 
ATOM     14  C   UNL     1      51.983   1.276  17.648  0.00  0.00    +0.000 A 
ATOM     15  C   UNL     1      52.794   2.298  18.126  0.00  0.00    +0.000 A 
ATOM     16  C   UNL     1      52.316   3.608  18.138  0.00  0.00    +0.000 A 
ATOM     17  C   UNL     1      51.026   3.918  17.666  0.00  0.00    +0.000 A 
BRANCH  12  19
ATOM     18  C   UNL     1      47.836   2.799  17.367  0.00  0.00    +0.000 C 
ATOM     19  O   UNL     1      48.987   3.219  16.641  0.00  0.00    +0.000 OA
ENDBRANCH  12  19
ENDBRANCH   8  17
ENDBRANCH   7  10
ENDBRANCH   1   7
BRANCH   4  20
ATOM     20  C   UNL     1      47.152   8.718  12.661  0.00  0.00    +0.000 C 
BRANCH  20  21
ATOM     21  N   UNL     1      46.785   7.494  11.993  0.00  0.00    +0.000 N 
ATOM     22  C   UNL     1      45.515   7.302  11.511  0.00  0.00    +0.000 C 
ATOM     23  O   UNL     1      44.653   8.173  11.582  0.00  0.00    +0.000 OA
ATOM     24  H   UNL     1      47.395   6.694  12.131  0.00  0.00    +0.000 HD
BRANCH  22  25
ATOM     25  C   UNL     1      45.254   6.020  10.844  0.00  0.00    +0.000 A 
ATOM     26  C   UNL     1      45.776   5.783   9.579  0.00  0.00    +0.000 A 
ATOM     27  S   UNL     1      45.428   4.227   8.974  0.00  0.00    +0.000 S 
ATOM     28  C   UNL     1      44.519   3.833  10.358  0.00  0.00    +0.000 A 
ATOM     29  N   UNL     1      43.907   2.624  10.471  0.00  0.00    +0.000 NA
ATOM     30  C   UNL     1      43.224   2.472  11.555  0.00  0.00    +0.000 A 
ATOM     31  N   UNL     1      43.102   3.418  12.541  0.00  0.00    +0.000 N 
ATOM     32  C   UNL     1      43.728   4.639  12.483  0.00  0.00    +0.000 A 
ATOM     33  O   UNL     1      43.632   5.448  13.402  0.00  0.00    +0.000 OA
ATOM     34  C   UNL     1      44.499   4.868  11.277  0.00  0.00    +0.000 A 
ATOM     35  H   UNL     1      42.555   3.234  13.369  0.00  0.00    +0.000 HD
ENDBRANCH  22  25
ENDBRANCH  20  21
ENDBRANCH   4  20
TORSDOF 7
ENDMDL
MODEL 7
REMARK VINA RESULT:    -6.444      2.142      2.453
REMARK INTER + INTRA:         -10.304
REMARK INTER:                  -8.897
REMARK INTRA:                  -1.406
REMARK UNBOUND:                -1.223
REMARK  Name = 
REMARK  8 active torsions:
REMARK  status: ('A' for Active; 'I' for Inactive)
REMARK    1  A    between atoms: C_1  and  O_2
REMARK    2  A    between atoms: O_2  and  C_3
REMARK    3  A    between atoms: C_8  and  C_9
REMARK    4  A    between atoms: N_11  and  C_12
REMARK    5  A    between atoms: C_12  and  C_13
REMARK    6  A    between atoms: C_16  and  C_17
REMARK    7  A    between atoms: C_17  and  N_18
REMARK    8  A    between atoms: C_19  and  C_21
REMARK                            x       y       z     vdW  Elec       q    Type
REMARK                         _______ _______ _______ _____ _____    ______ ____
ROOT
ATOM      1  C   UNL     1      50.010   8.334  15.168  0.00  0.00    +0.000 A 
ATOM      2  C   UNL     1      50.535   7.967  13.921  0.00  0.00    +0.000 A 
ATOM      3  C   UNL     1      49.711   7.886  12.794  0.00  0.00    +0.000 A 
ATOM      4  C   UNL     1      48.347   8.190  12.886  0.00  0.00    +0.000 A 
ATOM      5  C   UNL     1      47.819   8.543  14.135  0.00  0.00    +0.000 A 
ATOM      6  C   UNL     1      48.644   8.625  15.261  0.00  0.00    +0.000 A 
ENDROOT
BRANCH   1   7
ATOM      7  C   UNL     1      50.901   8.450  16.377  0.00  0.00    +0.000 C 
BRANCH   7  10
ATOM      8  C   UNL     1      50.655   6.436  17.774  0.00  0.00    +0.000 C 
ATOM      9  O   UNL     1      51.380   5.779  17.030  0.00  0.00    +0.000 OA
ATOM     10  N   UNL     1      50.345   7.749  17.508  0.00  0.00    +0.000 N 
ATOM     11  H   UNL     1      49.740   8.245  18.152  0.00  0.00    +0.000 HD
BRANCH   8  17
ATOM     12  C   UNL     1      48.742   5.533  19.261  0.00  0.00    +0.000 A 
ATOM     13  C   UNL     1      48.349   5.045  20.518  0.00  0.00    +0.000 A 
ATOM     14  C   UNL     1      49.289   4.816  21.526  0.00  0.00    +0.000 A 
ATOM     15  C   UNL     1      50.636   5.063  21.291  0.00  0.00    +0.000 A 
ATOM     16  C   UNL     1      51.039   5.568  20.055  0.00  0.00    +0.000 A 
ATOM     17  C   UNL     1      50.104   5.825  19.033  0.00  0.00    +0.000 A 
BRANCH  12  19
ATOM     18  C   UNL     1      47.291   4.605  17.594  0.00  0.00    +0.000 C 
ATOM     19  O   UNL     1      47.858   5.745  18.231  0.00  0.00    +0.000 OA
ENDBRANCH  12  19
ENDBRANCH   8  17
ENDBRANCH   7  10
ENDBRANCH   1   7
BRANCH   4  20
ATOM     20  C   UNL     1      47.450   8.116  11.677  0.00  0.00    +0.000 C 
BRANCH  20  21
ATOM     21  N   UNL     1      46.793   6.836  11.584  0.00  0.00    +0.000 N 
ATOM     22  C   UNL     1      45.425   6.736  11.632  0.00  0.00    +0.000 C 
ATOM     23  O   UNL     1      44.702   7.726  11.707  0.00  0.00    +0.000 OA
ATOM     24  H   UNL     1      47.361   6.012  11.755  0.00  0.00    +0.000 HD
BRANCH  22  25
ATOM     25  C   UNL     1      44.862   5.384  11.523  0.00  0.00    +0.000 A 
ATOM     26  C   UNL     1      44.177   4.836  12.600  0.00  0.00    +0.000 A 
ATOM     27  S   UNL     1      43.541   3.284  12.289  0.00  0.00    +0.000 S 
ATOM     28  C   UNL     1      44.206   3.266  10.723  0.00  0.00    +0.000 A 
ATOM     29  N   UNL     1      44.050   2.187   9.910  0.00  0.00    +0.000 NA
ATOM     30  C   UNL     1      44.635   2.293   8.764  0.00  0.00    +0.000 A 
ATOM     31  N   UNL     1      45.357   3.385   8.355  0.00  0.00    +0.000 N 
ATOM     32  C   UNL     1      45.513   4.509   9.130  0.00  0.00    +0.000 A 
ATOM     33  O   UNL     1      46.132   5.486   8.717  0.00  0.00    +0.000 OA
ATOM     34  C   UNL     1      44.887   4.436  10.435  0.00  0.00    +0.000 A 
ATOM     35  H   UNL     1      45.787   3.408   7.441  0.00  0.00    +0.000 HD
ENDBRANCH  22  25
ENDBRANCH  20  21
ENDBRANCH   4  20
TORSDOF 7
ENDMDL
MODEL 8
REMARK VINA RESULT:    -6.246      2.172      2.760
REMARK INTER + INTRA:         -10.026
REMARK INTER:                  -8.445
REMARK INTRA:                  -1.581
REMARK UNBOUND:                -1.223
REMARK  Name = 
REMARK  8 active torsions:
REMARK  status: ('A' for Active; 'I' for Inactive)
REMARK    1  A    between atoms: C_1  and  O_2
REMARK    2  A    between atoms: O_2  and  C_3
REMARK    3  A    between atoms: C_8  and  C_9
REMARK    4  A    between atoms: N_11  and  C_12
REMARK    5  A    between atoms: C_12  and  C_13
REMARK    6  A    between atoms: C_16  and  C_17
REMARK    7  A    between atoms: C_17  and  N_18
REMARK    8  A    between atoms: C_19  and  C_21
REMARK                            x       y       z     vdW  Elec       q    Type
REMARK                         _______ _______ _______ _____ _____    ______ ____
ROOT
ATOM      1  C   UNL     1      51.467   7.814  16.525  0.00  0.00    +0.000 A 
ATOM      2  C   UNL     1      51.323   7.843  15.130  0.00  0.00    +0.000 A 
ATOM      3  C   UNL     1      50.181   8.393  14.541  0.00  0.00    +0.000 A 
ATOM      4  C   UNL     1      49.166   8.945  15.333  0.00  0.00    +0.000 A 
ATOM      5  C   UNL     1      49.303   8.904  16.727  0.00  0.00    +0.000 A 
ATOM      6  C   UNL     1      50.446   8.354  17.315  0.00  0.00    +0.000 A 
ENDROOT
BRANCH   1   7
ATOM      7  C   UNL     1      52.709   7.247  17.162  0.00  0.00    +0.000 C 
BRANCH   7  10
ATOM      8  C   UNL     1      52.190   5.031  18.103  0.00  0.00    +0.000 C 
ATOM      9  O   UNL     1      51.726   5.527  19.126  0.00  0.00    +0.000 OA
ATOM     10  N   UNL     1      52.721   5.807  17.100  0.00  0.00    +0.000 N 
ATOM     11  H   UNL     1      53.094   5.348  16.276  0.00  0.00    +0.000 HD
BRANCH   8  17
ATOM     12  C   UNL     1      51.051   2.816  17.411  0.00  0.00    +0.000 A 
ATOM     13  C   UNL     1      51.125   1.415  17.350  0.00  0.00    +0.000 A 
ATOM     14  C   UNL     1      52.288   0.739  17.732  0.00  0.00    +0.000 A 
ATOM     15  C   UNL     1      53.395   1.453  18.172  0.00  0.00    +0.000 A 
ATOM     16  C   UNL     1      53.329   2.844  18.258  0.00  0.00    +0.000 A 
ATOM     17  C   UNL     1      52.159   3.542  17.897  0.00  0.00    +0.000 A 
BRANCH  12  19
ATOM     18  C   UNL     1      48.842   3.595  17.921  0.00  0.00    +0.000 C 
ATOM     19  O   UNL     1      49.941   3.523  17.018  0.00  0.00    +0.000 OA
ENDBRANCH  12  19
ENDBRANCH   8  17
ENDBRANCH   7  10
ENDBRANCH   1   7
BRANCH   4  20
ATOM     20  C   UNL     1      47.935   9.550  14.709  0.00  0.00    +0.000 C 
BRANCH  20  21
ATOM     21  N   UNL     1      47.037   8.534  14.219  0.00  0.00    +0.000 N 
ATOM     22  C   UNL     1      46.857   8.336  12.873  0.00  0.00    +0.000 C 
ATOM     23  O   UNL     1      47.481   8.975  12.031  0.00  0.00    +0.000 OA
ATOM     24  H   UNL     1      46.355   8.166  14.875  0.00  0.00    +0.000 HD
BRANCH  22  25
ATOM     25  C   UNL     1      45.922   7.270  12.487  0.00  0.00    +0.000 A 
ATOM     26  C   UNL     1      44.772   7.589  11.777  0.00  0.00    +0.000 A 
ATOM     27  S   UNL     1      43.826   6.232  11.359  0.00  0.00    +0.000 S 
ATOM     28  C   UNL     1      44.893   5.175  12.160  0.00  0.00    +0.000 A 
ATOM     29  N   UNL     1      44.648   3.838  12.208  0.00  0.00    +0.000 NA
ATOM     30  C   UNL     1      45.518   3.160  12.877  0.00  0.00    +0.000 A 
ATOM     31  N   UNL     1      46.617   3.696  13.499  0.00  0.00    +0.000 N 
ATOM     32  C   UNL     1      46.920   5.035  13.450  0.00  0.00    +0.000 A 
ATOM     33  O   UNL     1      47.934   5.478  13.983  0.00  0.00    +0.000 OA
ATOM     34  C   UNL     1      45.965   5.847  12.722  0.00  0.00    +0.000 A 
ATOM     35  H   UNL     1      47.264   3.108  14.003  0.00  0.00    +0.000 HD
ENDBRANCH  22  25
ENDBRANCH  20  21
ENDBRANCH   4  20
TORSDOF 7
ENDMDL
MODEL 9
REMARK VINA RESULT:    -6.014      2.065      2.796
REMARK INTER + INTRA:          -9.699
REMARK INTER:                  -7.959
REMARK INTRA:                  -1.740
REMARK UNBOUND:                -1.223
REMARK  Name = 
REMARK  8 active torsions:
REMARK  status: ('A' for Active; 'I' for Inactive)
REMARK    1  A    between atoms: C_1  and  O_2
REMARK    2  A    between atoms: O_2  and  C_3
REMARK    3  A    between atoms: C_8  and  C_9
REMARK    4  A    between atoms: N_11  and  C_12
REMARK    5  A    between atoms: C_12  and  C_13
REMARK    6  A    between atoms: C_16  and  C_17
REMARK    7  A    between atoms: C_17  and  N_18
REMARK    8  A    between atoms: C_19  and  C_21
REMARK                            x       y       z     vdW  Elec       q    Type
REMARK                         _______ _______ _______ _____ _____    ______ ____
ROOT
ATOM      1  C   UNL     1      50.666   8.406  15.932  0.00  0.00    +0.000 A 
ATOM      2  C   UNL     1      49.613   9.328  16.030  0.00  0.00    +0.000 A 
ATOM      3  C   UNL     1      48.818   9.625  14.919  0.00  0.00    +0.000 A 
ATOM      4  C   UNL     1      49.046   8.992  13.690  0.00  0.00    +0.000 A 
ATOM      5  C   UNL     1      50.107   8.082  13.589  0.00  0.00    +0.000 A 
ATOM      6  C   UNL     1      50.901   7.785  14.701  0.00  0.00    +0.000 A 
ENDROOT
BRANCH   1   7
ATOM      7  C   UNL     1      51.506   8.063  17.135  0.00  0.00    +0.000 C 
BRANCH   7  10
ATOM      8  C   UNL     1      50.793   5.783  17.736  0.00  0.00    +0.000 C 
ATOM      9  O   UNL     1      49.725   6.190  18.187  0.00  0.00    +0.000 OA
ATOM     10  N   UNL     1      51.737   6.642  17.226  0.00  0.00    +0.000 N 
ATOM     11  H   UNL     1      52.604   6.256  16.868  0.00  0.00    +0.000 HD
BRANCH   8  17
ATOM     12  C   UNL     1      52.353   3.732  17.942  0.00  0.00    +0.000 A 
ATOM     13  C   UNL     1      52.514   2.346  17.783  0.00  0.00    +0.000 A 
ATOM     14  C   UNL     1      51.437   1.535  17.416  0.00  0.00    +0.000 A 
ATOM     15  C   UNL     1      50.182   2.094  17.211  0.00  0.00    +0.000 A 
ATOM     16  C   UNL     1      50.011   3.472  17.345  0.00  0.00    +0.000 A 
ATOM     17  C   UNL     1      51.089   4.309  17.694  0.00  0.00    +0.000 A 
BRANCH  12  19
ATOM     18  C   UNL     1      54.685   4.278  17.851  0.00  0.00    +0.000 C 
ATOM     19  O   UNL     1      53.375   4.564  18.329  0.00  0.00    +0.000 OA
ENDBRANCH  12  19
ENDBRANCH   8  17
ENDBRANCH   7  10
ENDBRANCH   1   7
BRANCH   4  20
ATOM     20  C   UNL     1      48.190   9.297  12.488  0.00  0.00    +0.000 C 
BRANCH  20  21
ATOM     21  N   UNL     1      47.343   8.182  12.145  0.00  0.00    +0.000 N 
ATOM     22  C   UNL     1      46.047   8.112  12.592  0.00  0.00    +0.000 C 
ATOM     23  O   UNL     1      45.539   9.008  13.259  0.00  0.00    +0.000 OA
ATOM     24  H   UNL     1      47.802   7.343  11.804  0.00  0.00    +0.000 HD
BRANCH  22  25
ATOM     25  C   UNL     1      45.275   6.933  12.178  0.00  0.00    +0.000 A 
ATOM     26  C   UNL     1      44.117   7.099  11.429  0.00  0.00    +0.000 A 
ATOM     27  S   UNL     1      43.373   5.630  10.984  0.00  0.00    +0.000 S 
ATOM     28  C   UNL     1      44.542   4.721  11.823  0.00  0.00    +0.000 A 
ATOM     29  N   UNL     1      44.473   3.364  11.866  0.00  0.00    +0.000 NA
ATOM     30  C   UNL     1      45.402   2.804  12.566  0.00  0.00    +0.000 A 
ATOM     31  N   UNL     1      46.399   3.480  13.222  0.00  0.00    +0.000 N 
ATOM     32  C   UNL     1      46.525   4.848  13.180  0.00  0.00    +0.000 A 
ATOM     33  O   UNL     1      47.454   5.419  13.745  0.00  0.00    +0.000 OA
ATOM     34  C   UNL     1      45.497   5.527  12.418  0.00  0.00    +0.000 A 
ATOM     35  H   UNL     1      47.101   2.982  13.750  0.00  0.00    +0.000 HD
ENDBRANCH  22  25
ENDBRANCH  20  21
ENDBRANCH   4  20
TORSDOF 7
ENDMDL
