MODEL 1
REMARK VINA RESULT:    -8.785      0.000      0.000
REMARK INTER + INTRA:         -12.027
REMARK INTER:                 -11.352
REMARK INTRA:                  -0.674
REMARK UNBOUND:                -0.674
REMARK  Name = 
REMARK  5 active torsions:
REMARK  status: ('A' for Active; 'I' for Inactive)
REMARK    1  A    between atoms: C_2  and  C_19
REMARK    2  A    between atoms: N_3  and  C_4
REMARK    3  A    between atoms: C_4  and  C_5
REMARK    4  A    between atoms: C_8  and  C_9
REMARK    5  A    between atoms: C_9  and  N_10
REMARK                            x       y       z     vdW  Elec       q    Type
REMARK                         _______ _______ _______ _____ _____    ______ ____
ROOT
ATOM      1  C   UNL     1      46.781   7.241  13.003  0.00  0.00    +0.000 C 
ENDROOT
BRANCH   1   2
ATOM      2  C   UNL     1      46.096   6.175  12.189  0.00  0.00    +0.000 A 
ATOM      3  C   UNL     1      45.912   6.353  10.813  0.00  0.00    +0.000 A 
ATOM      4  C   UNL     1      45.306   5.357  10.043  0.00  0.00    +0.000 A 
ATOM      5  C   UNL     1      44.848   4.174  10.637  0.00  0.00    +0.000 A 
ATOM      6  C   UNL     1      45.009   4.006  12.020  0.00  0.00    +0.000 A 
ATOM      7  C   UNL     1      45.618   5.002  12.790  0.00  0.00    +0.000 A 
BRANCH   5   8
ATOM      8  C   UNL     1      44.182   3.103   9.801  0.00  0.00    +0.000 C 
BRANCH   8   9
ATOM      9  N   UNL     1      45.122   2.022   9.529  0.00  0.00    +0.000 N 
ATOM     10  C   UNL     1      45.804   2.172   8.308  0.00  0.00    +0.000 A 
ATOM     11  C   UNL     1      46.737   1.202   7.943  0.00  0.00    +0.000 A 
ATOM     12  C   UNL     1      47.429   1.330   6.739  0.00  0.00    +0.000 A 
ATOM     13  C   UNL     1      47.177   2.425   5.926  0.00  0.00    +0.000 A 
ATOM     14  C   UNL     1      46.250   3.353   6.365  0.00  0.00    +0.000 A 
ATOM     15  N   UNL     1      45.573   3.248   7.529  0.00  0.00    +0.000 NA
ATOM     16  H   UNL     1      44.668   1.114   9.549  0.00  0.00    +0.000 HD
ENDBRANCH   8   9
ENDBRANCH   5   8
ENDBRANCH   1   2
BRANCH   1  19
ATOM     17  O   UNL     1      49.451   6.906  13.884  0.00  0.00    +0.000 OA
ATOM     18  C   UNL     1      48.529   6.650  14.650  0.00  0.00    +0.000 C 
ATOM     19  N   UNL     1      47.211   6.733  14.279  0.00  0.00    +0.000 N 
ATOM     20  H   UNL     1      46.493   6.678  14.991  0.00  0.00    +0.000 HD
BRANCH  18  21
ATOM     21  C   UNL     1      48.773   6.172  16.018  0.00  0.00    +0.000 A 
ATOM     22  C   UNL     1      49.462   6.970  16.920  0.00  0.00    +0.000 A 
ATOM     23  S   UNL     1      49.662   6.251  18.455  0.00  0.00    +0.000 S 
ATOM     24  C   UNL     1      48.800   4.862  17.981  0.00  0.00    +0.000 A 
ATOM     25  N   UNL     1      48.576   3.844  18.852  0.00  0.00    +0.000 NA
ATOM     26  C   UNL     1      47.877   2.871  18.370  0.00  0.00    +0.000 A 
ATOM     27  N   UNL     1      47.391   2.820  17.090  0.00  0.00    +0.000 N 
ATOM     28  C   UNL     1      47.663   3.782  16.155  0.00  0.00    +0.000 A 
ATOM     29  O   UNL     1      47.346   3.625  14.978  0.00  0.00    +0.000 OA
ATOM     30  C   UNL     1      48.395   4.932  16.659  0.00  0.00    +0.000 A 
ATOM     31  H   UNL     1      46.885   2.010  16.760  0.00  0.00    +0.000 HD
ENDBRANCH  18  21
ENDBRANCH   1  19
TORSDOF 5
ENDMDL
MODEL 2
REMARK VINA RESULT:    -8.290      1.842      2.394
REMARK INTER + INTRA:         -11.388
REMARK INTER:                 -10.705
REMARK INTRA:                  -0.683
REMARK UNBOUND:                -0.674
REMARK  Name = 
REMARK  5 active torsions:
REMARK  status: ('A' for Active; 'I' for Inactive)
REMARK    1  A    between atoms: C_2  and  C_19
REMARK    2  A    between atoms: N_3  and  C_4
REMARK    3  A    between atoms: C_4  and  C_5
REMARK    4  A    between atoms: C_8  and  C_9
REMARK    5  A    between atoms: C_9  and  N_10
REMARK                            x       y       z     vdW  Elec       q    Type
REMARK                         _______ _______ _______ _____ _____    ______ ____
ROOT
ATOM      1  C   UNL     1      47.698   6.685  13.680  0.00  0.00    +0.000 C 
ENDROOT
BRANCH   1   2
ATOM      2  C   UNL     1      46.785   5.886  12.788  0.00  0.00    +0.000 A 
ATOM      3  C   UNL     1      46.377   6.406  11.554  0.00  0.00    +0.000 A 
ATOM      4  C   UNL     1      45.556   5.660  10.705  0.00  0.00    +0.000 A 
ATOM      5  C   UNL     1      45.103   4.390  11.084  0.00  0.00    +0.000 A 
ATOM      6  C   UNL     1      45.490   3.878  12.331  0.00  0.00    +0.000 A 
ATOM      7  C   UNL     1      46.315   4.625  13.179  0.00  0.00    +0.000 A 
BRANCH   5   8
ATOM      8  C   UNL     1      44.205   3.589  10.166  0.00  0.00    +0.000 C 
BRANCH   8   9
ATOM      9  N   UNL     1      44.834   2.317   9.831  0.00  0.00    +0.000 N 
ATOM     10  C   UNL     1      45.553   2.353   8.623  0.00  0.00    +0.000 A 
ATOM     11  C   UNL     1      46.206   1.196   8.202  0.00  0.00    +0.000 A 
ATOM     12  C   UNL     1      46.929   1.207   7.009  0.00  0.00    +0.000 A 
ATOM     13  C   UNL     1      46.987   2.375   6.263  0.00  0.00    +0.000 A 
ATOM     14  C   UNL     1      46.327   3.487   6.755  0.00  0.00    +0.000 A 
ATOM     15  N   UNL     1      45.625   3.496   7.909  0.00  0.00    +0.000 NA
ATOM     16  H   UNL     1      44.159   1.560   9.795  0.00  0.00    +0.000 HD
ENDBRANCH   8   9
ENDBRANCH   5   8
ENDBRANCH   1   2
BRANCH   1  19
ATOM     17  O   UNL     1      49.918   6.617  15.436  0.00  0.00    +0.000 OA
ATOM     18  C   UNL     1      48.830   6.207  15.826  0.00  0.00    +0.000 C 
ATOM     19  N   UNL     1      47.723   6.155  15.017  0.00  0.00    +0.000 N 
ATOM     20  H   UNL     1      46.818   5.971  15.431  0.00  0.00    +0.000 HD
BRANCH  18  21
ATOM     21  C   UNL     1      48.647   5.678  17.184  0.00  0.00    +0.000 A 
ATOM     22  C   UNL     1      48.866   4.332  17.441  0.00  0.00    +0.000 A 
ATOM     23  S   UNL     1      48.595   3.894  19.068  0.00  0.00    +0.000 S 
ATOM     24  C   UNL     1      48.215   5.496  19.497  0.00  0.00    +0.000 A 
ATOM     25  N   UNL     1      47.912   5.826  20.780  0.00  0.00    +0.000 NA
ATOM     26  C   UNL     1      47.681   7.083  20.969  0.00  0.00    +0.000 A 
ATOM     27  N   UNL     1      47.715   8.037  19.988  0.00  0.00    +0.000 N 
ATOM     28  C   UNL     1      47.933   7.739  18.669  0.00  0.00    +0.000 A 
ATOM     29  O   UNL     1      47.800   8.595  17.798  0.00  0.00    +0.000 OA
ATOM     30  C   UNL     1      48.261   6.348  18.406  0.00  0.00    +0.000 A 
ATOM     31  H   UNL     1      47.485   8.999  20.192  0.00  0.00    +0.000 HD
ENDBRANCH  18  21
ENDBRANCH   1  19
TORSDOF 5
ENDMDL
MODEL 3
REMARK VINA RESULT:    -8.032      2.489      4.254
REMARK INTER + INTRA:         -11.055
REMARK INTER:                 -10.062
REMARK INTRA:                  -0.993
REMARK UNBOUND:                -0.674
REMARK  Name = 
REMARK  5 active torsions:
REMARK  status: ('A' for Active; 'I' for Inactive)
REMARK    1  A    between atoms: C_2  and  C_19
REMARK    2  A    between atoms: N_3  and  C_4
REMARK    3  A    between atoms: C_4  and  C_5
REMARK    4  A    between atoms: C_8  and  C_9
REMARK    5  A    between atoms: C_9  and  N_10
REMARK                            x       y       z     vdW  Elec       q    Type
REMARK                         _______ _______ _______ _____ _____    ______ ____
ROOT
ATOM      1  C   UNL     1      47.176   5.086  14.539  0.00  0.00    +0.000 C 
ENDROOT
BRANCH   1   2
ATOM      2  C   UNL     1      46.378   4.817  13.290  0.00  0.00    +0.000 A 
ATOM      3  C   UNL     1      46.193   5.832  12.344  0.00  0.00    +0.000 A 
ATOM      4  C   UNL     1      45.481   5.585  11.167  0.00  0.00    +0.000 A 
ATOM      5  C   UNL     1      44.917   4.326  10.925  0.00  0.00    +0.000 A 
ATOM      6  C   UNL     1      45.081   3.316  11.883  0.00  0.00    +0.000 A 
ATOM      7  C   UNL     1      45.796   3.563  13.060  0.00  0.00    +0.000 A 
BRANCH   5   8
ATOM      8  C   UNL     1      44.138   4.065   9.654  0.00  0.00    +0.000 C 
BRANCH   8   9
ATOM      9  N   UNL     1      44.934   4.440   8.491  0.00  0.00    +0.000 N 
ATOM     10  C   UNL     1      45.696   3.377   7.972  0.00  0.00    +0.000 A 
ATOM     11  C   UNL     1      46.493   3.614   6.853  0.00  0.00    +0.000 A 
ATOM     12  C   UNL     1      47.255   2.576   6.318  0.00  0.00    +0.000 A 
ATOM     13  C   UNL     1      47.203   1.322   6.910  0.00  0.00    +0.000 A 
ATOM     14  C   UNL     1      46.376   1.163   8.007  0.00  0.00    +0.000 A 
ATOM     15  N   UNL     1      45.628   2.155   8.537  0.00  0.00    +0.000 NA
ATOM     16  H   UNL     1      45.547   5.224   8.690  0.00  0.00    +0.000 HD
ENDBRANCH   8   9
ENDBRANCH   5   8
ENDBRANCH   1   2
BRANCH   1  19
ATOM     17  O   UNL     1      49.502   5.977  15.885  0.00  0.00    +0.000 OA
ATOM     18  C   UNL     1      48.875   6.763  15.182  0.00  0.00    +0.000 C 
ATOM     19  N   UNL     1      47.709   6.422  14.545  0.00  0.00    +0.000 N 
ATOM     20  H   UNL     1      47.327   7.048  13.847  0.00  0.00    +0.000 HD
BRANCH  18  21
ATOM     21  C   UNL     1      49.300   8.160  15.020  0.00  0.00    +0.000 A 
ATOM     22  C   UNL     1      49.394   8.991  16.129  0.00  0.00    +0.000 A 
ATOM     23  S   UNL     1      49.890  10.579  15.752  0.00  0.00    +0.000 S 
ATOM     24  C   UNL     1      50.038  10.203  14.098  0.00  0.00    +0.000 A 
ATOM     25  N   UNL     1      50.463  11.132  13.203  0.00  0.00    +0.000 NA
ATOM     26  C   UNL     1      50.564  10.699  11.990  0.00  0.00    +0.000 A 
ATOM     27  N   UNL     1      50.267   9.424  11.591  0.00  0.00    +0.000 N 
ATOM     28  C   UNL     1      49.756   8.480  12.442  0.00  0.00    +0.000 A 
ATOM     29  O   UNL     1      49.354   7.400  12.017  0.00  0.00    +0.000 OA
ATOM     30  C   UNL     1      49.680   8.892  13.833  0.00  0.00    +0.000 A 
ATOM     31  H   UNL     1      50.327   9.157  10.618  0.00  0.00    +0.000 HD
ENDBRANCH  18  21
ENDBRANCH   1  19
TORSDOF 5
ENDMDL
MODEL 4
REMARK VINA RESULT:    -7.979      1.701      2.460
REMARK INTER + INTRA:         -10.986
REMARK INTER:                 -10.427
REMARK INTRA:                  -0.559
REMARK UNBOUND:                -0.674
REMARK  Name = 
REMARK  5 active torsions:
REMARK  status: ('A' for Active; 'I' for Inactive)
REMARK    1  A    between atoms: C_2  and  C_19
REMARK    2  A    between atoms: N_3  and  C_4
REMARK    3  A    between atoms: C_4  and  C_5
REMARK    4  A    between atoms: C_8  and  C_9
REMARK    5  A    between atoms: C_9  and  N_10
REMARK                            x       y       z     vdW  Elec       q    Type
REMARK                         _______ _______ _______ _____ _____    ______ ____
ROOT
ATOM      1  C   UNL     1      47.194   6.848  13.584  0.00  0.00    +0.000 C 
ENDROOT
BRANCH   1   2
ATOM      2  C   UNL     1      46.441   5.959  12.629  0.00  0.00    +0.000 A 
ATOM      3  C   UNL     1      45.952   4.721  13.060  0.00  0.00    +0.000 A 
ATOM      4  C   UNL     1      45.225   3.902  12.192  0.00  0.00    +0.000 A 
ATOM      5  C   UNL     1      44.996   4.293  10.866  0.00  0.00    +0.000 A 
ATOM      6  C   UNL     1      45.507   5.522  10.425  0.00  0.00    +0.000 A 
ATOM      7  C   UNL     1      46.233   6.342  11.296  0.00  0.00    +0.000 A 
BRANCH   5   8
ATOM      8  C   UNL     1      44.218   3.399   9.925  0.00  0.00    +0.000 C 
BRANCH   8   9
ATOM      9  N   UNL     1      44.981   2.191   9.634  0.00  0.00    +0.000 N 
ATOM     10  C   UNL     1      45.711   2.271   8.434  0.00  0.00    +0.000 A 
ATOM     11  C   UNL     1      46.487   1.178   8.053  0.00  0.00    +0.000 A 
ATOM     12  C   UNL     1      47.223   1.234   6.869  0.00  0.00    +0.000 A 
ATOM     13  C   UNL     1      47.170   2.382   6.092  0.00  0.00    +0.000 A 
ATOM     14  C   UNL     1      46.391   3.430   6.546  0.00  0.00    +0.000 A 
ATOM     15  N   UNL     1      45.674   3.396   7.690  0.00  0.00    +0.000 NA
ATOM     16  H   UNL     1      44.389   1.367   9.610  0.00  0.00    +0.000 HD
ENDBRANCH   8   9
ENDBRANCH   5   8
ENDBRANCH   1   2
BRANCH   1  19
ATOM     17  O   UNL     1      48.822   7.847  15.674  0.00  0.00    +0.000 OA
ATOM     18  C   UNL     1      48.520   6.658  15.662  0.00  0.00    +0.000 C 
ATOM     19  N   UNL     1      47.783   6.089  14.654  0.00  0.00    +0.000 N 
ATOM     20  H   UNL     1      47.420   5.153  14.777  0.00  0.00    +0.000 HD
BRANCH  18  21
ATOM     21  C   UNL     1      48.984   5.736  16.707  0.00  0.00    +0.000 A 
ATOM     22  C   UNL     1      48.064   4.997  17.439  0.00  0.00    +0.000 A 
ATOM     23  S   UNL     1      48.779   3.988  18.615  0.00  0.00    +0.000 S 
ATOM     24  C   UNL     1      50.347   4.471  18.161  0.00  0.00    +0.000 A 
ATOM     25  N   UNL     1      51.445   3.949  18.766  0.00  0.00    +0.000 NA
ATOM     26  C   UNL     1      52.569   4.377  18.296  0.00  0.00    +0.000 A 
ATOM     27  N   UNL     1      52.693   5.290  17.283  0.00  0.00    +0.000 N 
ATOM     28  C   UNL     1      51.617   5.905  16.702  0.00  0.00    +0.000 A 
ATOM     29  O   UNL     1      51.770   6.831  15.910  0.00  0.00    +0.000 OA
ATOM     30  C   UNL     1      50.323   5.416  17.148  0.00  0.00    +0.000 A 
ATOM     31  H   UNL     1      53.602   5.617  16.988  0.00  0.00    +0.000 HD
ENDBRANCH  18  21
ENDBRANCH   1  19
TORSDOF 5
ENDMDL
MODEL 5
REMARK VINA RESULT:    -7.918      3.597      5.712
REMARK INTER + INTRA:         -10.907
REMARK INTER:                 -10.237
REMARK INTRA:                  -0.671
REMARK UNBOUND:                -0.674
REMARK  Name = 
REMARK  5 active torsions:
REMARK  status: ('A' for Active; 'I' for Inactive)
REMARK    1  A    between atoms: C_2  and  C_19
REMARK    2  A    between atoms: N_3  and  C_4
REMARK    3  A    between atoms: C_4  and  C_5
REMARK    4  A    between atoms: C_8  and  C_9
REMARK    5  A    between atoms: C_9  and  N_10
REMARK                            x       y       z     vdW  Elec       q    Type
REMARK                         _______ _______ _______ _____ _____    ______ ____
ROOT
ATOM      1  C   UNL     1      46.889   6.702  13.510  0.00  0.00    +0.000 C 
ENDROOT
BRANCH   1   2
ATOM      2  C   UNL     1      46.187   5.781  12.546  0.00  0.00    +0.000 A 
ATOM      3  C   UNL     1      46.011   6.165  11.212  0.00  0.00    +0.000 A 
ATOM      4  C   UNL     1      45.390   5.306  10.302  0.00  0.00    +0.000 A 
ATOM      5  C   UNL     1      44.908   4.056  10.714  0.00  0.00    +0.000 A 
ATOM      6  C   UNL     1      45.061   3.681  12.056  0.00  0.00    +0.000 A 
ATOM      7  C   UNL     1      45.686   4.541  12.966  0.00  0.00    +0.000 A 
BRANCH   5   8
ATOM      8  C   UNL     1      44.226   3.133   9.728  0.00  0.00    +0.000 C 
BRANCH   8   9
ATOM      9  N   UNL     1      45.089   1.998   9.422  0.00  0.00    +0.000 N 
ATOM     10  C   UNL     1      45.836   2.171   8.242  0.00  0.00    +0.000 A 
ATOM     11  C   UNL     1      46.705   1.154   7.850  0.00  0.00    +0.000 A 
ATOM     12  C   UNL     1      47.459   1.302   6.687  0.00  0.00    +0.000 A 
ATOM     13  C   UNL     1      47.332   2.464   5.939  0.00  0.00    +0.000 A 
ATOM     14  C   UNL     1      46.461   3.434   6.402  0.00  0.00    +0.000 A 
ATOM     15  N   UNL     1      45.725   3.310   7.528  0.00  0.00    +0.000 NA
ATOM     16  H   UNL     1      44.565   1.131   9.362  0.00  0.00    +0.000 HD
ENDBRANCH   8   9
ENDBRANCH   5   8
ENDBRANCH   1   2
BRANCH   1  19
ATOM     17  O   UNL     1      48.461   8.499  11.988  0.00  0.00    +0.000 OA
ATOM     18  C   UNL     1      47.383   8.874  12.437  0.00  0.00    +0.000 C 
ATOM     19  N   UNL     1      46.593   8.081  13.230  0.00  0.00    +0.000 N 
ATOM     20  H   UNL     1      45.645   8.374  13.430  0.00  0.00    +0.000 HD
BRANCH  18  21
ATOM     21  C   UNL     1      46.885  10.236  12.206  0.00  0.00    +0.000 A 
ATOM     22  C   UNL     1      47.713  11.327  12.432  0.00  0.00    +0.000 A 
ATOM     23  S   UNL     1      46.964  12.829  12.122  0.00  0.00    +0.000 S 
ATOM     24  C   UNL     1      45.518  12.075  11.636  0.00  0.00    +0.000 A 
ATOM     25  N   UNL     1      44.455  12.805  11.208  0.00  0.00    +0.000 NA
ATOM     26  C   UNL     1      43.439  12.101  10.835  0.00  0.00    +0.000 A 
ATOM     27  N   UNL     1      43.386  10.733  10.863  0.00  0.00    +0.000 N 
ATOM     28  C   UNL     1      44.399   9.961  11.364  0.00  0.00    +0.000 A 
ATOM     29  O   UNL     1      44.253   8.751  11.519  0.00  0.00    +0.000 OA
ATOM     30  C   UNL     1      45.595  10.696  11.742  0.00  0.00    +0.000 A 
ATOM     31  H   UNL     1      42.545  10.241  10.596  0.00  0.00    +0.000 HD
ENDBRANCH  18  21
ENDBRANCH   1  19
TORSDOF 5
ENDMDL
MODEL 6
REMARK VINA RESULT:    -7.619      4.421      8.937
REMARK INTER + INTRA:         -10.520
REMARK INTER:                  -9.760
REMARK INTRA:                  -0.760
REMARK UNBOUND:                -0.674
REMARK  Name = 
REMARK  5 active torsions:
REMARK  status: ('A' for Active; 'I' for Inactive)
REMARK    1  A    between atoms: C_2  and  C_19
REMARK    2  A    between atoms: N_3  and  C_4
REMARK    3  A    between atoms: C_4  and  C_5
REMARK    4  A    between atoms: C_8  and  C_9
REMARK    5  A    between atoms: C_9  and  N_10
REMARK                            x       y       z     vdW  Elec       q    Type
REMARK                         _______ _______ _______ _____ _____    ______ ____
ROOT
ATOM      1  C   UNL     1      47.319   3.463  17.024  0.00  0.00    +0.000 C 
ENDROOT
BRANCH   1   2
ATOM      2  C   UNL     1      48.791   3.280  17.284  0.00  0.00    +0.000 A 
ATOM      3  C   UNL     1      49.426   2.088  16.916  0.00  0.00    +0.000 A 
ATOM      4  C   UNL     1      50.797   1.920  17.124  0.00  0.00    +0.000 A 
ATOM      5  C   UNL     1      51.557   2.930  17.729  0.00  0.00    +0.000 A 
ATOM      6  C   UNL     1      50.918   4.114  18.121  0.00  0.00    +0.000 A 
ATOM      7  C   UNL     1      49.545   4.283  17.910  0.00  0.00    +0.000 A 
BRANCH   5   8
ATOM      8  C   UNL     1      53.041   2.740  17.961  0.00  0.00    +0.000 C 
BRANCH   8   9
ATOM      9  N   UNL     1      53.274   1.546  18.766  0.00  0.00    +0.000 N 
ATOM     10  C   UNL     1      53.915   0.514  18.056  0.00  0.00    +0.000 A 
ATOM     11  C   UNL     1      54.199  -0.676  18.724  0.00  0.00    +0.000 A 
ATOM     12  C   UNL     1      54.837  -1.712  18.044  0.00  0.00    +0.000 A 
ATOM     13  C   UNL     1      55.182  -1.538  16.712  0.00  0.00    +0.000 A 
ATOM     14  C   UNL     1      54.881  -0.323  16.124  0.00  0.00    +0.000 A 
ATOM     15  N   UNL     1      54.267   0.694  16.767  0.00  0.00    +0.000 NA
ATOM     16  H   UNL     1      52.414   1.189  19.169  0.00  0.00    +0.000 HD
ENDBRANCH   8   9
ENDBRANCH   5   8
ENDBRANCH   1   2
BRANCH   1  19
ATOM     17  O   UNL     1      47.337   3.095  14.217  0.00  0.00    +0.000 OA
ATOM     18  C   UNL     1      47.058   4.197  14.677  0.00  0.00    +0.000 C 
ATOM     19  N   UNL     1      47.084   4.468  16.022  0.00  0.00    +0.000 N 
ATOM     20  H   UNL     1      46.684   5.335  16.358  0.00  0.00    +0.000 HD
BRANCH  18  21
ATOM     21  C   UNL     1      46.733   5.336  13.808  0.00  0.00    +0.000 A 
ATOM     22  C   UNL     1      47.647   6.367  13.642  0.00  0.00    +0.000 A 
ATOM     23  S   UNL     1      47.097   7.609  12.608  0.00  0.00    +0.000 S 
ATOM     24  C   UNL     1      45.632   6.794  12.313  0.00  0.00    +0.000 A 
ATOM     25  N   UNL     1      44.700   7.309  11.470  0.00  0.00    +0.000 NA
ATOM     26  C   UNL     1      43.655   6.567  11.311  0.00  0.00    +0.000 A 
ATOM     27  N   UNL     1      43.453   5.362  11.928  0.00  0.00    +0.000 N 
ATOM     28  C   UNL     1      44.325   4.844  12.848  0.00  0.00    +0.000 A 
ATOM     29  O   UNL     1      44.036   3.842  13.496  0.00  0.00    +0.000 OA
ATOM     30  C   UNL     1      45.550   5.606  13.021  0.00  0.00    +0.000 A 
ATOM     31  H   UNL     1      42.594   4.848  11.793  0.00  0.00    +0.000 HD
ENDBRANCH  18  21
ENDBRANCH   1  19
TORSDOF 5
ENDMDL
MODEL 7
REMARK VINA RESULT:    -7.284      4.766      7.347
REMARK INTER + INTRA:         -10.087
REMARK INTER:                  -9.171
REMARK INTRA:                  -0.916
REMARK UNBOUND:                -0.674
REMARK  Name = 
REMARK  5 active torsions:
REMARK  status: ('A' for Active; 'I' for Inactive)
REMARK    1  A    between atoms: C_2  and  C_19
REMARK    2  A    between atoms: N_3  and  C_4
REMARK    3  A    between atoms: C_4  and  C_5
REMARK    4  A    between atoms: C_8  and  C_9
REMARK    5  A    between atoms: C_9  and  N_10
REMARK                            x       y       z     vdW  Elec       q    Type
REMARK                         _______ _______ _______ _____ _____    ______ ____
ROOT
ATOM      1  C   UNL     1      46.458   8.273  12.925  0.00  0.00    +0.000 C 
ENDROOT
BRANCH   1   2
ATOM      2  C   UNL     1      47.863   8.413  12.402  0.00  0.00    +0.000 A 
ATOM      3  C   UNL     1      48.705   7.296  12.342  0.00  0.00    +0.000 A 
ATOM      4  C   UNL     1      50.000   7.409  11.830  0.00  0.00    +0.000 A 
ATOM      5  C   UNL     1      50.489   8.647  11.391  0.00  0.00    +0.000 A 
ATOM      6  C   UNL     1      49.656   9.771  11.474  0.00  0.00    +0.000 A 
ATOM      7  C   UNL     1      48.358   9.657  11.985  0.00  0.00    +0.000 A 
BRANCH   5   8
ATOM      8  C   UNL     1      51.896   8.767  10.847  0.00  0.00    +0.000 C 
BRANCH   8   9
ATOM      9  N   UNL     1      52.578   7.481  10.930  0.00  0.00    +0.000 N 
ATOM     10  C   UNL     1      52.902   6.941   9.671  0.00  0.00    +0.000 A 
ATOM     11  C   UNL     1      53.565   5.716   9.623  0.00  0.00    +0.000 A 
ATOM     12  C   UNL     1      53.900   5.161   8.389  0.00  0.00    +0.000 A 
ATOM     13  C   UNL     1      53.569   5.844   7.227  0.00  0.00    +0.000 A 
ATOM     14  C   UNL     1      52.927   7.061   7.357  0.00  0.00    +0.000 A 
ATOM     15  N   UNL     1      52.597   7.616   8.544  0.00  0.00    +0.000 NA
ATOM     16  H   UNL     1      52.039   6.801  11.456  0.00  0.00    +0.000 HD
ENDBRANCH   8   9
ENDBRANCH   5   8
ENDBRANCH   1   2
BRANCH   1  19
ATOM     17  O   UNL     1      44.404   7.623  11.088  0.00  0.00    +0.000 OA
ATOM     18  C   UNL     1      44.962   6.724  11.708  0.00  0.00    +0.000 C 
ATOM     19  N   UNL     1      45.926   6.964  12.655  0.00  0.00    +0.000 N 
ATOM     20  H   UNL     1      46.471   6.189  13.011  0.00  0.00    +0.000 HD
BRANCH  18  21
ATOM     21  C   UNL     1      44.592   5.315  11.523  0.00  0.00    +0.000 A 
ATOM     22  C   UNL     1      43.878   4.649  12.510  0.00  0.00    +0.000 A 
ATOM     23  S   UNL     1      43.546   3.018  12.131  0.00  0.00    +0.000 S 
ATOM     24  C   UNL     1      44.310   3.154  10.616  0.00  0.00    +0.000 A 
ATOM     25  N   UNL     1      44.354   2.104   9.755  0.00  0.00    +0.000 NA
ATOM     26  C   UNL     1      44.932   2.359   8.629  0.00  0.00    +0.000 A 
ATOM     27  N   UNL     1      45.478   3.568   8.290  0.00  0.00    +0.000 N 
ATOM     28  C   UNL     1      45.531   4.628   9.155  0.00  0.00    +0.000 A 
ATOM     29  O   UNL     1      46.166   5.640   8.875  0.00  0.00    +0.000 OA
ATOM     30  C   UNL     1      44.841   4.418  10.417  0.00  0.00    +0.000 A 
ATOM     31  H   UNL     1      45.953   3.693   7.407  0.00  0.00    +0.000 HD
ENDBRANCH  18  21
ENDBRANCH   1  19
TORSDOF 5
ENDMDL
MODEL 8
REMARK VINA RESULT:    -7.048      3.837      9.750
REMARK INTER + INTRA:          -9.782
REMARK INTER:                  -8.823
REMARK INTRA:                  -0.959
REMARK UNBOUND:                -0.674
REMARK  Name = 
REMARK  5 active torsions:
REMARK  status: ('A' for Active; 'I' for Inactive)
REMARK    1  A    between atoms: C_2  and  C_19
REMARK    2  A    between atoms: N_3  and  C_4
REMARK    3  A    between atoms: C_4  and  C_5
REMARK    4  A    between atoms: C_8  and  C_9
REMARK    5  A    between atoms: C_9  and  N_10
REMARK                            x       y       z     vdW  Elec       q    Type
REMARK                         _______ _______ _______ _____ _____    ______ ____
ROOT
ATOM      1  C   UNL     1      47.784   4.199  16.208  0.00  0.00    +0.000 C 
ENDROOT
BRANCH   1   2
ATOM      2  C   UNL     1      48.000   5.215  17.299  0.00  0.00    +0.000 A 
ATOM      3  C   UNL     1      47.064   5.347  18.331  0.00  0.00    +0.000 A 
ATOM      4  C   UNL     1      47.271   6.264  19.365  0.00  0.00    +0.000 A 
ATOM      5  C   UNL     1      48.405   7.087  19.374  0.00  0.00    +0.000 A 
ATOM      6  C   UNL     1      49.331   6.973  18.327  0.00  0.00    +0.000 A 
ATOM      7  C   UNL     1      49.124   6.052  17.294  0.00  0.00    +0.000 A 
BRANCH   5   8
ATOM      8  C   UNL     1      48.619   8.086  20.490  0.00  0.00    +0.000 C 
BRANCH   8   9
ATOM      9  N   UNL     1      47.336   8.579  20.977  0.00  0.00    +0.000 N 
ATOM     10  C   UNL     1      46.986   9.834  20.447  0.00  0.00    +0.000 A 
ATOM     11  C   UNL     1      45.774  10.405  20.833  0.00  0.00    +0.000 A 
ATOM     12  C   UNL     1      45.402  11.647  20.319  0.00  0.00    +0.000 A 
ATOM     13  C   UNL     1      46.247  12.291  19.427  0.00  0.00    +0.000 A 
ATOM     14  C   UNL     1      47.423  11.653  19.080  0.00  0.00    +0.000 A 
ATOM     15  N   UNL     1      47.799  10.449  19.564  0.00  0.00    +0.000 NA
ATOM     16  H   UNL     1      47.310   8.625  21.990  0.00  0.00    +0.000 HD
ENDBRANCH   8   9
ENDBRANCH   5   8
ENDBRANCH   1   2
BRANCH   1  19
ATOM     17  O   UNL     1      48.478   5.760  13.950  0.00  0.00    +0.000 OA
ATOM     18  C   UNL     1      47.314   5.405  14.101  0.00  0.00    +0.000 C 
ATOM     19  N   UNL     1      46.890   4.697  15.197  0.00  0.00    +0.000 N 
ATOM     20  H   UNL     1      45.965   4.285  15.190  0.00  0.00    +0.000 HD
BRANCH  18  21
ATOM     21  C   UNL     1      46.266   5.770  13.138  0.00  0.00    +0.000 A 
ATOM     22  C   UNL     1      46.011   7.107  12.862  0.00  0.00    +0.000 A 
ATOM     23  S   UNL     1      44.756   7.344  11.731  0.00  0.00    +0.000 S 
ATOM     24  C   UNL     1      44.535   5.667  11.538  0.00  0.00    +0.000 A 
ATOM     25  N   UNL     1      43.613   5.177  10.668  0.00  0.00    +0.000 NA
ATOM     26  C   UNL     1      43.579   3.888  10.596  0.00  0.00    +0.000 A 
ATOM     27  N   UNL     1      44.376   3.045  11.323  0.00  0.00    +0.000 N 
ATOM     28  C   UNL     1      45.259   3.492  12.270  0.00  0.00    +0.000 A 
ATOM     29  O   UNL     1      45.840   2.704  13.012  0.00  0.00    +0.000 OA
ATOM     30  C   UNL     1      45.384   4.937  12.352  0.00  0.00    +0.000 A 
ATOM     31  H   UNL     1      44.273   2.043  11.252  0.00  0.00    +0.000 HD
ENDBRANCH  18  21
ENDBRANCH   1  19
TORSDOF 5
ENDMDL
MODEL 9
REMARK VINA RESULT:    -6.825      3.847      6.222
REMARK INTER + INTRA:          -9.494
REMARK INTER:                  -8.556
REMARK INTRA:                  -0.938
REMARK UNBOUND:                -0.674
REMARK  Name = 
REMARK  5 active torsions:
REMARK  status: ('A' for Active; 'I' for Inactive)
REMARK    1  A    between atoms: C_2  and  C_19
REMARK    2  A    between atoms: N_3  and  C_4
REMARK    3  A    between atoms: C_4  and  C_5
REMARK    4  A    between atoms: C_8  and  C_9
REMARK    5  A    between atoms: C_9  and  N_10
REMARK                            x       y       z     vdW  Elec       q    Type
REMARK                         _______ _______ _______ _____ _____    ______ ____
ROOT
ATOM      1  C   UNL     1      46.365   4.477  13.708  0.00  0.00    +0.000 C 
ENDROOT
BRANCH   1   2
ATOM      2  C   UNL     1      45.815   5.700  13.023  0.00  0.00    +0.000 A 
ATOM      3  C   UNL     1      46.459   6.935  13.168  0.00  0.00    +0.000 A 
ATOM      4  C   UNL     1      45.976   8.069  12.511  0.00  0.00    +0.000 A 
ATOM      5  C   UNL     1      44.823   7.999  11.717  0.00  0.00    +0.000 A 
ATOM      6  C   UNL     1      44.164   6.768  11.591  0.00  0.00    +0.000 A 
ATOM      7  C   UNL     1      44.650   5.632  12.247  0.00  0.00    +0.000 A 
BRANCH   5   8
ATOM      8  C   UNL     1      44.297   9.233  11.016  0.00  0.00    +0.000 C 
BRANCH   8   9
ATOM      9  N   UNL     1      42.873   9.085  10.741  0.00  0.00    +0.000 N 
ATOM     10  C   UNL     1      42.147  10.278  10.915  0.00  0.00    +0.000 A 
ATOM     11  C   UNL     1      40.774  10.263  10.673  0.00  0.00    +0.000 A 
ATOM     12  C   UNL     1      40.033  11.433  10.834  0.00  0.00    +0.000 A 
ATOM     13  C   UNL     1      40.679  12.595  11.231  0.00  0.00    +0.000 A 
ATOM     14  C   UNL     1      42.045  12.534  11.436  0.00  0.00    +0.000 A 
ATOM     15  N   UNL     1      42.780  11.411  11.281  0.00  0.00    +0.000 NA
ATOM     16  H   UNL     1      42.453   8.354  11.307  0.00  0.00    +0.000 HD
ENDBRANCH   8   9
ENDBRANCH   5   8
ENDBRANCH   1   2
BRANCH   1  19
ATOM     17  O   UNL     1      47.900   2.768  15.363  0.00  0.00    +0.000 OA
ATOM     18  C   UNL     1      47.720   3.932  15.703  0.00  0.00    +0.000 C 
ATOM     19  N   UNL     1      46.943   4.804  14.984  0.00  0.00    +0.000 N 
ATOM     20  H   UNL     1      46.966   5.790  15.213  0.00  0.00    +0.000 HD
BRANCH  18  21
ATOM     21  C   UNL     1      48.282   4.466  16.951  0.00  0.00    +0.000 A 
ATOM     22  C   UNL     1      47.971   3.867  18.165  0.00  0.00    +0.000 A 
ATOM     23  S   UNL     1      48.702   4.625  19.508  0.00  0.00    +0.000 S 
ATOM     24  C   UNL     1      49.493   5.757  18.512  0.00  0.00    +0.000 A 
ATOM     25  N   UNL     1      50.323   6.695  19.038  0.00  0.00    +0.000 NA
ATOM     26  C   UNL     1      50.884   7.463  18.165  0.00  0.00    +0.000 A 
ATOM     27  N   UNL     1      50.681   7.385  16.813  0.00  0.00    +0.000 N 
ATOM     28  C   UNL     1      49.791   6.512  16.246  0.00  0.00    +0.000 A 
ATOM     29  O   UNL     1      49.518   6.577  15.050  0.00  0.00    +0.000 OA
ATOM     30  C   UNL     1      49.176   5.579  17.176  0.00  0.00    +0.000 A 
ATOM     31  H   UNL     1      51.118   8.043  16.184  0.00  0.00    +0.000 HD
ENDBRANCH  18  21
ENDBRANCH   1  19
TORSDOF 5
ENDMDL
