MODEL 1
REMARK VINA RESULT:    -8.542      0.000      0.000
REMARK INTER + INTRA:         -13.491
REMARK INTER:                 -12.538
REMARK INTRA:                  -0.953
REMARK UNBOUND:                -0.953
REMARK  Name = 
REMARK  9 active torsions:
REMARK  status: ('A' for Active; 'I' for Inactive)
REMARK    1  A    between atoms: C_2  and  C_4
REMARK    2  A    between atoms: N_8  and  C_9
REMARK    3  A    between atoms: C_9  and  C_10
REMARK    4  A    between atoms: C_10  and  O_11
REMARK    5  A    between atoms: C_10  and  C_12
REMARK    6  A    between atoms: C_10  and  C_14
REMARK    7  A    between atoms: C_12  and  O_13
REMARK    8  A    between atoms: C_18  and  O_19
REMARK    9  A    between atoms: O_19  and  C_20
REMARK                            x       y       z     vdW  Elec       q    Type
REMARK                         _______ _______ _______ _____ _____    ______ ____
ROOT
ATOM      1  C   UNL     1      43.893   4.566  12.344  0.00  0.00    +0.000 C 
ENDROOT
BRANCH   1   2
ATOM      2  C   UNL     1      45.297   5.172  12.483  0.00  0.00    +0.000 A 
ATOM      3  C   UNL     1      45.785   6.147  11.600  0.00  0.00    +0.000 A 
ATOM      4  C   UNL     1      47.033   6.754  11.813  0.00  0.00    +0.000 A 
ATOM      5  C   UNL     1      47.812   6.419  12.925  0.00  0.00    +0.000 A 
ATOM      6  C   UNL     1      47.341   5.460  13.811  0.00  0.00    +0.000 A 
ATOM      7  C   UNL     1      46.109   4.842  13.579  0.00  0.00    +0.000 A 
BRANCH   6   8
ATOM      8  O   UNL     1      47.929   5.049  14.974  0.00  0.00    +0.000 OA
BRANCH   8   9
ATOM      9  C   UNL     1      47.223   4.214  15.906  0.00  0.00    +0.000 C 
ATOM     10  C   UNL     1      47.260   4.596  17.390  0.00  0.00    +0.000 C 
ATOM     11  O   UNL     1      47.867   3.335  17.758  0.00  0.00    +0.000 OA
ATOM     12  C   UNL     1      48.034   2.991  16.365  0.00  0.00    +0.000 C 
ENDBRANCH   8   9
ENDBRANCH   6   8
ENDBRANCH   1   2
BRANCH   1  13
ATOM     13  O   UNL     1      43.839   3.308  13.058  0.00  0.00    +0.000 OA
ATOM     14  H   UNL     1      44.432   2.711  12.566  0.00  0.00    +0.000 HD
ENDBRANCH   1  13
BRANCH   1  15
ATOM     15  C   UNL     1      43.618   4.303  10.830  0.00  0.00    +0.000 C 
BRANCH  15  20
ATOM     16  C   UNL     1      46.590   2.628   7.178  0.00  0.00    +0.000 A 
ATOM     17  C   UNL     1      46.189   1.478   7.852  0.00  0.00    +0.000 A 
ATOM     18  C   UNL     1      45.321   1.600   8.942  0.00  0.00    +0.000 A 
ATOM     19  C   UNL     1      44.870   2.860   9.339  0.00  0.00    +0.000 A 
ATOM     20  N   UNL     1      44.010   2.932  10.448  0.00  0.00    +0.000 N 
ATOM     21  N   UNL     1      45.231   3.973   8.672  0.00  0.00    +0.000 NA
ATOM     22  C   UNL     1      46.089   3.840   7.626  0.00  0.00    +0.000 A 
ATOM     23  H   UNL     1      44.451   2.472  11.242  0.00  0.00    +0.000 HD
BRANCH  16  25
ATOM     24  N   UNL     1      48.866   2.388   6.337  0.00  0.00    +0.000 N 
ATOM     25  C   UNL     1      47.549   2.626   6.051  0.00  0.00    +0.000 C 
ATOM     26  O   UNL     1      47.179   2.807   4.900  0.00  0.00    +0.000 OA
ATOM     27  H   UNL     1      49.487   2.306   5.541  0.00  0.00    +0.000 HD
ATOM     28  H   UNL     1      49.182   2.007   7.216  0.00  0.00    +0.000 HD
ENDBRANCH  16  25
ENDBRANCH  15  20
ENDBRANCH   1  15
BRANCH   1  29
ATOM     29  C   UNL     1      42.764   5.448  12.946  0.00  0.00    +0.000 C 
BRANCH  29  30
ATOM     30  O   UNL     1      42.050   6.148  11.918  0.00  0.00    +0.000 OA
ATOM     31  H   UNL     1      41.435   5.504  11.525  0.00  0.00    +0.000 HD
ENDBRANCH  29  30
ENDBRANCH   1  29
TORSDOF 9
ENDMDL
MODEL 2
REMARK VINA RESULT:    -7.623      1.659      2.093
REMARK INTER + INTRA:         -12.141
REMARK INTER:                 -12.006
REMARK INTRA:                  -0.135
REMARK UNBOUND:                -0.953
REMARK  Name = 
REMARK  9 active torsions:
REMARK  status: ('A' for Active; 'I' for Inactive)
REMARK    1  A    between atoms: C_2  and  C_4
REMARK    2  A    between atoms: N_8  and  C_9
REMARK    3  A    between atoms: C_9  and  C_10
REMARK    4  A    between atoms: C_10  and  O_11
REMARK    5  A    between atoms: C_10  and  C_12
REMARK    6  A    between atoms: C_10  and  C_14
REMARK    7  A    between atoms: C_12  and  O_13
REMARK    8  A    between atoms: C_18  and  O_19
REMARK    9  A    between atoms: O_19  and  C_20
REMARK                            x       y       z     vdW  Elec       q    Type
REMARK                         _______ _______ _______ _____ _____    ______ ____
ROOT
ATOM      1  C   UNL     1      44.270   4.286  12.274  0.00  0.00    +0.000 C 
ENDROOT
BRANCH   1   2
ATOM      2  C   UNL     1      45.224   5.485  12.354  0.00  0.00    +0.000 A 
ATOM      3  C   UNL     1      44.865   6.762  11.898  0.00  0.00    +0.000 A 
ATOM      4  C   UNL     1      45.721   7.860  12.076  0.00  0.00    +0.000 A 
ATOM      5  C   UNL     1      46.946   7.713  12.735  0.00  0.00    +0.000 A 
ATOM      6  C   UNL     1      47.314   6.458  13.197  0.00  0.00    +0.000 A 
ATOM      7  C   UNL     1      46.468   5.365  12.994  0.00  0.00    +0.000 A 
BRANCH   6   8
ATOM      8  O   UNL     1      48.434   6.134  13.910  0.00  0.00    +0.000 OA
BRANCH   8   9
ATOM      9  C   UNL     1      48.783   6.848  15.107  0.00  0.00    +0.000 C 
ATOM     10  C   UNL     1      50.269   7.075  15.406  0.00  0.00    +0.000 C 
ATOM     11  O   UNL     1      50.182   6.365  16.664  0.00  0.00    +0.000 OA
ATOM     12  C   UNL     1      48.831   5.957  16.358  0.00  0.00    +0.000 C 
ENDBRANCH   8   9
ENDBRANCH   6   8
ENDBRANCH   1   2
BRANCH   1  13
ATOM     13  O   UNL     1      45.032   3.057  12.357  0.00  0.00    +0.000 OA
ATOM     14  H   UNL     1      45.869   3.307  12.790  0.00  0.00    +0.000 HD
ENDBRANCH   1  13
BRANCH   1  15
ATOM     15  C   UNL     1      43.533   4.333  10.898  0.00  0.00    +0.000 C 
BRANCH  15  20
ATOM     16  C   UNL     1      46.644   2.435   7.479  0.00  0.00    +0.000 A 
ATOM     17  C   UNL     1      46.675   3.808   7.250  0.00  0.00    +0.000 A 
ATOM     18  C   UNL     1      45.908   4.648   8.065  0.00  0.00    +0.000 A 
ATOM     19  C   UNL     1      45.127   4.107   9.088  0.00  0.00    +0.000 A 
ATOM     20  N   UNL     1      44.364   4.989   9.871  0.00  0.00    +0.000 N 
ATOM     21  N   UNL     1      45.117   2.782   9.333  0.00  0.00    +0.000 NA
ATOM     22  C   UNL     1      45.855   1.977   8.522  0.00  0.00    +0.000 A 
ATOM     23  H   UNL     1      43.770   5.547   9.260  0.00  0.00    +0.000 HD
BRANCH  16  25
ATOM     24  N   UNL     1      48.476   1.878   5.970  0.00  0.00    +0.000 N 
ATOM     25  C   UNL     1      47.367   1.448   6.646  0.00  0.00    +0.000 C 
ATOM     26  O   UNL     1      47.003   0.283   6.580  0.00  0.00    +0.000 OA
ATOM     27  H   UNL     1      49.002   1.165   5.478  0.00  0.00    +0.000 HD
ATOM     28  H   UNL     1      48.946   2.748   6.172  0.00  0.00    +0.000 HD
ENDBRANCH  16  25
ENDBRANCH  15  20
ENDBRANCH   1  15
BRANCH   1  29
ATOM     29  C   UNL     1      43.235   4.225  13.432  0.00  0.00    +0.000 C 
BRANCH  29  30
ATOM     30  O   UNL     1      42.449   5.424  13.486  0.00  0.00    +0.000 OA
ATOM     31  H   UNL     1      42.225   5.562  14.423  0.00  0.00    +0.000 HD
ENDBRANCH  29  30
ENDBRANCH   1  29
TORSDOF 9
ENDMDL
MODEL 3
REMARK VINA RESULT:    -7.523      3.233      5.578
REMARK INTER + INTRA:         -11.994
REMARK INTER:                 -11.072
REMARK INTRA:                  -0.921
REMARK UNBOUND:                -0.953
REMARK  Name = 
REMARK  9 active torsions:
REMARK  status: ('A' for Active; 'I' for Inactive)
REMARK    1  A    between atoms: C_2  and  C_4
REMARK    2  A    between atoms: N_8  and  C_9
REMARK    3  A    between atoms: C_9  and  C_10
REMARK    4  A    between atoms: C_10  and  O_11
REMARK    5  A    between atoms: C_10  and  C_12
REMARK    6  A    between atoms: C_10  and  C_14
REMARK    7  A    between atoms: C_12  and  O_13
REMARK    8  A    between atoms: C_18  and  O_19
REMARK    9  A    between atoms: O_19  and  C_20
REMARK                            x       y       z     vdW  Elec       q    Type
REMARK                         _______ _______ _______ _____ _____    ______ ____
ROOT
ATOM      1  C   UNL     1      44.802   6.089  11.831  0.00  0.00    +0.000 C 
ENDROOT
BRANCH   1   2
ATOM      2  C   UNL     1      44.799   7.623  11.766  0.00  0.00    +0.000 A 
ATOM      3  C   UNL     1      45.846   8.398  12.287  0.00  0.00    +0.000 A 
ATOM      4  C   UNL     1      45.862   9.793  12.124  0.00  0.00    +0.000 A 
ATOM      5  C   UNL     1      44.845  10.442  11.416  0.00  0.00    +0.000 A 
ATOM      6  C   UNL     1      43.805   9.689  10.890  0.00  0.00    +0.000 A 
ATOM      7  C   UNL     1      43.783   8.305  11.079  0.00  0.00    +0.000 A 
BRANCH   6   8
ATOM      8  O   UNL     1      42.764  10.136  10.126  0.00  0.00    +0.000 OA
BRANCH   8   9
ATOM      9  C   UNL     1      41.696  10.904  10.704  0.00  0.00    +0.000 C 
ATOM     10  C   UNL     1      40.346  10.212  10.922  0.00  0.00    +0.000 C 
ATOM     11  O   UNL     1      39.659  11.160  10.071  0.00  0.00    +0.000 OA
ATOM     12  C   UNL     1      40.921  11.742   9.676  0.00  0.00    +0.000 C 
ENDBRANCH   8   9
ENDBRANCH   6   8
ENDBRANCH   1   2
BRANCH   1  13
ATOM     13  O   UNL     1      46.149   5.601  11.615  0.00  0.00    +0.000 OA
ATOM     14  H   UNL     1      46.228   4.815  12.187  0.00  0.00    +0.000 HD
ENDBRANCH   1  13
BRANCH   1  15
ATOM     15  C   UNL     1      43.878   5.546  10.696  0.00  0.00    +0.000 C 
BRANCH  15  20
ATOM     16  C   UNL     1      46.427   2.671   7.501  0.00  0.00    +0.000 A 
ATOM     17  C   UNL     1      45.806   1.767   8.359  0.00  0.00    +0.000 A 
ATOM     18  C   UNL     1      44.987   2.258   9.381  0.00  0.00    +0.000 A 
ATOM     19  C   UNL     1      44.803   3.634   9.530  0.00  0.00    +0.000 A 
ATOM     20  N   UNL     1      43.982   4.078  10.580  0.00  0.00    +0.000 N 
ATOM     21  N   UNL     1      45.377   4.510   8.684  0.00  0.00    +0.000 NA
ATOM     22  C   UNL     1      46.183   4.020   7.706  0.00  0.00    +0.000 A 
ATOM     23  H   UNL     1      44.327   3.693  11.458  0.00  0.00    +0.000 HD
BRANCH  16  25
ATOM     24  N   UNL     1      47.428   3.069   5.313  0.00  0.00    +0.000 N 
ATOM     25  C   UNL     1      47.358   2.271   6.423  0.00  0.00    +0.000 C 
ATOM     26  O   UNL     1      48.061   1.275   6.525  0.00  0.00    +0.000 OA
ATOM     27  H   UNL     1      48.134   2.822   4.630  0.00  0.00    +0.000 HD
ATOM     28  H   UNL     1      47.055   4.006   5.281  0.00  0.00    +0.000 HD
ENDBRANCH  16  25
ENDBRANCH  15  20
ENDBRANCH   1  15
BRANCH   1  29
ATOM     29  C   UNL     1      44.355   5.515  13.204  0.00  0.00    +0.000 C 
BRANCH  29  30
ATOM     30  O   UNL     1      42.929   5.566  13.346  0.00  0.00    +0.000 OA
ATOM     31  H   UNL     1      42.607   4.660  13.197  0.00  0.00    +0.000 HD
ENDBRANCH  29  30
ENDBRANCH   1  29
TORSDOF 9
ENDMDL
MODEL 4
REMARK VINA RESULT:    -7.401      2.455      4.347
REMARK INTER + INTRA:         -11.815
REMARK INTER:                 -11.500
REMARK INTRA:                  -0.315
REMARK UNBOUND:                -0.953
REMARK  Name = 
REMARK  9 active torsions:
REMARK  status: ('A' for Active; 'I' for Inactive)
REMARK    1  A    between atoms: C_2  and  C_4
REMARK    2  A    between atoms: N_8  and  C_9
REMARK    3  A    between atoms: C_9  and  C_10
REMARK    4  A    between atoms: C_10  and  O_11
REMARK    5  A    between atoms: C_10  and  C_12
REMARK    6  A    between atoms: C_10  and  C_14
REMARK    7  A    between atoms: C_12  and  O_13
REMARK    8  A    between atoms: C_18  and  O_19
REMARK    9  A    between atoms: O_19  and  C_20
REMARK                            x       y       z     vdW  Elec       q    Type
REMARK                         _______ _______ _______ _____ _____    ______ ____
ROOT
ATOM      1  C   UNL     1      44.307   4.376  12.263  0.00  0.00    +0.000 C 
ENDROOT
BRANCH   1   2
ATOM      2  C   UNL     1      45.270   5.564  12.405  0.00  0.00    +0.000 A 
ATOM      3  C   UNL     1      46.663   5.411  12.355  0.00  0.00    +0.000 A 
ATOM      4  C   UNL     1      47.513   6.528  12.388  0.00  0.00    +0.000 A 
ATOM      5  C   UNL     1      46.991   7.824  12.447  0.00  0.00    +0.000 A 
ATOM      6  C   UNL     1      45.615   7.992  12.491  0.00  0.00    +0.000 A 
ATOM      7  C   UNL     1      44.775   6.875  12.484  0.00  0.00    +0.000 A 
BRANCH   6   8
ATOM      8  O   UNL     1      44.925   9.173  12.490  0.00  0.00    +0.000 OA
BRANCH   8   9
ATOM      9  C   UNL     1      44.736   9.919  11.278  0.00  0.00    +0.000 C 
ATOM     10  C   UNL     1      44.291  11.382  11.393  0.00  0.00    +0.000 C 
ATOM     11  O   UNL     1      43.087  11.134  10.630  0.00  0.00    +0.000 OA
ATOM     12  C   UNL     1      43.351   9.714  10.644  0.00  0.00    +0.000 C 
ENDBRANCH   8   9
ENDBRANCH   6   8
ENDBRANCH   1   2
BRANCH   1  13
ATOM     13  O   UNL     1      45.063   3.141  12.265  0.00  0.00    +0.000 OA
ATOM     14  H   UNL     1      45.030   2.825  13.186  0.00  0.00    +0.000 HD
ENDBRANCH   1  13
BRANCH   1  15
ATOM     15  C   UNL     1      43.557   4.510  10.901  0.00  0.00    +0.000 C 
BRANCH  15  20
ATOM     16  C   UNL     1      46.653   2.489   7.538  0.00  0.00    +0.000 A 
ATOM     17  C   UNL     1      46.726   3.858   7.296  0.00  0.00    +0.000 A 
ATOM     18  C   UNL     1      45.973   4.727   8.093  0.00  0.00    +0.000 A 
ATOM     19  C   UNL     1      45.166   4.219   9.112  0.00  0.00    +0.000 A 
ATOM     20  N   UNL     1      44.419   5.132   9.877  0.00  0.00    +0.000 N 
ATOM     21  N   UNL     1      45.115   2.899   9.370  0.00  0.00    +0.000 NA
ATOM     22  C   UNL     1      45.838   2.065   8.576  0.00  0.00    +0.000 A 
ATOM     23  H   UNL     1      43.848   5.700   9.253  0.00  0.00    +0.000 HD
BRANCH  16  25
ATOM     24  N   UNL     1      48.444   1.880   6.001  0.00  0.00    +0.000 N 
ATOM     25  C   UNL     1      47.356   1.473   6.724  0.00  0.00    +0.000 C 
ATOM     26  O   UNL     1      46.997   0.305   6.713  0.00  0.00    +0.000 OA
ATOM     27  H   UNL     1      48.960   1.151   5.521  0.00  0.00    +0.000 HD
ATOM     28  H   UNL     1      48.915   2.759   6.156  0.00  0.00    +0.000 HD
ENDBRANCH  16  25
ENDBRANCH  15  20
ENDBRANCH   1  15
BRANCH   1  29
ATOM     29  C   UNL     1      43.284   4.252  13.427  0.00  0.00    +0.000 C 
BRANCH  29  30
ATOM     30  O   UNL     1      42.426   5.400  13.485  0.00  0.00    +0.000 OA
ATOM     31  H   UNL     1      42.448   5.803  12.600  0.00  0.00    +0.000 HD
ENDBRANCH  29  30
ENDBRANCH   1  29
TORSDOF 9
ENDMDL
MODEL 5
REMARK VINA RESULT:    -7.103      2.974      7.967
REMARK INTER + INTRA:         -11.378
REMARK INTER:                 -10.862
REMARK INTRA:                  -0.516
REMARK UNBOUND:                -0.953
REMARK  Name = 
REMARK  9 active torsions:
REMARK  status: ('A' for Active; 'I' for Inactive)
REMARK    1  A    between atoms: C_2  and  C_4
REMARK    2  A    between atoms: N_8  and  C_9
REMARK    3  A    between atoms: C_9  and  C_10
REMARK    4  A    between atoms: C_10  and  O_11
REMARK    5  A    between atoms: C_10  and  C_12
REMARK    6  A    between atoms: C_10  and  C_14
REMARK    7  A    between atoms: C_12  and  O_13
REMARK    8  A    between atoms: C_18  and  O_19
REMARK    9  A    between atoms: O_19  and  C_20
REMARK                            x       y       z     vdW  Elec       q    Type
REMARK                         _______ _______ _______ _____ _____    ______ ____
ROOT
ATOM      1  C   UNL     1      45.651   6.095  11.631  0.00  0.00    +0.000 C 
ENDROOT
BRANCH   1   2
ATOM      2  C   UNL     1      45.253   4.860  10.810  0.00  0.00    +0.000 A 
ATOM      3  C   UNL     1      44.442   3.841  11.331  0.00  0.00    +0.000 A 
ATOM      4  C   UNL     1      44.014   2.775  10.524  0.00  0.00    +0.000 A 
ATOM      5  C   UNL     1      44.366   2.714   9.171  0.00  0.00    +0.000 A 
ATOM      6  C   UNL     1      45.164   3.718   8.639  0.00  0.00    +0.000 A 
ATOM      7  C   UNL     1      45.607   4.762   9.455  0.00  0.00    +0.000 A 
BRANCH   6   8
ATOM      8  O   UNL     1      45.557   3.859   7.338  0.00  0.00    +0.000 OA
BRANCH   8   9
ATOM      9  C   UNL     1      46.872   3.463   6.914  0.00  0.00    +0.000 C 
ATOM     10  C   UNL     1      47.037   2.912   5.494  0.00  0.00    +0.000 C 
ATOM     11  O   UNL     1      47.552   1.651   5.981  0.00  0.00    +0.000 OA
ATOM     12  C   UNL     1      47.247   2.035   7.341  0.00  0.00    +0.000 C 
ENDBRANCH   8   9
ENDBRANCH   6   8
ENDBRANCH   1   2
BRANCH   1  13
ATOM     13  O   UNL     1      46.980   6.521  11.247  0.00  0.00    +0.000 OA
ATOM     14  H   UNL     1      46.872   7.435  10.928  0.00  0.00    +0.000 HD
ENDBRANCH   1  13
BRANCH   1  15
ATOM     15  C   UNL     1      45.661   5.699  13.141  0.00  0.00    +0.000 C 
BRANCH  15  20
ATOM     16  C   UNL     1      48.504   4.100  16.927  0.00  0.00    +0.000 A 
ATOM     17  C   UNL     1      49.022   5.353  16.611  0.00  0.00    +0.000 A 
ATOM     18  C   UNL     1      48.429   6.090  15.581  0.00  0.00    +0.000 A 
ATOM     19  C   UNL     1      47.336   5.569  14.888  0.00  0.00    +0.000 A 
ATOM     20  N   UNL     1      46.782   6.343  13.853  0.00  0.00    +0.000 N 
ATOM     21  N   UNL     1      46.811   4.371  15.209  0.00  0.00    +0.000 NA
ATOM     22  C   UNL     1      47.408   3.659  16.201  0.00  0.00    +0.000 A 
ATOM     23  H   UNL     1      47.515   6.579  13.186  0.00  0.00    +0.000 HD
BRANCH  16  25
ATOM     24  N   UNL     1      48.434   3.113  19.156  0.00  0.00    +0.000 N 
ATOM     25  C   UNL     1      49.084   3.208  17.955  0.00  0.00    +0.000 C 
ATOM     26  O   UNL     1      50.095   2.557  17.736  0.00  0.00    +0.000 OA
ATOM     27  H   UNL     1      48.801   2.432  19.810  0.00  0.00    +0.000 HD
ATOM     28  H   UNL     1      47.489   3.437  19.301  0.00  0.00    +0.000 HD
ENDBRANCH  16  25
ENDBRANCH  15  20
ENDBRANCH   1  15
BRANCH   1  29
ATOM     29  C   UNL     1      44.727   7.324  11.406  0.00  0.00    +0.000 C 
BRANCH  29  30
ATOM     30  O   UNL     1      43.355   6.925  11.285  0.00  0.00    +0.000 OA
ATOM     31  H   UNL     1      42.912   7.217  12.101  0.00  0.00    +0.000 HD
ENDBRANCH  29  30
ENDBRANCH   1  29
TORSDOF 9
ENDMDL
MODEL 6
REMARK VINA RESULT:    -6.837      3.149      4.464
REMARK INTER + INTRA:         -10.988
REMARK INTER:                 -10.103
REMARK INTRA:                  -0.884
REMARK UNBOUND:                -0.953
REMARK  Name = 
REMARK  9 active torsions:
REMARK  status: ('A' for Active; 'I' for Inactive)
REMARK    1  A    between atoms: C_2  and  C_4
REMARK    2  A    between atoms: N_8  and  C_9
REMARK    3  A    between atoms: C_9  and  C_10
REMARK    4  A    between atoms: C_10  and  O_11
REMARK    5  A    between atoms: C_10  and  C_12
REMARK    6  A    between atoms: C_10  and  C_14
REMARK    7  A    between atoms: C_12  and  O_13
REMARK    8  A    between atoms: C_18  and  O_19
REMARK    9  A    between atoms: O_19  and  C_20
REMARK                            x       y       z     vdW  Elec       q    Type
REMARK                         _______ _______ _______ _____ _____    ______ ____
ROOT
ATOM      1  C   UNL     1      44.911   6.143  11.798  0.00  0.00    +0.000 C 
ENDROOT
BRANCH   1   2
ATOM      2  C   UNL     1      45.094   7.660  11.648  0.00  0.00    +0.000 A 
ATOM      3  C   UNL     1      44.073   8.495  11.169  0.00  0.00    +0.000 A 
ATOM      4  C   UNL     1      44.236   9.889  11.138  0.00  0.00    +0.000 A 
ATOM      5  C   UNL     1      45.412  10.483  11.607  0.00  0.00    +0.000 A 
ATOM      6  C   UNL     1      46.429   9.672  12.090  0.00  0.00    +0.000 A 
ATOM      7  C   UNL     1      46.270   8.284  12.094  0.00  0.00    +0.000 A 
BRANCH   6   8
ATOM      8  O   UNL     1      47.615  10.070  12.639  0.00  0.00    +0.000 OA
BRANCH   8   9
ATOM      9  C   UNL     1      48.242  11.299  12.238  0.00  0.00    +0.000 C 
ATOM     10  C   UNL     1      48.924  11.347  10.866  0.00  0.00    +0.000 C 
ATOM     11  O   UNL     1      50.206  11.672  11.453  0.00  0.00    +0.000 OA
ATOM     12  C   UNL     1      49.672  11.459  12.778  0.00  0.00    +0.000 C 
ENDBRANCH   8   9
ENDBRANCH   6   8
ENDBRANCH   1   2
BRANCH   1  13
ATOM     13  O   UNL     1      46.201   5.492  11.704  0.00  0.00    +0.000 OA
ATOM     14  H   UNL     1      46.706   6.021  11.060  0.00  0.00    +0.000 HD
ENDBRANCH   1  13
BRANCH   1  15
ATOM     15  C   UNL     1      44.001   5.639  10.634  0.00  0.00    +0.000 C 
BRANCH  15  20
ATOM     16  C   UNL     1      46.570   2.729   7.487  0.00  0.00    +0.000 A 
ATOM     17  C   UNL     1      45.896   1.834   8.314  0.00  0.00    +0.000 A 
ATOM     18  C   UNL     1      45.059   2.336   9.316  0.00  0.00    +0.000 A 
ATOM     19  C   UNL     1      44.910   3.714   9.475  0.00  0.00    +0.000 A 
ATOM     20  N   UNL     1      44.068   4.170  10.504  0.00  0.00    +0.000 N 
ATOM     21  N   UNL     1      45.535   4.584   8.659  0.00  0.00    +0.000 NA
ATOM     22  C   UNL     1      46.358   4.082   7.701  0.00  0.00    +0.000 A 
ATOM     23  H   UNL     1      44.373   3.765  11.388  0.00  0.00    +0.000 HD
BRANCH  16  25
ATOM     24  N   UNL     1      47.615   3.097   5.315  0.00  0.00    +0.000 N 
ATOM     25  C   UNL     1      47.524   2.315   6.434  0.00  0.00    +0.000 C 
ATOM     26  O   UNL     1      48.226   1.323   6.565  0.00  0.00    +0.000 OA
ATOM     27  H   UNL     1      48.335   2.842   4.649  0.00  0.00    +0.000 HD
ATOM     28  H   UNL     1      47.241   4.033   5.261  0.00  0.00    +0.000 HD
ENDBRANCH  16  25
ENDBRANCH  15  20
ENDBRANCH   1  15
BRANCH   1  29
ATOM     29  C   UNL     1      44.315   5.713  13.168  0.00  0.00    +0.000 C 
BRANCH  29  30
ATOM     30  O   UNL     1      42.885   5.613  13.101  0.00  0.00    +0.000 OA
ATOM     31  H   UNL     1      42.688   4.694  12.847  0.00  0.00    +0.000 HD
ENDBRANCH  29  30
ENDBRANCH   1  29
TORSDOF 9
ENDMDL
MODEL 7
REMARK VINA RESULT:    -6.665      3.427      7.434
REMARK INTER + INTRA:         -10.736
REMARK INTER:                 -10.031
REMARK INTRA:                  -0.704
REMARK UNBOUND:                -0.953
REMARK  Name = 
REMARK  9 active torsions:
REMARK  status: ('A' for Active; 'I' for Inactive)
REMARK    1  A    between atoms: C_2  and  C_4
REMARK    2  A    between atoms: N_8  and  C_9
REMARK    3  A    between atoms: C_9  and  C_10
REMARK    4  A    between atoms: C_10  and  O_11
REMARK    5  A    between atoms: C_10  and  C_12
REMARK    6  A    between atoms: C_10  and  C_14
REMARK    7  A    between atoms: C_12  and  O_13
REMARK    8  A    between atoms: C_18  and  O_19
REMARK    9  A    between atoms: O_19  and  C_20
REMARK                            x       y       z     vdW  Elec       q    Type
REMARK                         _______ _______ _______ _____ _____    ______ ____
ROOT
ATOM      1  C   UNL     1      44.148   5.510  11.268  0.00  0.00    +0.000 C 
ENDROOT
BRANCH   1   2
ATOM      2  C   UNL     1      44.445   4.217  10.494  0.00  0.00    +0.000 A 
ATOM      3  C   UNL     1      43.894   2.980  10.860  0.00  0.00    +0.000 A 
ATOM      4  C   UNL     1      44.103   1.836  10.075  0.00  0.00    +0.000 A 
ATOM      5  C   UNL     1      44.848   1.905   8.893  0.00  0.00    +0.000 A 
ATOM      6  C   UNL     1      45.395   3.122   8.514  0.00  0.00    +0.000 A 
ATOM      7  C   UNL     1      45.203   4.252   9.314  0.00  0.00    +0.000 A 
BRANCH   6   8
ATOM      8  O   UNL     1      46.095   3.395   7.372  0.00  0.00    +0.000 OA
BRANCH   8   9
ATOM      9  C   UNL     1      46.537   2.339   6.504  0.00  0.00    +0.000 C 
ATOM     10  C   UNL     1      47.725   1.483   6.956  0.00  0.00    +0.000 C 
ATOM     11  O   UNL     1      48.503   1.848   5.792  0.00  0.00    +0.000 OA
ATOM     12  C   UNL     1      47.501   2.814   5.406  0.00  0.00    +0.000 C 
ENDBRANCH   8   9
ENDBRANCH   6   8
ENDBRANCH   1   2
BRANCH   1  13
ATOM     13  O   UNL     1      42.879   6.052  10.830  0.00  0.00    +0.000 OA
ATOM     14  H   UNL     1      42.217   5.380  11.078  0.00  0.00    +0.000 HD
ENDBRANCH   1  13
BRANCH   1  15
ATOM     15  C   UNL     1      45.276   6.542  10.953  0.00  0.00    +0.000 C 
BRANCH  15  20
ATOM     16  C   UNL     1      49.291   7.898  13.601  0.00  0.00    +0.000 A 
ATOM     17  C   UNL     1      48.262   8.691  14.103  0.00  0.00    +0.000 A 
ATOM     18  C   UNL     1      46.975   8.544  13.574  0.00  0.00    +0.000 A 
ATOM     19  C   UNL     1      46.738   7.615  12.560  0.00  0.00    +0.000 A 
ATOM     20  N   UNL     1      45.431   7.514  12.053  0.00  0.00    +0.000 N 
ATOM     21  N   UNL     1      47.723   6.825  12.093  0.00  0.00    +0.000 NA
ATOM     22  C   UNL     1      48.971   6.990  12.604  0.00  0.00    +0.000 A 
ATOM     23  H   UNL     1      45.124   8.433  11.739  0.00  0.00    +0.000 HD
BRANCH  16  25
ATOM     24  N   UNL     1      51.088   7.258  15.119  0.00  0.00    +0.000 N 
ATOM     25  C   UNL     1      50.699   8.007  14.042  0.00  0.00    +0.000 C 
ATOM     26  O   UNL     1      51.498   8.721  13.453  0.00  0.00    +0.000 OA
ATOM     27  H   UNL     1      52.075   7.283  15.347  0.00  0.00    +0.000 HD
ATOM     28  H   UNL     1      50.544   6.491  15.486  0.00  0.00    +0.000 HD
ENDBRANCH  16  25
ENDBRANCH  15  20
ENDBRANCH   1  15
BRANCH   1  29
ATOM     29  C   UNL     1      44.020   5.309  12.803  0.00  0.00    +0.000 C 
BRANCH  29  30
ATOM     30  O   UNL     1      42.796   5.870  13.298  0.00  0.00    +0.000 OA
ATOM     31  H   UNL     1      42.791   5.712  14.258  0.00  0.00    +0.000 HD
ENDBRANCH  29  30
ENDBRANCH   1  29
TORSDOF 9
ENDMDL
MODEL 8
REMARK VINA RESULT:    -6.553      3.698      6.482
REMARK INTER + INTRA:         -10.571
REMARK INTER:                  -9.817
REMARK INTRA:                  -0.754
REMARK UNBOUND:                -0.953
REMARK  Name = 
REMARK  9 active torsions:
REMARK  status: ('A' for Active; 'I' for Inactive)
REMARK    1  A    between atoms: C_2  and  C_4
REMARK    2  A    between atoms: N_8  and  C_9
REMARK    3  A    between atoms: C_9  and  C_10
REMARK    4  A    between atoms: C_10  and  O_11
REMARK    5  A    between atoms: C_10  and  C_12
REMARK    6  A    between atoms: C_10  and  C_14
REMARK    7  A    between atoms: C_12  and  O_13
REMARK    8  A    between atoms: C_18  and  O_19
REMARK    9  A    between atoms: O_19  and  C_20
REMARK                            x       y       z     vdW  Elec       q    Type
REMARK                         _______ _______ _______ _____ _____    ______ ____
ROOT
ATOM      1  C   UNL     1      47.894   3.715  17.298  0.00  0.00    +0.000 C 
ENDROOT
BRANCH   1   2
ATOM      2  C   UNL     1      49.347   3.284  17.543  0.00  0.00    +0.000 A 
ATOM      3  C   UNL     1      49.845   2.046  17.112  0.00  0.00    +0.000 A 
ATOM      4  C   UNL     1      51.203   1.722  17.262  0.00  0.00    +0.000 A 
ATOM      5  C   UNL     1      52.099   2.637  17.825  0.00  0.00    +0.000 A 
ATOM      6  C   UNL     1      51.623   3.868  18.251  0.00  0.00    +0.000 A 
ATOM      7  C   UNL     1      50.266   4.173  18.121  0.00  0.00    +0.000 A 
BRANCH   6   8
ATOM      8  O   UNL     1      52.352   4.904  18.765  0.00  0.00    +0.000 OA
BRANCH   8   9
ATOM      9  C   UNL     1      53.127   5.761  17.910  0.00  0.00    +0.000 C 
ATOM     10  C   UNL     1      54.526   6.174  18.380  0.00  0.00    +0.000 C 
ATOM     11  O   UNL     1      54.185   7.579  18.345  0.00  0.00    +0.000 OA
ATOM     12  C   UNL     1      52.802   7.252  18.085  0.00  0.00    +0.000 C 
ENDBRANCH   8   9
ENDBRANCH   6   8
ENDBRANCH   1   2
BRANCH   1  13
ATOM     13  O   UNL     1      47.006   2.886  18.087  0.00  0.00    +0.000 OA
ATOM     14  H   UNL     1      46.866   2.084  17.551  0.00  0.00    +0.000 HD
ENDBRANCH   1  13
BRANCH   1  15
ATOM     15  C   UNL     1      47.568   3.511  15.785  0.00  0.00    +0.000 C 
BRANCH  15  20
ATOM     16  C   UNL     1      44.919   4.205  11.605  0.00  0.00    +0.000 A 
ATOM     17  C   UNL     1      44.986   5.469  12.186  0.00  0.00    +0.000 A 
ATOM     18  C   UNL     1      45.686   5.626  13.387  0.00  0.00    +0.000 A 
ATOM     19  C   UNL     1      46.303   4.526  13.985  0.00  0.00    +0.000 A 
ATOM     20  N   UNL     1      46.984   4.732  15.197  0.00  0.00    +0.000 N 
ATOM     21  N   UNL     1      46.267   3.308  13.412  0.00  0.00    +0.000 NA
ATOM     22  C   UNL     1      45.570   3.167  12.254  0.00  0.00    +0.000 A 
ATOM     23  H   UNL     1      46.347   5.160  15.867  0.00  0.00    +0.000 HD
BRANCH  16  25
ATOM     24  N   UNL     1      43.946   4.938   9.493  0.00  0.00    +0.000 N 
ATOM     25  C   UNL     1      44.160   3.909  10.370  0.00  0.00    +0.000 C 
ATOM     26  O   UNL     1      43.756   2.781  10.126  0.00  0.00    +0.000 OA
ATOM     27  H   UNL     1      43.500   4.691   8.617  0.00  0.00    +0.000 HD
ATOM     28  H   UNL     1      44.449   5.812   9.531  0.00  0.00    +0.000 HD
ENDBRANCH  16  25
ENDBRANCH  15  20
ENDBRANCH   1  15
BRANCH   1  29
ATOM     29  C   UNL     1      47.593   5.181  17.718  0.00  0.00    +0.000 C 
BRANCH  29  30
ATOM     30  O   UNL     1      46.361   5.267  18.449  0.00  0.00    +0.000 OA
ATOM     31  H   UNL     1      46.371   4.532  19.087  0.00  0.00    +0.000 HD
ENDBRANCH  29  30
ENDBRANCH   1  29
TORSDOF 9
ENDMDL
MODEL 9
REMARK VINA RESULT:    -6.489      3.464      8.217
REMARK INTER + INTRA:         -10.476
REMARK INTER:                 -10.037
REMARK INTRA:                  -0.439
REMARK UNBOUND:                -0.953
REMARK  Name = 
REMARK  9 active torsions:
REMARK  status: ('A' for Active; 'I' for Inactive)
REMARK    1  A    between atoms: C_2  and  C_4
REMARK    2  A    between atoms: N_8  and  C_9
REMARK    3  A    between atoms: C_9  and  C_10
REMARK    4  A    between atoms: C_10  and  O_11
REMARK    5  A    between atoms: C_10  and  C_12
REMARK    6  A    between atoms: C_10  and  C_14
REMARK    7  A    between atoms: C_12  and  O_13
REMARK    8  A    between atoms: C_18  and  O_19
REMARK    9  A    between atoms: O_19  and  C_20
REMARK                            x       y       z     vdW  Elec       q    Type
REMARK                         _______ _______ _______ _____ _____    ______ ____
ROOT
ATOM      1  C   UNL     1      46.581   6.577  12.603  0.00  0.00    +0.000 C 
ENDROOT
BRANCH   1   2
ATOM      2  C   UNL     1      45.399   5.621  12.389  0.00  0.00    +0.000 A 
ATOM      3  C   UNL     1      44.111   5.901  12.868  0.00  0.00    +0.000 A 
ATOM      4  C   UNL     1      43.030   5.055  12.571  0.00  0.00    +0.000 A 
ATOM      5  C   UNL     1      43.207   3.923  11.768  0.00  0.00    +0.000 A 
ATOM      6  C   UNL     1      44.474   3.635  11.282  0.00  0.00    +0.000 A 
ATOM      7  C   UNL     1      45.549   4.467  11.603  0.00  0.00    +0.000 A 
BRANCH   6   8
ATOM      8  O   UNL     1      44.826   2.617  10.441  0.00  0.00    +0.000 OA
BRANCH   8   9
ATOM      9  C   UNL     1      44.652   2.735   9.020  0.00  0.00    +0.000 C 
ATOM     10  C   UNL     1      45.885   2.568   8.126  0.00  0.00    +0.000 C 
ATOM     11  O   UNL     1      45.734   3.896   7.573  0.00  0.00    +0.000 OA
ATOM     12  C   UNL     1      44.682   4.187   8.520  0.00  0.00    +0.000 C 
ENDBRANCH   8   9
ENDBRANCH   6   8
ENDBRANCH   1   2
BRANCH   1  13
ATOM     13  O   UNL     1      47.227   6.836  11.332  0.00  0.00    +0.000 OA
ATOM     14  H   UNL     1      46.535   6.688  10.662  0.00  0.00    +0.000 HD
ENDBRANCH   1  13
BRANCH   1  15
ATOM     15  C   UNL     1      47.604   5.890  13.561  0.00  0.00    +0.000 C 
BRANCH  15  20
ATOM     16  C   UNL     1      48.734   4.584  18.250  0.00  0.00    +0.000 A 
ATOM     17  C   UNL     1      47.542   3.915  17.983  0.00  0.00    +0.000 A 
ATOM     18  C   UNL     1      46.953   4.060  16.722  0.00  0.00    +0.000 A 
ATOM     19  C   UNL     1      47.559   4.863  15.755  0.00  0.00    +0.000 A 
ATOM     20  N   UNL     1      46.923   4.987  14.509  0.00  0.00    +0.000 N 
ATOM     21  N   UNL     1      48.727   5.488  15.998  0.00  0.00    +0.000 NA
ATOM     22  C   UNL     1      49.279   5.352  17.233  0.00  0.00    +0.000 A 
ATOM     23  H   UNL     1      45.967   5.307  14.654  0.00  0.00    +0.000 HD
BRANCH  16  25
ATOM     24  N   UNL     1      48.752   3.972  20.610  0.00  0.00    +0.000 N 
ATOM     25  C   UNL     1      49.415   4.552  19.563  0.00  0.00    +0.000 C 
ATOM     26  O   UNL     1      50.541   5.007  19.708  0.00  0.00    +0.000 OA
ATOM     27  H   UNL     1      49.272   3.885  21.475  0.00  0.00    +0.000 HD
ATOM     28  H   UNL     1      47.939   3.385  20.494  0.00  0.00    +0.000 HD
ENDBRANCH  16  25
ENDBRANCH  15  20
ENDBRANCH   1  15
BRANCH   1  29
ATOM     29  C   UNL     1      46.173   7.968  13.164  0.00  0.00    +0.000 C 
BRANCH  29  30
ATOM     30  O   UNL     1      46.971   8.320  14.303  0.00  0.00    +0.000 OA
ATOM     31  H   UNL     1      47.364   9.188  14.103  0.00  0.00    +0.000 HD
ENDBRANCH  29  30
ENDBRANCH   1  29
TORSDOF 9
ENDMDL
