MODEL 1
REMARK VINA RESULT:    -8.124      0.000      0.000
REMARK INTER + INTRA:         -12.818
REMARK INTER:                 -11.685
REMARK INTRA:                  -1.132
REMARK UNBOUND:                -1.132
REMARK  Name = 
REMARK  9 active torsions:
REMARK  status: ('A' for Active; 'I' for Inactive)
REMARK    1  A    between atoms: C_1  and  C_2
REMARK    2  A    between atoms: C_6  and  C_7
REMARK    3  A    between atoms: C_7  and  N_8
REMARK    4  A    between atoms: N_8  and  C_9
REMARK    5  A    between atoms: C_9  and  C_10
REMARK    6  A    between atoms: C_13  and  C_14
REMARK    7  A    between atoms: C_14  and  N_15
REMARK    8  A    between atoms: C_16  and  C_18
REMARK    9  A    between atoms: C_25  and  O_26
REMARK                            x       y       z     vdW  Elec       q    Type
REMARK                         _______ _______ _______ _____ _____    ______ ____
ROOT
ATOM      1  C   UNL     1      44.637   5.590  11.749  0.00  0.00    +0.000 A 
ATOM      2  C   UNL     1      44.938   4.983  12.977  0.00  0.00    +0.000 A 
ATOM      3  C   UNL     1      46.089   5.340  13.685  0.00  0.00    +0.000 A 
ATOM      4  C   UNL     1      46.960   6.316  13.183  0.00  0.00    +0.000 A 
ATOM      5  C   UNL     1      46.686   6.885  11.932  0.00  0.00    +0.000 A 
ATOM      6  C   UNL     1      45.534   6.530  11.224  0.00  0.00    +0.000 A 
ENDROOT
BRANCH   1   7
ATOM      7  C   UNL     1      43.354   5.259  11.020  0.00  0.00    +0.000 C 
BRANCH   7   8
ATOM      8  N   UNL     1      43.576   4.606   9.729  0.00  0.00    +0.000 NA
ATOM      9  H   UNL     1      42.685   4.535   9.236  0.00  0.00    +0.000 HD
BRANCH   8  10
ATOM     10  C   UNL     1      44.081   3.232   9.885  0.00  0.00    +0.000 C 
BRANCH  10  16
ATOM     11  C   UNL     1      46.852  -0.107   7.658  0.00  0.00    +0.000 C 
ATOM     12  C   UNL     1      46.476   1.337   7.797  0.00  0.00    +0.000 A 
ATOM     13  C   UNL     1      47.095   2.314   7.024  0.00  0.00    +0.000 A 
ATOM     14  C   UNL     1      46.716   3.640   7.192  0.00  0.00    +0.000 A 
ATOM     15  C   UNL     1      45.736   3.955   8.126  0.00  0.00    +0.000 A 
ATOM     16  C   UNL     1      45.167   2.927   8.874  0.00  0.00    +0.000 A 
ATOM     17  N   UNL     1      45.518   1.625   8.710  0.00  0.00    +0.000 NA
ENDBRANCH  10  16
ENDBRANCH   8  10
ENDBRANCH   7   8
ENDBRANCH   1   7
BRANCH   4  18
ATOM     18  C   UNL     1      48.189   6.723  13.955  0.00  0.00    +0.000 C 
BRANCH  18  19
ATOM     19  N   UNL     1      48.057   6.374  15.345  0.00  0.00    +0.000 N 
ATOM     20  C   UNL     1      49.145   6.250  16.169  0.00  0.00    +0.000 C 
ATOM     21  O   UNL     1      50.298   6.288  15.748  0.00  0.00    +0.000 OA
ATOM     22  H   UNL     1      47.143   6.509  15.759  0.00  0.00    +0.000 HD
BRANCH  20  23
ATOM     23  C   UNL     1      48.849   6.025  17.589  0.00  0.00    +0.000 A 
ATOM     24  C   UNL     1      49.170   4.812  18.184  0.00  0.00    +0.000 A 
ATOM     25  S   UNL     1      48.734   4.730  19.830  0.00  0.00    +0.000 S 
ATOM     26  C   UNL     1      48.145   6.323  19.807  0.00  0.00    +0.000 A 
ATOM     27  N   UNL     1      47.642   6.878  20.925  0.00  0.00    +0.000 NA
ATOM     28  C   UNL     1      47.230   8.135  20.738  0.00  0.00    +0.000 A 
ATOM     29  N   UNL     1      47.268   8.844  19.603  0.00  0.00    +0.000 NA
ATOM     30  C   UNL     1      47.778   8.234  18.533  0.00  0.00    +0.000 A 
ATOM     31  C   UNL     1      48.251   6.923  18.560  0.00  0.00    +0.000 A 
BRANCH  30  32
ATOM     32  O   UNL     1      47.769   9.004  17.410  0.00  0.00    +0.000 OA
ATOM     33  H   UNL     1      47.848   9.897  17.796  0.00  0.00    +0.000 HD
ENDBRANCH  30  32
ENDBRANCH  20  23
ENDBRANCH  18  19
ENDBRANCH   4  18
TORSDOF 8
ENDMDL
MODEL 2
REMARK VINA RESULT:    -8.085      2.062      2.458
REMARK INTER + INTRA:         -12.762
REMARK INTER:                 -11.881
REMARK INTRA:                  -0.881
REMARK UNBOUND:                -1.132
REMARK  Name = 
REMARK  9 active torsions:
REMARK  status: ('A' for Active; 'I' for Inactive)
REMARK    1  A    between atoms: C_1  and  C_2
REMARK    2  A    between atoms: C_6  and  C_7
REMARK    3  A    between atoms: C_7  and  N_8
REMARK    4  A    between atoms: N_8  and  C_9
REMARK    5  A    between atoms: C_9  and  C_10
REMARK    6  A    between atoms: C_13  and  C_14
REMARK    7  A    between atoms: C_14  and  N_15
REMARK    8  A    between atoms: C_16  and  C_18
REMARK    9  A    between atoms: C_25  and  O_26
REMARK                            x       y       z     vdW  Elec       q    Type
REMARK                         _______ _______ _______ _____ _____    ______ ____
ROOT
ATOM      1  C   UNL     1      44.641   6.048  11.568  0.00  0.00    +0.000 A 
ATOM      2  C   UNL     1      45.642   5.203  12.068  0.00  0.00    +0.000 A 
ATOM      3  C   UNL     1      46.842   5.729  12.555  0.00  0.00    +0.000 A 
ATOM      4  C   UNL     1      47.063   7.113  12.558  0.00  0.00    +0.000 A 
ATOM      5  C   UNL     1      46.084   7.953  12.013  0.00  0.00    +0.000 A 
ATOM      6  C   UNL     1      44.883   7.428  11.527  0.00  0.00    +0.000 A 
ENDROOT
BRANCH   1   7
ATOM      7  C   UNL     1      43.314   5.485  11.112  0.00  0.00    +0.000 C 
BRANCH   7   8
ATOM      8  N   UNL     1      43.406   4.736   9.858  0.00  0.00    +0.000 NA
ATOM      9  H   UNL     1      42.464   4.579   9.497  0.00  0.00    +0.000 HD
BRANCH   8  10
ATOM     10  C   UNL     1      44.008   3.408  10.052  0.00  0.00    +0.000 C 
BRANCH  10  16
ATOM     11  C   UNL     1      46.763   0.146   7.692  0.00  0.00    +0.000 C 
ATOM     12  C   UNL     1      46.387   1.584   7.882  0.00  0.00    +0.000 A 
ATOM     13  C   UNL     1      46.998   2.587   7.136  0.00  0.00    +0.000 A 
ATOM     14  C   UNL     1      46.618   3.907   7.350  0.00  0.00    +0.000 A 
ATOM     15  C   UNL     1      45.647   4.190   8.303  0.00  0.00    +0.000 A 
ATOM     16  C   UNL     1      45.086   3.137   9.022  0.00  0.00    +0.000 A 
ATOM     17  N   UNL     1      45.437   1.842   8.813  0.00  0.00    +0.000 NA
ENDBRANCH  10  16
ENDBRANCH   8  10
ENDBRANCH   7   8
ENDBRANCH   1   7
BRANCH   4  18
ATOM     18  C   UNL     1      48.345   7.686  13.106  0.00  0.00    +0.000 C 
BRANCH  18  19
ATOM     19  N   UNL     1      48.820   6.906  14.218  0.00  0.00    +0.000 N 
ATOM     20  C   UNL     1      48.765   7.368  15.506  0.00  0.00    +0.000 C 
ATOM     21  O   UNL     1      48.442   8.522  15.779  0.00  0.00    +0.000 OA
ATOM     22  H   UNL     1      48.921   5.911  14.059  0.00  0.00    +0.000 HD
BRANCH  20  23
ATOM     23  C   UNL     1      49.159   6.411  16.547  0.00  0.00    +0.000 A 
ATOM     24  C   UNL     1      50.270   6.661  17.340  0.00  0.00    +0.000 A 
ATOM     25  S   UNL     1      50.581   5.430  18.477  0.00  0.00    +0.000 S 
ATOM     26  C   UNL     1      49.219   4.549  17.974  0.00  0.00    +0.000 A 
ATOM     27  N   UNL     1      48.902   3.385  18.570  0.00  0.00    +0.000 NA
ATOM     28  C   UNL     1      47.802   2.825  18.061  0.00  0.00    +0.000 A 
ATOM     29  N   UNL     1      47.036   3.292  17.067  0.00  0.00    +0.000 NA
ATOM     30  C   UNL     1      47.406   4.450  16.519  0.00  0.00    +0.000 A 
ATOM     31  C   UNL     1      48.530   5.160  16.934  0.00  0.00    +0.000 A 
BRANCH  30  32
ATOM     32  O   UNL     1      46.595   4.856  15.503  0.00  0.00    +0.000 OA
ATOM     33  H   UNL     1      45.757   5.004  15.981  0.00  0.00    +0.000 HD
ENDBRANCH  30  32
ENDBRANCH  20  23
ENDBRANCH  18  19
ENDBRANCH   4  18
TORSDOF 8
ENDMDL
MODEL 3
REMARK VINA RESULT:    -8.047      1.391      1.946
REMARK INTER + INTRA:         -12.707
REMARK INTER:                 -11.500
REMARK INTRA:                  -1.207
REMARK UNBOUND:                -1.132
REMARK  Name = 
REMARK  9 active torsions:
REMARK  status: ('A' for Active; 'I' for Inactive)
REMARK    1  A    between atoms: C_1  and  C_2
REMARK    2  A    between atoms: C_6  and  C_7
REMARK    3  A    between atoms: C_7  and  N_8
REMARK    4  A    between atoms: N_8  and  C_9
REMARK    5  A    between atoms: C_9  and  C_10
REMARK    6  A    between atoms: C_13  and  C_14
REMARK    7  A    between atoms: C_14  and  N_15
REMARK    8  A    between atoms: C_16  and  C_18
REMARK    9  A    between atoms: C_25  and  O_26
REMARK                            x       y       z     vdW  Elec       q    Type
REMARK                         _______ _______ _______ _____ _____    ______ ____
ROOT
ATOM      1  C   UNL     1      44.635   5.609  11.851  0.00  0.00    +0.000 A 
ATOM      2  C   UNL     1      45.517   6.581  11.358  0.00  0.00    +0.000 A 
ATOM      3  C   UNL     1      46.731   6.836  12.003  0.00  0.00    +0.000 A 
ATOM      4  C   UNL     1      47.089   6.119  13.153  0.00  0.00    +0.000 A 
ATOM      5  C   UNL     1      46.185   5.184  13.675  0.00  0.00    +0.000 A 
ATOM      6  C   UNL     1      44.973   4.928  13.028  0.00  0.00    +0.000 A 
ENDROOT
BRANCH   1   7
ATOM      7  C   UNL     1      43.359   5.280  11.110  0.00  0.00    +0.000 C 
BRANCH   7   8
ATOM      8  N   UNL     1      43.593   4.708   9.783  0.00  0.00    +0.000 NA
ATOM      9  H   UNL     1      42.717   4.715   9.260  0.00  0.00    +0.000 HD
BRANCH   8  10
ATOM     10  C   UNL     1      44.029   3.304   9.857  0.00  0.00    +0.000 C 
BRANCH  10  16
ATOM     11  C   UNL     1      46.848   0.009   7.624  0.00  0.00    +0.000 C 
ATOM     12  C   UNL     1      46.469   1.450   7.783  0.00  0.00    +0.000 A 
ATOM     13  C   UNL     1      47.104   2.442   7.043  0.00  0.00    +0.000 A 
ATOM     14  C   UNL     1      46.720   3.765   7.229  0.00  0.00    +0.000 A 
ATOM     15  C   UNL     1      45.720   4.062   8.148  0.00  0.00    +0.000 A 
ATOM     16  C   UNL     1      45.137   3.019   8.863  0.00  0.00    +0.000 A 
ATOM     17  N   UNL     1      45.491   1.720   8.681  0.00  0.00    +0.000 NA
ENDBRANCH  10  16
ENDBRANCH   8  10
ENDBRANCH   7   8
ENDBRANCH   1   7
BRANCH   4  18
ATOM     18  C   UNL     1      48.408   6.372  13.838  0.00  0.00    +0.000 C 
BRANCH  18  19
ATOM     19  N   UNL     1      48.210   7.041  15.097  0.00  0.00    +0.000 N 
ATOM     20  C   UNL     1      48.739   6.562  16.266  0.00  0.00    +0.000 C 
ATOM     21  O   UNL     1      49.290   5.466  16.338  0.00  0.00    +0.000 OA
ATOM     22  H   UNL     1      47.925   8.012  15.051  0.00  0.00    +0.000 HD
BRANCH  20  23
ATOM     23  C   UNL     1      48.570   7.420  17.445  0.00  0.00    +0.000 A 
ATOM     24  C   UNL     1      48.846   8.778  17.364  0.00  0.00    +0.000 A 
ATOM     25  S   UNL     1      48.609   9.605  18.836  0.00  0.00    +0.000 S 
ATOM     26  C   UNL     1      48.094   8.185  19.611  0.00  0.00    +0.000 A 
ATOM     27  N   UNL     1      47.719   8.213  20.903  0.00  0.00    +0.000 NA
ATOM     28  C   UNL     1      47.336   7.016  21.356  0.00  0.00    +0.000 A 
ATOM     29  N   UNL     1      47.299   5.862  20.679  0.00  0.00    +0.000 NA
ATOM     30  C   UNL     1      47.684   5.904  19.403  0.00  0.00    +0.000 A 
ATOM     31  C   UNL     1      48.114   7.074  18.778  0.00  0.00    +0.000 A 
BRANCH  30  32
ATOM     32  O   UNL     1      47.639   4.694  18.779  0.00  0.00    +0.000 OA
ATOM     33  H   UNL     1      46.957   4.859  18.101  0.00  0.00    +0.000 HD
ENDBRANCH  30  32
ENDBRANCH  20  23
ENDBRANCH  18  19
ENDBRANCH   4  18
TORSDOF 8
ENDMDL
MODEL 4
REMARK VINA RESULT:    -7.227      3.245      8.758
REMARK INTER + INTRA:         -11.528
REMARK INTER:                  -9.909
REMARK INTRA:                  -1.618
REMARK UNBOUND:                -1.132
REMARK  Name = 
REMARK  9 active torsions:
REMARK  status: ('A' for Active; 'I' for Inactive)
REMARK    1  A    between atoms: C_1  and  C_2
REMARK    2  A    between atoms: C_6  and  C_7
REMARK    3  A    between atoms: C_7  and  N_8
REMARK    4  A    between atoms: N_8  and  C_9
REMARK    5  A    between atoms: C_9  and  C_10
REMARK    6  A    between atoms: C_13  and  C_14
REMARK    7  A    between atoms: C_14  and  N_15
REMARK    8  A    between atoms: C_16  and  C_18
REMARK    9  A    between atoms: C_25  and  O_26
REMARK                            x       y       z     vdW  Elec       q    Type
REMARK                         _______ _______ _______ _____ _____    ______ ____
ROOT
ATOM      1  C   UNL     1      49.738   8.341  15.608  0.00  0.00    +0.000 A 
ATOM      2  C   UNL     1      48.427   8.824  15.493  0.00  0.00    +0.000 A 
ATOM      3  C   UNL     1      47.730   8.716  14.287  0.00  0.00    +0.000 A 
ATOM      4  C   UNL     1      48.328   8.118  13.170  0.00  0.00    +0.000 A 
ATOM      5  C   UNL     1      49.656   7.681  13.270  0.00  0.00    +0.000 A 
ATOM      6  C   UNL     1      50.353   7.787  14.477  0.00  0.00    +0.000 A 
ENDROOT
BRANCH   1   7
ATOM      7  C   UNL     1      50.464   8.389  16.933  0.00  0.00    +0.000 C 
BRANCH   7   8
ATOM      8  N   UNL     1      49.951   7.423  17.906  0.00  0.00    +0.000 NA
ATOM      9  H   UNL     1      50.234   7.715  18.843  0.00  0.00    +0.000 HD
BRANCH   8  10
ATOM     10  C   UNL     1      50.510   6.078  17.698  0.00  0.00    +0.000 C 
BRANCH  10  16
ATOM     11  C   UNL     1      46.949   4.388  14.825  0.00  0.00    +0.000 C 
ATOM     12  C   UNL     1      47.730   4.236  16.095  0.00  0.00    +0.000 A 
ATOM     13  C   UNL     1      47.453   3.204  16.985  0.00  0.00    +0.000 A 
ATOM     14  C   UNL     1      48.202   3.108  18.152  0.00  0.00    +0.000 A 
ATOM     15  C   UNL     1      49.200   4.042  18.400  0.00  0.00    +0.000 A 
ATOM     16  C   UNL     1      49.415   5.056  17.470  0.00  0.00    +0.000 A 
ATOM     17  N   UNL     1      48.701   5.154  16.319  0.00  0.00    +0.000 NA
ENDBRANCH  10  16
ENDBRANCH   8  10
ENDBRANCH   7   8
ENDBRANCH   1   7
BRANCH   4  18
ATOM     18  C   UNL     1      47.572   7.976  11.874  0.00  0.00    +0.000 C 
BRANCH  18  19
ATOM     19  N   UNL     1      46.844   6.736  11.840  0.00  0.00    +0.000 N 
ATOM     20  C   UNL     1      45.476   6.694  11.894  0.00  0.00    +0.000 C 
ATOM     21  O   UNL     1      44.795   7.693  12.118  0.00  0.00    +0.000 OA
ATOM     22  H   UNL     1      47.344   5.930  11.484  0.00  0.00    +0.000 HD
BRANCH  20  23
ATOM     23  C   UNL     1      44.868   5.371  11.713  0.00  0.00    +0.000 A 
ATOM     24  C   UNL     1      44.143   4.789  12.744  0.00  0.00    +0.000 A 
ATOM     25  S   UNL     1      43.531   3.247  12.354  0.00  0.00    +0.000 S 
ATOM     26  C   UNL     1      44.178   3.329  10.786  0.00  0.00    +0.000 A 
ATOM     27  N   UNL     1      43.991   2.317   9.918  0.00  0.00    +0.000 NA
ATOM     28  C   UNL     1      44.557   2.543   8.730  0.00  0.00    +0.000 A 
ATOM     29  N   UNL     1      45.256   3.621   8.352  0.00  0.00    +0.000 NA
ATOM     30  C   UNL     1      45.405   4.586   9.260  0.00  0.00    +0.000 A 
ATOM     31  C   UNL     1      44.877   4.505  10.548  0.00  0.00    +0.000 A 
BRANCH  30  32
ATOM     32  O   UNL     1      46.140   5.643   8.817  0.00  0.00    +0.000 OA
ATOM     33  H   UNL     1      45.437   6.289   8.619  0.00  0.00    +0.000 HD
ENDBRANCH  30  32
ENDBRANCH  20  23
ENDBRANCH  18  19
ENDBRANCH   4  18
TORSDOF 8
ENDMDL
MODEL 5
REMARK VINA RESULT:    -7.029      5.091      9.866
REMARK INTER + INTRA:         -11.243
REMARK INTER:                 -10.227
REMARK INTRA:                  -1.015
REMARK UNBOUND:                -1.132
REMARK  Name = 
REMARK  9 active torsions:
REMARK  status: ('A' for Active; 'I' for Inactive)
REMARK    1  A    between atoms: C_1  and  C_2
REMARK    2  A    between atoms: C_6  and  C_7
REMARK    3  A    between atoms: C_7  and  N_8
REMARK    4  A    between atoms: N_8  and  C_9
REMARK    5  A    between atoms: C_9  and  C_10
REMARK    6  A    between atoms: C_13  and  C_14
REMARK    7  A    between atoms: C_14  and  N_15
REMARK    8  A    between atoms: C_16  and  C_18
REMARK    9  A    between atoms: C_25  and  O_26
REMARK                            x       y       z     vdW  Elec       q    Type
REMARK                         _______ _______ _______ _____ _____    ______ ____
ROOT
ATOM      1  C   UNL     1      51.516   3.623  17.874  0.00  0.00    +0.000 A 
ATOM      2  C   UNL     1      50.665   4.737  17.918  0.00  0.00    +0.000 A 
ATOM      3  C   UNL     1      49.318   4.619  17.567  0.00  0.00    +0.000 A 
ATOM      4  C   UNL     1      48.791   3.382  17.169  0.00  0.00    +0.000 A 
ATOM      5  C   UNL     1      49.653   2.281  17.077  0.00  0.00    +0.000 A 
ATOM      6  C   UNL     1      51.000   2.398  17.430  0.00  0.00    +0.000 A 
ENDROOT
BRANCH   1   7
ATOM      7  C   UNL     1      52.955   3.734  18.327  0.00  0.00    +0.000 C 
BRANCH   7   8
ATOM      8  N   UNL     1      53.289   2.812  19.414  0.00  0.00    +0.000 NA
ATOM      9  H   UNL     1      53.244   3.316  20.301  0.00  0.00    +0.000 HD
BRANCH   8  10
ATOM     10  C   UNL     1      54.661   2.293  19.295  0.00  0.00    +0.000 C 
BRANCH  10  16
ATOM     11  C   UNL     1      54.049  -2.546  19.357  0.00  0.00    +0.000 C 
ATOM     12  C   UNL     1      54.380  -1.322  18.557  0.00  0.00    +0.000 A 
ATOM     13  C   UNL     1      54.680  -1.414  17.202  0.00  0.00    +0.000 A 
ATOM     14  C   UNL     1      54.985  -0.251  16.504  0.00  0.00    +0.000 A 
ATOM     15  C   UNL     1      54.987   0.966  17.176  0.00  0.00    +0.000 A 
ATOM     16  C   UNL     1      54.689   0.981  18.536  0.00  0.00    +0.000 A 
ATOM     17  N   UNL     1      54.375  -0.145  19.228  0.00  0.00    +0.000 NA
ENDBRANCH  10  16
ENDBRANCH   8  10
ENDBRANCH   7   8
ENDBRANCH   1   7
BRANCH   4  18
ATOM     18  C   UNL     1      47.333   3.245  16.814  0.00  0.00    +0.000 C 
BRANCH  18  19
ATOM     19  N   UNL     1      46.942   4.251  15.862  0.00  0.00    +0.000 N 
ATOM     20  C   UNL     1      46.912   4.005  14.515  0.00  0.00    +0.000 C 
ATOM     21  O   UNL     1      47.350   2.966  14.026  0.00  0.00    +0.000 OA
ATOM     22  H   UNL     1      46.417   5.036  16.227  0.00  0.00    +0.000 HD
BRANCH  20  23
ATOM     23  C   UNL     1      46.364   5.079  13.679  0.00  0.00    +0.000 A 
ATOM     24  C   UNL     1      46.955   6.335  13.682  0.00  0.00    +0.000 A 
ATOM     25  S   UNL     1      46.168   7.456  12.666  0.00  0.00    +0.000 S 
ATOM     26  C   UNL     1      45.043   6.287  12.162  0.00  0.00    +0.000 A 
ATOM     27  N   UNL     1      44.091   6.601  11.264  0.00  0.00    +0.000 NA
ATOM     28  C   UNL     1      43.295   5.570  10.972  0.00  0.00    +0.000 A 
ATOM     29  N   UNL     1      43.356   4.328  11.468  0.00  0.00    +0.000 NA
ATOM     30  C   UNL     1      44.322   4.083  12.353  0.00  0.00    +0.000 A 
ATOM     31  C   UNL     1      45.235   5.052  12.767  0.00  0.00    +0.000 A 
BRANCH  30  32
ATOM     32  O   UNL     1      44.315   2.808  12.830  0.00  0.00    +0.000 OA
ATOM     33  H   UNL     1      45.272   2.635  12.914  0.00  0.00    +0.000 HD
ENDBRANCH  30  32
ENDBRANCH  20  23
ENDBRANCH  18  19
ENDBRANCH   4  18
TORSDOF 8
ENDMDL
MODEL 6
REMARK VINA RESULT:    -6.696      2.643      3.672
REMARK INTER + INTRA:         -10.765
REMARK INTER:                  -9.032
REMARK INTRA:                  -1.733
REMARK UNBOUND:                -1.132
REMARK  Name = 
REMARK  9 active torsions:
REMARK  status: ('A' for Active; 'I' for Inactive)
REMARK    1  A    between atoms: C_1  and  C_2
REMARK    2  A    between atoms: C_6  and  C_7
REMARK    3  A    between atoms: C_7  and  N_8
REMARK    4  A    between atoms: N_8  and  C_9
REMARK    5  A    between atoms: C_9  and  C_10
REMARK    6  A    between atoms: C_13  and  C_14
REMARK    7  A    between atoms: C_14  and  N_15
REMARK    8  A    between atoms: C_16  and  C_18
REMARK    9  A    between atoms: C_25  and  O_26
REMARK                            x       y       z     vdW  Elec       q    Type
REMARK                         _______ _______ _______ _____ _____    ______ ____
ROOT
ATOM      1  C   UNL     1      45.415   8.348  11.950  0.00  0.00    +0.000 A 
ATOM      2  C   UNL     1      46.154   7.262  11.458  0.00  0.00    +0.000 A 
ATOM      3  C   UNL     1      47.498   7.100  11.803  0.00  0.00    +0.000 A 
ATOM      4  C   UNL     1      48.131   8.018  12.653  0.00  0.00    +0.000 A 
ATOM      5  C   UNL     1      47.406   9.129  13.104  0.00  0.00    +0.000 A 
ATOM      6  C   UNL     1      46.061   9.291  12.760  0.00  0.00    +0.000 A 
ENDROOT
BRANCH   1   7
ATOM      7  C   UNL     1      43.941   8.481  11.638  0.00  0.00    +0.000 C 
BRANCH   7   8
ATOM      8  N   UNL     1      43.434   7.409  10.780  0.00  0.00    +0.000 NA
ATOM      9  H   UNL     1      42.755   7.803  10.126  0.00  0.00    +0.000 HD
BRANCH   8  10
ATOM     10  C   UNL     1      42.727   6.374  11.549  0.00  0.00    +0.000 C 
BRANCH  10  16
ATOM     11  C   UNL     1      44.584   2.492   9.252  0.00  0.00    +0.000 C 
ATOM     12  C   UNL     1      44.442   3.256  10.533  0.00  0.00    +0.000 A 
ATOM     13  C   UNL     1      45.038   2.802  11.705  0.00  0.00    +0.000 A 
ATOM     14  C   UNL     1      44.873   3.543  12.870  0.00  0.00    +0.000 A 
ATOM     15  C   UNL     1      44.117   4.709  12.834  0.00  0.00    +0.000 A 
ATOM     16  C   UNL     1      43.539   5.096  11.628  0.00  0.00    +0.000 A 
ATOM     17  N   UNL     1      43.703   4.391  10.479  0.00  0.00    +0.000 NA
ENDBRANCH  10  16
ENDBRANCH   8  10
ENDBRANCH   7   8
ENDBRANCH   1   7
BRANCH   4  18
ATOM     18  C   UNL     1      49.573   7.833  13.049  0.00  0.00    +0.000 C 
BRANCH  18  19
ATOM     19  N   UNL     1      49.687   6.921  14.155  0.00  0.00    +0.000 N 
ATOM     20  C   UNL     1      49.687   7.352  15.456  0.00  0.00    +0.000 C 
ATOM     21  O   UNL     1      49.734   8.542  15.754  0.00  0.00    +0.000 OA
ATOM     22  H   UNL     1      49.474   5.949  13.962  0.00  0.00    +0.000 HD
BRANCH  20  23
ATOM     23  C   UNL     1      49.673   6.300  16.479  0.00  0.00    +0.000 A 
ATOM     24  C   UNL     1      50.637   6.284  17.477  0.00  0.00    +0.000 A 
ATOM     25  S   UNL     1      50.469   4.979  18.561  0.00  0.00    +0.000 S 
ATOM     26  C   UNL     1      49.082   4.421  17.755  0.00  0.00    +0.000 A 
ATOM     27  N   UNL     1      48.430   3.331  18.198  0.00  0.00    +0.000 NA
ATOM     28  C   UNL     1      47.359   3.032  17.458  0.00  0.00    +0.000 A 
ATOM     29  N   UNL     1      46.909   3.681  16.377  0.00  0.00    +0.000 NA
ATOM     30  C   UNL     1      47.602   4.753  15.991  0.00  0.00    +0.000 A 
ATOM     31  C   UNL     1      48.744   5.197  16.654  0.00  0.00    +0.000 A 
BRANCH  30  32
ATOM     32  O   UNL     1      47.101   5.354  14.876  0.00  0.00    +0.000 OA
ATOM     33  H   UNL     1      47.061   6.284  15.168  0.00  0.00    +0.000 HD
ENDBRANCH  30  32
ENDBRANCH  20  23
ENDBRANCH  18  19
ENDBRANCH   4  18
TORSDOF 8
ENDMDL
MODEL 7
REMARK VINA RESULT:    -6.568      4.328      6.698
REMARK INTER + INTRA:         -10.579
REMARK INTER:                  -9.680
REMARK INTRA:                  -0.900
REMARK UNBOUND:                -1.132
REMARK  Name = 
REMARK  9 active torsions:
REMARK  status: ('A' for Active; 'I' for Inactive)
REMARK    1  A    between atoms: C_1  and  C_2
REMARK    2  A    between atoms: C_6  and  C_7
REMARK    3  A    between atoms: C_7  and  N_8
REMARK    4  A    between atoms: N_8  and  C_9
REMARK    5  A    between atoms: C_9  and  C_10
REMARK    6  A    between atoms: C_13  and  C_14
REMARK    7  A    between atoms: C_14  and  N_15
REMARK    8  A    between atoms: C_16  and  C_18
REMARK    9  A    between atoms: C_25  and  O_26
REMARK                            x       y       z     vdW  Elec       q    Type
REMARK                         _______ _______ _______ _____ _____    ______ ____
ROOT
ATOM      1  C   UNL     1      44.781   9.104  11.792  0.00  0.00    +0.000 A 
ATOM      2  C   UNL     1      45.715   8.981  12.830  0.00  0.00    +0.000 A 
ATOM      3  C   UNL     1      46.157   7.723  13.247  0.00  0.00    +0.000 A 
ATOM      4  C   UNL     1      45.677   6.560  12.630  0.00  0.00    +0.000 A 
ATOM      5  C   UNL     1      44.705   6.680  11.628  0.00  0.00    +0.000 A 
ATOM      6  C   UNL     1      44.265   7.939  11.209  0.00  0.00    +0.000 A 
ENDROOT
BRANCH   1   7
ATOM      7  C   UNL     1      44.361  10.467  11.290  0.00  0.00    +0.000 C 
BRANCH   7   8
ATOM      8  N   UNL     1      43.077  10.912  11.833  0.00  0.00    +0.000 NA
ATOM      9  H   UNL     1      42.924  10.458  12.735  0.00  0.00    +0.000 HD
BRANCH   8  10
ATOM     10  C   UNL     1      41.949  10.524  10.971  0.00  0.00    +0.000 C 
BRANCH  10  16
ATOM     11  C   UNL     1      37.210   9.470  11.443  0.00  0.00    +0.000 C 
ATOM     12  C   UNL     1      38.366  10.321  11.873  0.00  0.00    +0.000 A 
ATOM     13  C   UNL     1      38.203  11.318  12.829  0.00  0.00    +0.000 A 
ATOM     14  C   UNL     1      39.305  12.084  13.193  0.00  0.00    +0.000 A 
ATOM     15  C   UNL     1      40.533  11.839  12.590  0.00  0.00    +0.000 A 
ATOM     16  C   UNL     1      40.620  10.832  11.631  0.00  0.00    +0.000 A 
ATOM     17  N   UNL     1      39.556  10.066  11.277  0.00  0.00    +0.000 NA
ENDBRANCH  10  16
ENDBRANCH   8  10
ENDBRANCH   7   8
ENDBRANCH   1   7
BRANCH   4  18
ATOM     18  C   UNL     1      46.169   5.201  13.059  0.00  0.00    +0.000 C 
BRANCH  18  19
ATOM     19  N   UNL     1      46.669   5.241  14.407  0.00  0.00    +0.000 N 
ATOM     20  C   UNL     1      47.311   4.173  14.976  0.00  0.00    +0.000 C 
ATOM     21  O   UNL     1      47.373   3.075  14.429  0.00  0.00    +0.000 OA
ATOM     22  H   UNL     1      46.794   6.160  14.814  0.00  0.00    +0.000 HD
BRANCH  20  23
ATOM     23  C   UNL     1      47.885   4.405  16.307  0.00  0.00    +0.000 A 
ATOM     24  C   UNL     1      47.563   3.564  17.363  0.00  0.00    +0.000 A 
ATOM     25  S   UNL     1      48.310   4.003  18.831  0.00  0.00    +0.000 S 
ATOM     26  C   UNL     1      49.117   5.302  18.091  0.00  0.00    +0.000 A 
ATOM     27  N   UNL     1      49.947   6.083  18.807  0.00  0.00    +0.000 NA
ATOM     28  C   UNL     1      50.504   7.052  18.076  0.00  0.00    +0.000 A 
ATOM     29  N   UNL     1      50.317   7.300  16.773  0.00  0.00    +0.000 NA
ATOM     30  C   UNL     1      49.481   6.488  16.124  0.00  0.00    +0.000 A 
ATOM     31  C   UNL     1      48.817   5.430  16.742  0.00  0.00    +0.000 A 
BRANCH  30  32
ATOM     32  O   UNL     1      49.322   6.808  14.810  0.00  0.00    +0.000 OA
ATOM     33  H   UNL     1      50.201   6.578  14.454  0.00  0.00    +0.000 HD
ENDBRANCH  30  32
ENDBRANCH  20  23
ENDBRANCH  18  19
ENDBRANCH   4  18
TORSDOF 8
ENDMDL
MODEL 8
REMARK VINA RESULT:    -6.525      3.626      8.375
REMARK INTER + INTRA:         -10.518
REMARK INTER:                  -8.812
REMARK INTRA:                  -1.706
REMARK UNBOUND:                -1.132
REMARK  Name = 
REMARK  9 active torsions:
REMARK  status: ('A' for Active; 'I' for Inactive)
REMARK    1  A    between atoms: C_1  and  C_2
REMARK    2  A    between atoms: C_6  and  C_7
REMARK    3  A    between atoms: C_7  and  N_8
REMARK    4  A    between atoms: N_8  and  C_9
REMARK    5  A    between atoms: C_9  and  C_10
REMARK    6  A    between atoms: C_13  and  C_14
REMARK    7  A    between atoms: C_14  and  N_15
REMARK    8  A    between atoms: C_16  and  C_18
REMARK    9  A    between atoms: C_25  and  O_26
REMARK                            x       y       z     vdW  Elec       q    Type
REMARK                         _______ _______ _______ _____ _____    ______ ____
ROOT
ATOM      1  C   UNL     1      49.071   7.919  18.311  0.00  0.00    +0.000 A 
ATOM      2  C   UNL     1      48.366   9.124  18.180  0.00  0.00    +0.000 A 
ATOM      3  C   UNL     1      48.018   9.613  16.918  0.00  0.00    +0.000 A 
ATOM      4  C   UNL     1      48.364   8.904  15.760  0.00  0.00    +0.000 A 
ATOM      5  C   UNL     1      49.112   7.726  15.889  0.00  0.00    +0.000 A 
ATOM      6  C   UNL     1      49.457   7.235  17.151  0.00  0.00    +0.000 A 
ENDROOT
BRANCH   1   7
ATOM      7  C   UNL     1      49.379   7.352  19.679  0.00  0.00    +0.000 C 
BRANCH   7   8
ATOM      8  N   UNL     1      48.303   6.516  20.212  0.00  0.00    +0.000 NA
ATOM      9  H   UNL     1      48.087   6.821  21.163  0.00  0.00    +0.000 HD
BRANCH   8  10
ATOM     10  C   UNL     1      48.697   5.101  20.304  0.00  0.00    +0.000 C 
BRANCH  10  16
ATOM     11  C   UNL     1      50.378   1.931  16.999  0.00  0.00    +0.000 C 
ATOM     12  C   UNL     1      49.280   2.862  17.416  0.00  0.00    +0.000 A 
ATOM     13  C   UNL     1      48.149   3.031  16.625  0.00  0.00    +0.000 A 
ATOM     14  C   UNL     1      47.159   3.909  17.052  0.00  0.00    +0.000 A 
ATOM     15  C   UNL     1      47.327   4.595  18.249  0.00  0.00    +0.000 A 
ATOM     16  C   UNL     1      48.492   4.386  18.983  0.00  0.00    +0.000 A 
ATOM     17  N   UNL     1      49.460   3.521  18.587  0.00  0.00    +0.000 NA
ENDBRANCH  10  16
ENDBRANCH   8  10
ENDBRANCH   7   8
ENDBRANCH   1   7
BRANCH   4  18
ATOM     18  C   UNL     1      47.969   9.414  14.398  0.00  0.00    +0.000 C 
BRANCH  18  19
ATOM     19  N   UNL     1      46.895   8.629  13.850  0.00  0.00    +0.000 N 
ATOM     20  C   UNL     1      46.988   8.024  12.624  0.00  0.00    +0.000 C 
ATOM     21  O   UNL     1      47.928   8.228  11.859  0.00  0.00    +0.000 OA
ATOM     22  H   UNL     1      46.198   8.298  14.506  0.00  0.00    +0.000 HD
BRANCH  20  23
ATOM     23  C   UNL     1      45.871   7.147  12.256  0.00  0.00    +0.000 A 
ATOM     24  C   UNL     1      44.775   7.661  11.576  0.00  0.00    +0.000 A 
ATOM     25  S   UNL     1      43.572   6.498  11.253  0.00  0.00    +0.000 S 
ATOM     26  C   UNL     1      44.496   5.267  11.973  0.00  0.00    +0.000 A 
ATOM     27  N   UNL     1      44.035   4.003  12.009  0.00  0.00    +0.000 NA
ATOM     28  C   UNL     1      44.884   3.160  12.602  0.00  0.00    +0.000 A 
ATOM     29  N   UNL     1      46.079   3.447  13.134  0.00  0.00    +0.000 NA
ATOM     30  C   UNL     1      46.475   4.718  13.065  0.00  0.00    +0.000 A 
ATOM     31  C   UNL     1      45.706   5.722  12.480  0.00  0.00    +0.000 A 
BRANCH  30  32
ATOM     32  O   UNL     1      47.689   4.943  13.640  0.00  0.00    +0.000 OA
ATOM     33  H   UNL     1      48.051   4.038  13.672  0.00  0.00    +0.000 HD
ENDBRANCH  30  32
ENDBRANCH  20  23
ENDBRANCH  18  19
ENDBRANCH   4  18
TORSDOF 8
ENDMDL
MODEL 9
REMARK VINA RESULT:    -6.438      5.201      8.820
REMARK INTER + INTRA:         -10.393
REMARK INTER:                  -9.376
REMARK INTRA:                  -1.017
REMARK UNBOUND:                -1.132
REMARK  Name = 
REMARK  9 active torsions:
REMARK  status: ('A' for Active; 'I' for Inactive)
REMARK    1  A    between atoms: C_1  and  C_2
REMARK    2  A    between atoms: C_6  and  C_7
REMARK    3  A    between atoms: C_7  and  N_8
REMARK    4  A    between atoms: N_8  and  C_9
REMARK    5  A    between atoms: C_9  and  C_10
REMARK    6  A    between atoms: C_13  and  C_14
REMARK    7  A    between atoms: C_14  and  N_15
REMARK    8  A    between atoms: C_16  and  C_18
REMARK    9  A    between atoms: C_25  and  O_26
REMARK                            x       y       z     vdW  Elec       q    Type
REMARK                         _______ _______ _______ _____ _____    ______ ____
ROOT
ATOM      1  C   UNL     1      49.520   9.190  11.573  0.00  0.00    +0.000 A 
ATOM      2  C   UNL     1      48.563  10.190  11.798  0.00  0.00    +0.000 A 
ATOM      3  C   UNL     1      47.233   9.856  12.068  0.00  0.00    +0.000 A 
ATOM      4  C   UNL     1      46.833   8.514  12.124  0.00  0.00    +0.000 A 
ATOM      5  C   UNL     1      47.779   7.517  11.850  0.00  0.00    +0.000 A 
ATOM      6  C   UNL     1      49.109   7.850  11.582  0.00  0.00    +0.000 A 
ENDROOT
BRANCH   1   7
ATOM      7  C   UNL     1      50.973   9.549  11.357  0.00  0.00    +0.000 C 
BRANCH   7   8
ATOM      8  N   UNL     1      51.897   8.509  11.813  0.00  0.00    +0.000 NA
ATOM      9  H   UNL     1      52.120   8.673  12.795  0.00  0.00    +0.000 HD
BRANCH   8  10
ATOM     10  C   UNL     1      53.173   8.546  11.081  0.00  0.00    +0.000 C 
BRANCH  10  16
ATOM     11  C   UNL     1      53.332  10.000   6.427  0.00  0.00    +0.000 C 
ATOM     12  C   UNL     1      53.071   8.888   7.398  0.00  0.00    +0.000 A 
ATOM     13  C   UNL     1      52.685   7.628   6.953  0.00  0.00    +0.000 A 
ATOM     14  C   UNL     1      52.449   6.630   7.892  0.00  0.00    +0.000 A 
ATOM     15  C   UNL     1      52.601   6.917   9.243  0.00  0.00    +0.000 A 
ATOM     16  C   UNL     1      52.978   8.205   9.617  0.00  0.00    +0.000 A 
ATOM     17  N   UNL     1      53.225   9.185   8.711  0.00  0.00    +0.000 NA
ENDBRANCH  10  16
ENDBRANCH   8  10
ENDBRANCH   7   8
ENDBRANCH   1   7
BRANCH   4  18
ATOM     18  C   UNL     1      45.406   8.148  12.440  0.00  0.00    +0.000 C 
BRANCH  18  19
ATOM     19  N   UNL     1      45.169   6.751  12.191  0.00  0.00    +0.000 N 
ATOM     20  C   UNL     1      44.040   6.308  11.553  0.00  0.00    +0.000 C 
ATOM     21  O   UNL     1      43.101   7.053  11.283  0.00  0.00    +0.000 OA
ATOM     22  H   UNL     1      45.977   6.143  12.234  0.00  0.00    +0.000 HD
BRANCH  20  23
ATOM     23  C   UNL     1      43.999   4.873  11.248  0.00  0.00    +0.000 A 
ATOM     24  C   UNL     1      43.293   4.005  12.070  0.00  0.00    +0.000 A 
ATOM     25  S   UNL     1      43.377   2.378  11.567  0.00  0.00    +0.000 S 
ATOM     26  C   UNL     1      44.321   2.790  10.217  0.00  0.00    +0.000 A 
ATOM     27  N   UNL     1      44.720   1.840   9.351  0.00  0.00    +0.000 NA
ATOM     28  C   UNL     1      45.447   2.332   8.343  0.00  0.00    +0.000 A 
ATOM     29  N   UNL     1      45.794   3.608   8.136  0.00  0.00    +0.000 NA
ATOM     30  C   UNL     1      45.366   4.498   9.032  0.00  0.00    +0.000 A 
ATOM     31  C   UNL     1      44.599   4.149  10.142  0.00  0.00    +0.000 A 
BRANCH  30  32
ATOM     32  O   UNL     1      45.770   5.772   8.771  0.00  0.00    +0.000 OA
ATOM     33  H   UNL     1      45.203   6.277   9.385  0.00  0.00    +0.000 HD
ENDBRANCH  30  32
ENDBRANCH  20  23
ENDBRANCH  18  19
ENDBRANCH   4  18
TORSDOF 8
ENDMDL
