MODEL 1
REMARK VINA RESULT:    -9.589      0.000      0.000
REMARK INTER + INTRA:         -14.219
REMARK INTER:                 -13.513
REMARK INTRA:                  -0.706
REMARK UNBOUND:                -0.706
REMARK  Name = 
REMARK  7 active torsions:
REMARK  status: ('A' for Active; 'I' for Inactive)
REMARK    1  A    between atoms: C_2  and  C_4
REMARK    2  A    between atoms: C_7  and  C_8
REMARK    3  A    between atoms: C_8  and  N_9
REMARK    4  A    between atoms: C_10  and  C_12
REMARK    5  A    between atoms: C_23  and  C_24
REMARK    6  A    between atoms: C_24  and  N_25
REMARK    7  A    between atoms: C_26  and  C_28
REMARK                            x       y       z     vdW  Elec       q    Type
REMARK                         _______ _______ _______ _____ _____    ______ ____
ROOT
ATOM      1  C   UNL     1      45.033   6.704  12.015  0.00  0.00    +0.000 A 
ATOM      2  C   UNL     1      45.917   6.964  13.076  0.00  0.00    +0.000 A 
ATOM      3  C   UNL     1      46.536   5.926  13.765  0.00  0.00    +0.000 A 
ATOM      4  C   UNL     1      46.241   4.601  13.449  0.00  0.00    +0.000 A 
ATOM      5  C   UNL     1      45.366   4.331  12.384  0.00  0.00    +0.000 A 
ATOM      6  C   UNL     1      44.773   5.370  11.635  0.00  0.00    +0.000 A 
ENDROOT
BRANCH   1   8
ATOM      7  N   UNL     1      43.028   7.729  11.077  0.00  0.00    +0.000 N 
ATOM      8  C   UNL     1      44.362   7.866  11.362  0.00  0.00    +0.000 C 
ATOM      9  O   UNL     1      44.962   8.894  11.076  0.00  0.00    +0.000 OA
ATOM     10  H   UNL     1      42.550   8.511  10.651  0.00  0.00    +0.000 HD
ATOM     11  H   UNL     1      42.462   6.961  11.412  0.00  0.00    +0.000 HD
ENDBRANCH   1   8
BRANCH   4  12
ATOM     12  C   UNL     1      46.884   3.490  14.232  0.00  0.00    +0.000 C 
BRANCH  12  13
ATOM     13  N   UNL     1      47.728   4.008  15.275  0.00  0.00    +0.000 N 
ATOM     14  C   UNL     1      47.507   3.817  16.613  0.00  0.00    +0.000 C 
ATOM     15  O   UNL     1      46.546   3.191  17.049  0.00  0.00    +0.000 OA
ATOM     16  H   UNL     1      48.361   4.743  14.987  0.00  0.00    +0.000 HD
BRANCH  14  17
ATOM     17  C   UNL     1      48.555   4.347  17.500  0.00  0.00    +0.000 A 
ATOM     18  C   UNL     1      48.340   5.512  18.224  0.00  0.00    +0.000 A 
ATOM     19  S   UNL     1      49.636   5.920  19.260  0.00  0.00    +0.000 S 
ATOM     20  C   UNL     1      50.552   4.585  18.732  0.00  0.00    +0.000 A 
ATOM     21  N   UNL     1      51.798   4.346  19.223  0.00  0.00    +0.000 NA
ATOM     22  C   UNL     1      52.383   3.311  18.715  0.00  0.00    +0.000 A 
ATOM     23  N   UNL     1      51.834   2.494  17.762  0.00  0.00    +0.000 N 
ATOM     24  C   UNL     1      50.568   2.670  17.271  0.00  0.00    +0.000 A 
ATOM     25  O   UNL     1      50.083   1.875  16.473  0.00  0.00    +0.000 OA
ATOM     26  C   UNL     1      49.870   3.830  17.797  0.00  0.00    +0.000 A 
ATOM     27  H   UNL     1      52.333   1.689  17.412  0.00  0.00    +0.000 HD
ENDBRANCH  14  17
ENDBRANCH  12  13
ENDBRANCH   4  12
BRANCH   6  28
ATOM     28  C   UNL     1      43.901   4.984  10.465  0.00  0.00    +0.000 C 
BRANCH  28  29
ATOM     29  N   UNL     1      44.665   4.408   9.387  0.00  0.00    +0.000 N 
ATOM     30  C   UNL     1      44.729   3.053   9.134  0.00  0.00    +0.000 C 
ATOM     31  O   UNL     1      44.084   2.209   9.740  0.00  0.00    +0.000 OA
ATOM     32  H   UNL     1      45.017   5.061   8.698  0.00  0.00    +0.000 HD
BRANCH  30  33
ATOM     33  C   UNL     1      45.659   2.661   8.038  0.00  0.00    +0.000 A 
ATOM     34  C   UNL     1      45.953   3.541   6.984  0.00  0.00    +0.000 A 
ATOM     35  C   UNL     1      46.860   3.171   5.987  0.00  0.00    +0.000 A 
ATOM     36  C   UNL     1      47.479   1.923   6.040  0.00  0.00    +0.000 A 
ATOM     37  C   UNL     1      47.194   1.045   7.086  0.00  0.00    +0.000 A 
ATOM     38  C   UNL     1      46.292   1.413   8.089  0.00  0.00    +0.000 A 
ENDBRANCH  30  33
ENDBRANCH  28  29
ENDBRANCH   6  28
TORSDOF 7
ENDMDL
MODEL 2
REMARK VINA RESULT:    -9.291      2.655      3.236
REMARK INTER + INTRA:         -13.799
REMARK INTER:                 -12.315
REMARK INTRA:                  -1.484
REMARK UNBOUND:                -0.706
REMARK  Name = 
REMARK  7 active torsions:
REMARK  status: ('A' for Active; 'I' for Inactive)
REMARK    1  A    between atoms: C_2  and  C_4
REMARK    2  A    between atoms: C_7  and  C_8
REMARK    3  A    between atoms: C_8  and  N_9
REMARK    4  A    between atoms: C_10  and  C_12
REMARK    5  A    between atoms: C_23  and  C_24
REMARK    6  A    between atoms: C_24  and  N_25
REMARK    7  A    between atoms: C_26  and  C_28
REMARK                            x       y       z     vdW  Elec       q    Type
REMARK                         _______ _______ _______ _____ _____    ______ ____
ROOT
ATOM      1  C   UNL     1      45.555   5.042  12.811  0.00  0.00    +0.000 A 
ATOM      2  C   UNL     1      46.388   5.192  13.933  0.00  0.00    +0.000 A 
ATOM      3  C   UNL     1      47.452   6.088  13.921  0.00  0.00    +0.000 A 
ATOM      4  C   UNL     1      47.745   6.813  12.767  0.00  0.00    +0.000 A 
ATOM      5  C   UNL     1      46.912   6.677  11.644  0.00  0.00    +0.000 A 
ATOM      6  C   UNL     1      45.793   5.817  11.656  0.00  0.00    +0.000 A 
ENDROOT
BRANCH   1   8
ATOM      7  N   UNL     1      44.808   2.738  12.524  0.00  0.00    +0.000 N 
ATOM      8  C   UNL     1      44.470   4.019  12.877  0.00  0.00    +0.000 C 
ATOM      9  O   UNL     1      43.327   4.297  13.214  0.00  0.00    +0.000 OA
ATOM     10  H   UNL     1      44.092   2.026  12.579  0.00  0.00    +0.000 HD
ATOM     11  H   UNL     1      45.759   2.434  12.371  0.00  0.00    +0.000 HD
ENDBRANCH   1   8
BRANCH   4  12
ATOM     12  C   UNL     1      48.925   7.745  12.754  0.00  0.00    +0.000 C 
BRANCH  12  13
ATOM     13  N   UNL     1      49.967   7.278  13.630  0.00  0.00    +0.000 N 
ATOM     14  C   UNL     1      50.262   7.837  14.845  0.00  0.00    +0.000 C 
ATOM     15  O   UNL     1      49.667   8.811  15.295  0.00  0.00    +0.000 OA
ATOM     16  H   UNL     1      50.650   6.670  13.196  0.00  0.00    +0.000 HD
BRANCH  14  17
ATOM     17  C   UNL     1      51.297   7.135  15.620  0.00  0.00    +0.000 A 
ATOM     18  C   UNL     1      52.642   7.405  15.405  0.00  0.00    +0.000 A 
ATOM     19  S   UNL     1      53.685   6.555  16.457  0.00  0.00    +0.000 S 
ATOM     20  C   UNL     1      52.377   5.753  17.197  0.00  0.00    +0.000 A 
ATOM     21  N   UNL     1      52.577   4.852  18.196  0.00  0.00    +0.000 NA
ATOM     22  C   UNL     1      51.495   4.306  18.647  0.00  0.00    +0.000 A 
ATOM     23  N   UNL     1      50.233   4.581  18.189  0.00  0.00    +0.000 N 
ATOM     24  C   UNL     1      49.981   5.511  17.216  0.00  0.00    +0.000 A 
ATOM     25  O   UNL     1      48.832   5.784  16.884  0.00  0.00    +0.000 OA
ATOM     26  C   UNL     1      51.165   6.145  16.662  0.00  0.00    +0.000 A 
ATOM     27  H   UNL     1      49.422   4.133  18.590  0.00  0.00    +0.000 HD
ENDBRANCH  14  17
ENDBRANCH  12  13
ENDBRANCH   4  12
BRANCH   6  28
ATOM     28  C   UNL     1      44.916   5.787  10.428  0.00  0.00    +0.000 C 
BRANCH  28  29
ATOM     29  N   UNL     1      45.476   4.965   9.383  0.00  0.00    +0.000 N 
ATOM     30  C   UNL     1      45.032   3.691   9.091  0.00  0.00    +0.000 C 
ATOM     31  O   UNL     1      44.070   3.159   9.627  0.00  0.00    +0.000 OA
ATOM     32  H   UNL     1      46.101   5.435   8.740  0.00  0.00    +0.000 HD
BRANCH  30  33
ATOM     33  C   UNL     1      45.816   2.977   8.046  0.00  0.00    +0.000 A 
ATOM     34  C   UNL     1      46.224   3.627   6.871  0.00  0.00    +0.000 A 
ATOM     35  C   UNL     1      46.995   2.952   5.921  0.00  0.00    +0.000 A 
ATOM     36  C   UNL     1      47.364   1.624   6.142  0.00  0.00    +0.000 A 
ATOM     37  C   UNL     1      46.964   0.973   7.308  0.00  0.00    +0.000 A 
ATOM     38  C   UNL     1      46.198   1.647   8.265  0.00  0.00    +0.000 A 
ENDBRANCH  30  33
ENDBRANCH  28  29
ENDBRANCH   6  28
TORSDOF 7
ENDMDL
MODEL 3
REMARK VINA RESULT:    -9.237      2.083      2.577
REMARK INTER + INTRA:         -13.723
REMARK INTER:                 -12.959
REMARK INTRA:                  -0.765
REMARK UNBOUND:                -0.706
REMARK  Name = 
REMARK  7 active torsions:
REMARK  status: ('A' for Active; 'I' for Inactive)
REMARK    1  A    between atoms: C_2  and  C_4
REMARK    2  A    between atoms: C_7  and  C_8
REMARK    3  A    between atoms: C_8  and  N_9
REMARK    4  A    between atoms: C_10  and  C_12
REMARK    5  A    between atoms: C_23  and  C_24
REMARK    6  A    between atoms: C_24  and  N_25
REMARK    7  A    between atoms: C_26  and  C_28
REMARK                            x       y       z     vdW  Elec       q    Type
REMARK                         _______ _______ _______ _____ _____    ______ ____
ROOT
ATOM      1  C   UNL     1      44.358   6.123  12.131  0.00  0.00    +0.000 A 
ATOM      2  C   UNL     1      44.978   7.294  12.597  0.00  0.00    +0.000 A 
ATOM      3  C   UNL     1      46.237   7.253  13.189  0.00  0.00    +0.000 A 
ATOM      4  C   UNL     1      46.880   6.032  13.383  0.00  0.00    +0.000 A 
ATOM      5  C   UNL     1      46.272   4.857  12.912  0.00  0.00    +0.000 A 
ATOM      6  C   UNL     1      45.022   4.884  12.257  0.00  0.00    +0.000 A 
ENDROOT
BRANCH   1   8
ATOM      7  N   UNL     1      42.682   7.404  10.907  0.00  0.00    +0.000 N 
ATOM      8  C   UNL     1      42.983   6.238  11.562  0.00  0.00    +0.000 C 
ATOM      9  O   UNL     1      42.149   5.350  11.678  0.00  0.00    +0.000 OA
ATOM     10  H   UNL     1      41.761   7.496  10.498  0.00  0.00    +0.000 HD
ATOM     11  H   UNL     1      43.371   8.104  10.669  0.00  0.00    +0.000 HD
ENDBRANCH   1   8
BRANCH   4  12
ATOM     12  C   UNL     1      48.220   5.998  14.064  0.00  0.00    +0.000 C 
BRANCH  12  13
ATOM     13  N   UNL     1      48.094   6.255  15.474  0.00  0.00    +0.000 N 
ATOM     14  C   UNL     1      49.154   6.420  16.326  0.00  0.00    +0.000 C 
ATOM     15  O   UNL     1      50.323   6.345  15.961  0.00  0.00    +0.000 OA
ATOM     16  H   UNL     1      47.182   6.057  15.866  0.00  0.00    +0.000 HD
BRANCH  14  17
ATOM     17  C   UNL     1      48.794   6.778  17.707  0.00  0.00    +0.000 A 
ATOM     18  C   UNL     1      48.512   8.096  18.042  0.00  0.00    +0.000 A 
ATOM     19  S   UNL     1      48.033   8.300  19.668  0.00  0.00    +0.000 S 
ATOM     20  C   UNL     1      48.242   6.641  19.997  0.00  0.00    +0.000 A 
ATOM     21  N   UNL     1      48.008   6.133  21.236  0.00  0.00    +0.000 NA
ATOM     22  C   UNL     1      48.229   4.864  21.344  0.00  0.00    +0.000 A 
ATOM     23  N   UNL     1      48.662   4.059  20.323  0.00  0.00    +0.000 N 
ATOM     24  C   UNL     1      48.869   4.518  19.050  0.00  0.00    +0.000 A 
ATOM     25  O   UNL     1      49.186   3.753  18.145  0.00  0.00    +0.000 OA
ATOM     26  C   UNL     1      48.650   5.943  18.876  0.00  0.00    +0.000 A 
ATOM     27  H   UNL     1      48.804   3.069  20.462  0.00  0.00    +0.000 HD
ENDBRANCH  14  17
ENDBRANCH  12  13
ENDBRANCH   4  12
BRANCH   6  28
ATOM     28  C   UNL     1      44.478   3.581  11.724  0.00  0.00    +0.000 C 
BRANCH  28  29
ATOM     29  N   UNL     1      45.209   3.120  10.570  0.00  0.00    +0.000 N 
ATOM     30  C   UNL     1      44.883   3.460   9.273  0.00  0.00    +0.000 C 
ATOM     31  O   UNL     1      43.999   4.248   8.970  0.00  0.00    +0.000 OA
ATOM     32  H   UNL     1      46.097   2.673  10.761  0.00  0.00    +0.000 HD
BRANCH  30  33
ATOM     33  C   UNL     1      45.703   2.792   8.224  0.00  0.00    +0.000 A 
ATOM     34  C   UNL     1      46.162   3.496   7.099  0.00  0.00    +0.000 A 
ATOM     35  C   UNL     1      46.965   2.863   6.148  0.00  0.00    +0.000 A 
ATOM     36  C   UNL     1      47.316   1.523   6.316  0.00  0.00    +0.000 A 
ATOM     37  C   UNL     1      46.867   0.818   7.432  0.00  0.00    +0.000 A 
ATOM     38  C   UNL     1      46.068   1.450   8.391  0.00  0.00    +0.000 A 
ENDBRANCH  30  33
ENDBRANCH  28  29
ENDBRANCH   6  28
TORSDOF 7
ENDMDL
MODEL 4
REMARK VINA RESULT:    -9.213      1.542      2.110
REMARK INTER + INTRA:         -13.689
REMARK INTER:                 -12.789
REMARK INTRA:                  -0.900
REMARK UNBOUND:                -0.706
REMARK  Name = 
REMARK  7 active torsions:
REMARK  status: ('A' for Active; 'I' for Inactive)
REMARK    1  A    between atoms: C_2  and  C_4
REMARK    2  A    between atoms: C_7  and  C_8
REMARK    3  A    between atoms: C_8  and  N_9
REMARK    4  A    between atoms: C_10  and  C_12
REMARK    5  A    between atoms: C_23  and  C_24
REMARK    6  A    between atoms: C_24  and  N_25
REMARK    7  A    between atoms: C_26  and  C_28
REMARK                            x       y       z     vdW  Elec       q    Type
REMARK                         _______ _______ _______ _____ _____    ______ ____
ROOT
ATOM      1  C   UNL     1      44.748   6.919  11.829  0.00  0.00    +0.000 A 
ATOM      2  C   UNL     1      45.579   7.210  12.924  0.00  0.00    +0.000 A 
ATOM      3  C   UNL     1      46.270   6.202  13.589  0.00  0.00    +0.000 A 
ATOM      4  C   UNL     1      46.102   4.871  13.211  0.00  0.00    +0.000 A 
ATOM      5  C   UNL     1      45.281   4.571  12.111  0.00  0.00    +0.000 A 
ATOM      6  C   UNL     1      44.617   5.585  11.388  0.00  0.00    +0.000 A 
ENDROOT
BRANCH   1   8
ATOM      7  N   UNL     1      42.640   7.877  11.062  0.00  0.00    +0.000 N 
ATOM      8  C   UNL     1      43.993   8.045  11.205  0.00  0.00    +0.000 C 
ATOM      9  O   UNL     1      44.542   9.069  10.821  0.00  0.00    +0.000 OA
ATOM     10  H   UNL     1      42.107   8.635  10.657  0.00  0.00    +0.000 HD
ATOM     11  H   UNL     1      42.125   7.115  11.481  0.00  0.00    +0.000 HD
ENDBRANCH   1   8
BRANCH   4  12
ATOM     12  C   UNL     1      46.820   3.787  13.966  0.00  0.00    +0.000 C 
BRANCH  12  13
ATOM     13  N   UNL     1      47.261   4.255  15.254  0.00  0.00    +0.000 N 
ATOM     14  C   UNL     1      48.066   3.540  16.100  0.00  0.00    +0.000 C 
ATOM     15  O   UNL     1      48.477   2.413  15.839  0.00  0.00    +0.000 OA
ATOM     16  H   UNL     1      46.740   5.039  15.626  0.00  0.00    +0.000 HD
BRANCH  14  17
ATOM     17  C   UNL     1      48.478   4.252  17.320  0.00  0.00    +0.000 A 
ATOM     18  C   UNL     1      48.254   3.693  18.571  0.00  0.00    +0.000 A 
ATOM     19  S   UNL     1      48.878   4.627  19.858  0.00  0.00    +0.000 S 
ATOM     20  C   UNL     1      49.416   5.840  18.790  0.00  0.00    +0.000 A 
ATOM     21  N   UNL     1      50.042   6.957  19.250  0.00  0.00    +0.000 NA
ATOM     22  C   UNL     1      50.375   7.800  18.328  0.00  0.00    +0.000 A 
ATOM     23  N   UNL     1      50.139   7.626  16.989  0.00  0.00    +0.000 N 
ATOM     24  C   UNL     1      49.551   6.500  16.478  0.00  0.00    +0.000 A 
ATOM     25  O   UNL     1      49.423   6.347  15.268  0.00  0.00    +0.000 OA
ATOM     26  C   UNL     1      49.142   5.524  17.473  0.00  0.00    +0.000 A 
ATOM     27  H   UNL     1      50.435   8.314  16.312  0.00  0.00    +0.000 HD
ENDBRANCH  14  17
ENDBRANCH  12  13
ENDBRANCH   4  12
BRANCH   6  28
ATOM     28  C   UNL     1      43.811   5.174  10.179  0.00  0.00    +0.000 C 
BRANCH  28  29
ATOM     29  N   UNL     1      44.622   4.509   9.189  0.00  0.00    +0.000 N 
ATOM     30  C   UNL     1      44.708   3.137   9.069  0.00  0.00    +0.000 C 
ATOM     31  O   UNL     1      44.048   2.346   9.728  0.00  0.00    +0.000 OA
ATOM     32  H   UNL     1      44.994   5.099   8.456  0.00  0.00    +0.000 HD
BRANCH  30  33
ATOM     33  C   UNL     1      45.682   2.656   8.050  0.00  0.00    +0.000 A 
ATOM     34  C   UNL     1      46.251   1.376   8.132  0.00  0.00    +0.000 A 
ATOM     35  C   UNL     1      47.131   0.928   7.144  0.00  0.00    +0.000 A 
ATOM     36  C   UNL     1      47.445   1.756   6.066  0.00  0.00    +0.000 A 
ATOM     37  C   UNL     1      46.882   3.029   5.976  0.00  0.00    +0.000 A 
ATOM     38  C   UNL     1      45.995   3.478   6.959  0.00  0.00    +0.000 A 
ENDBRANCH  30  33
ENDBRANCH  28  29
ENDBRANCH   6  28
TORSDOF 7
ENDMDL
MODEL 5
REMARK VINA RESULT:    -8.985      2.748      3.460
REMARK INTER + INTRA:         -13.368
REMARK INTER:                 -12.201
REMARK INTRA:                  -1.168
REMARK UNBOUND:                -0.706
REMARK  Name = 
REMARK  7 active torsions:
REMARK  status: ('A' for Active; 'I' for Inactive)
REMARK    1  A    between atoms: C_2  and  C_4
REMARK    2  A    between atoms: C_7  and  C_8
REMARK    3  A    between atoms: C_8  and  N_9
REMARK    4  A    between atoms: C_10  and  C_12
REMARK    5  A    between atoms: C_23  and  C_24
REMARK    6  A    between atoms: C_24  and  N_25
REMARK    7  A    between atoms: C_26  and  C_28
REMARK                            x       y       z     vdW  Elec       q    Type
REMARK                         _______ _______ _______ _____ _____    ______ ____
ROOT
ATOM      1  C   UNL     1      45.108   4.662  12.769  0.00  0.00    +0.000 A 
ATOM      2  C   UNL     1      45.696   4.534  14.039  0.00  0.00    +0.000 A 
ATOM      3  C   UNL     1      46.816   5.281  14.389  0.00  0.00    +0.000 A 
ATOM      4  C   UNL     1      47.410   6.132  13.458  0.00  0.00    +0.000 A 
ATOM      5  C   UNL     1      46.823   6.274  12.190  0.00  0.00    +0.000 A 
ATOM      6  C   UNL     1      45.654   5.568  11.835  0.00  0.00    +0.000 A 
ENDROOT
BRANCH   1   8
ATOM      7  N   UNL     1      44.202   2.443  12.311  0.00  0.00    +0.000 N 
ATOM      8  C   UNL     1      43.945   3.783  12.445  0.00  0.00    +0.000 C 
ATOM      9  O   UNL     1      42.814   4.224  12.289  0.00  0.00    +0.000 OA
ATOM     10  H   UNL     1      43.426   1.828  12.109  0.00  0.00    +0.000 HD
ATOM     11  H   UNL     1      45.084   2.017  12.560  0.00  0.00    +0.000 HD
ENDBRANCH   1   8
BRANCH   4  12
ATOM     12  C   UNL     1      48.646   6.901  13.836  0.00  0.00    +0.000 C 
BRANCH  12  13
ATOM     13  N   UNL     1      48.604   7.309  15.216  0.00  0.00    +0.000 N 
ATOM     14  C   UNL     1      49.276   6.677  16.228  0.00  0.00    +0.000 C 
ATOM     15  O   UNL     1      49.972   5.682  16.049  0.00  0.00    +0.000 OA
ATOM     16  H   UNL     1      47.847   7.937  15.453  0.00  0.00    +0.000 HD
BRANCH  14  17
ATOM     17  C   UNL     1      49.174   7.326  17.544  0.00  0.00    +0.000 A 
ATOM     18  C   UNL     1      49.817   8.533  17.786  0.00  0.00    +0.000 A 
ATOM     19  S   UNL     1      49.512   9.170  19.341  0.00  0.00    +0.000 S 
ATOM     20  C   UNL     1      48.555   7.826  19.765  0.00  0.00    +0.000 A 
ATOM     21  N   UNL     1      47.981   7.730  20.994  0.00  0.00    +0.000 NA
ATOM     22  C   UNL     1      47.302   6.646  21.183  0.00  0.00    +0.000 A 
ATOM     23  N   UNL     1      47.145   5.652  20.253  0.00  0.00    +0.000 N 
ATOM     24  C   UNL     1      47.668   5.727  18.989  0.00  0.00    +0.000 A 
ATOM     25  O   UNL     1      47.444   4.851  18.160  0.00  0.00    +0.000 OA
ATOM     26  C   UNL     1      48.455   6.919  18.728  0.00  0.00    +0.000 A 
ATOM     27  H   UNL     1      46.589   4.832  20.452  0.00  0.00    +0.000 HD
ENDBRANCH  14  17
ENDBRANCH  12  13
ENDBRANCH   4  12
BRANCH   6  28
ATOM     28  C   UNL     1      45.056   5.835  10.475  0.00  0.00    +0.000 C 
BRANCH  28  29
ATOM     29  N   UNL     1      45.659   5.021   9.449  0.00  0.00    +0.000 N 
ATOM     30  C   UNL     1      45.123   3.829   9.006  0.00  0.00    +0.000 C 
ATOM     31  O   UNL     1      44.045   3.381   9.372  0.00  0.00    +0.000 OA
ATOM     32  H   UNL     1      46.412   5.453   8.930  0.00  0.00    +0.000 HD
BRANCH  30  33
ATOM     33  C   UNL     1      45.958   3.094   8.016  0.00  0.00    +0.000 A 
ATOM     34  C   UNL     1      46.279   1.739   8.196  0.00  0.00    +0.000 A 
ATOM     35  C   UNL     1      47.029   1.056   7.235  0.00  0.00    +0.000 A 
ATOM     36  C   UNL     1      47.461   1.723   6.088  0.00  0.00    +0.000 A 
ATOM     37  C   UNL     1      47.144   3.069   5.901  0.00  0.00    +0.000 A 
ATOM     38  C   UNL     1      46.388   3.754   6.857  0.00  0.00    +0.000 A 
ENDBRANCH  30  33
ENDBRANCH  28  29
ENDBRANCH   6  28
TORSDOF 7
ENDMDL
MODEL 6
REMARK VINA RESULT:    -8.554      3.201      6.892
REMARK INTER + INTRA:         -12.761
REMARK INTER:                 -10.303
REMARK INTRA:                  -2.458
REMARK UNBOUND:                -0.706
REMARK  Name = 
REMARK  7 active torsions:
REMARK  status: ('A' for Active; 'I' for Inactive)
REMARK    1  A    between atoms: C_2  and  C_4
REMARK    2  A    between atoms: C_7  and  C_8
REMARK    3  A    between atoms: C_8  and  N_9
REMARK    4  A    between atoms: C_10  and  C_12
REMARK    5  A    between atoms: C_23  and  C_24
REMARK    6  A    between atoms: C_24  and  N_25
REMARK    7  A    between atoms: C_26  and  C_28
REMARK                            x       y       z     vdW  Elec       q    Type
REMARK                         _______ _______ _______ _____ _____    ______ ____
ROOT
ATOM      1  C   UNL     1      44.845   4.590  12.056  0.00  0.00    +0.000 A 
ATOM      2  C   UNL     1      44.241   5.659  11.372  0.00  0.00    +0.000 A 
ATOM      3  C   UNL     1      44.619   6.975  11.623  0.00  0.00    +0.000 A 
ATOM      4  C   UNL     1      45.567   7.257  12.605  0.00  0.00    +0.000 A 
ATOM      5  C   UNL     1      46.182   6.194  13.286  0.00  0.00    +0.000 A 
ATOM      6  C   UNL     1      45.855   4.850  13.006  0.00  0.00    +0.000 A 
ENDROOT
BRANCH   1   8
ATOM      7  N   UNL     1      44.757   2.630  10.606  0.00  0.00    +0.000 N 
ATOM      8  C   UNL     1      44.345   3.211  11.777  0.00  0.00    +0.000 C 
ATOM      9  O   UNL     1      43.593   2.620  12.541  0.00  0.00    +0.000 OA
ATOM     10  H   UNL     1      44.445   1.689  10.406  0.00  0.00    +0.000 HD
ATOM     11  H   UNL     1      45.478   3.019  10.014  0.00  0.00    +0.000 HD
ENDBRANCH   1   8
BRANCH   4  12
ATOM     12  C   UNL     1      45.933   8.686  12.895  0.00  0.00    +0.000 C 
BRANCH  12  13
ATOM     13  N   UNL     1      46.851   8.775  13.999  0.00  0.00    +0.000 N 
ATOM     14  C   UNL     1      48.097   9.338  13.923  0.00  0.00    +0.000 C 
ATOM     15  O   UNL     1      48.555   9.810  12.886  0.00  0.00    +0.000 OA
ATOM     16  H   UNL     1      46.639   8.170  14.782  0.00  0.00    +0.000 HD
BRANCH  14  17
ATOM     17  C   UNL     1      48.827   9.414  15.198  0.00  0.00    +0.000 A 
ATOM     18  C   UNL     1      48.939  10.623  15.873  0.00  0.00    +0.000 A 
ATOM     19  S   UNL     1      49.746  10.495  17.373  0.00  0.00    +0.000 S 
ATOM     20  C   UNL     1      50.023   8.829  17.145  0.00  0.00    +0.000 A 
ATOM     21  N   UNL     1      50.690   8.092  18.074  0.00  0.00    +0.000 NA
ATOM     22  C   UNL     1      50.845   6.848  17.758  0.00  0.00    +0.000 A 
ATOM     23  N   UNL     1      50.392   6.276  16.598  0.00  0.00    +0.000 N 
ATOM     24  C   UNL     1      49.679   6.969  15.656  0.00  0.00    +0.000 A 
ATOM     25  O   UNL     1      49.227   6.406  14.664  0.00  0.00    +0.000 OA
ATOM     26  C   UNL     1      49.489   8.378  15.954  0.00  0.00    +0.000 A 
ATOM     27  H   UNL     1      50.530   5.294  16.410  0.00  0.00    +0.000 HD
ENDBRANCH  14  17
ENDBRANCH  12  13
ENDBRANCH   4  12
BRANCH   6  28
ATOM     28  C   UNL     1      46.617   3.773  13.739  0.00  0.00    +0.000 C 
BRANCH  28  29
ATOM     29  N   UNL     1      46.965   4.174  15.080  0.00  0.00    +0.000 N 
ATOM     30  C   UNL     1      47.780   3.433  15.912  0.00  0.00    +0.000 C 
ATOM     31  O   UNL     1      48.356   2.408  15.575  0.00  0.00    +0.000 OA
ATOM     32  H   UNL     1      46.729   5.125  15.331  0.00  0.00    +0.000 HD
BRANCH  30  33
ATOM     33  C   UNL     1      47.927   3.974  17.292  0.00  0.00    +0.000 A 
ATOM     34  C   UNL     1      48.840   3.416  18.200  0.00  0.00    +0.000 A 
ATOM     35  C   UNL     1      48.994   3.964  19.476  0.00  0.00    +0.000 A 
ATOM     36  C   UNL     1      48.237   5.075  19.850  0.00  0.00    +0.000 A 
ATOM     37  C   UNL     1      47.329   5.636  18.952  0.00  0.00    +0.000 A 
ATOM     38  C   UNL     1      47.177   5.095  17.672  0.00  0.00    +0.000 A 
ENDBRANCH  30  33
ENDBRANCH  28  29
ENDBRANCH   6  28
TORSDOF 7
ENDMDL
MODEL 7
REMARK VINA RESULT:    -8.537      3.181      4.030
REMARK INTER + INTRA:         -12.737
REMARK INTER:                 -11.187
REMARK INTRA:                  -1.550
REMARK UNBOUND:                -0.706
REMARK  Name = 
REMARK  7 active torsions:
REMARK  status: ('A' for Active; 'I' for Inactive)
REMARK    1  A    between atoms: C_2  and  C_4
REMARK    2  A    between atoms: C_7  and  C_8
REMARK    3  A    between atoms: C_8  and  N_9
REMARK    4  A    between atoms: C_10  and  C_12
REMARK    5  A    between atoms: C_23  and  C_24
REMARK    6  A    between atoms: C_24  and  N_25
REMARK    7  A    between atoms: C_26  and  C_28
REMARK                            x       y       z     vdW  Elec       q    Type
REMARK                         _______ _______ _______ _____ _____    ______ ____
ROOT
ATOM      1  C   UNL     1      45.554   5.033  12.752  0.00  0.00    +0.000 A 
ATOM      2  C   UNL     1      46.409   5.432  13.794  0.00  0.00    +0.000 A 
ATOM      3  C   UNL     1      47.200   6.570  13.676  0.00  0.00    +0.000 A 
ATOM      4  C   UNL     1      47.201   7.304  12.492  0.00  0.00    +0.000 A 
ATOM      5  C   UNL     1      46.343   6.919  11.449  0.00  0.00    +0.000 A 
ATOM      6  C   UNL     1      45.489   5.801  11.570  0.00  0.00    +0.000 A 
ENDROOT
BRANCH   1   8
ATOM      7  N   UNL     1      45.398   2.608  12.538  0.00  0.00    +0.000 N 
ATOM      8  C   UNL     1      44.781   3.769  12.927  0.00  0.00    +0.000 C 
ATOM      9  O   UNL     1      43.644   3.753  13.381  0.00  0.00    +0.000 OA
ATOM     10  H   UNL     1      44.898   1.738  12.664  0.00  0.00    +0.000 HD
ATOM     11  H   UNL     1      46.375   2.554  12.285  0.00  0.00    +0.000 HD
ENDBRANCH   1   8
BRANCH   4  12
ATOM     12  C   UNL     1      48.094   8.507  12.363  0.00  0.00    +0.000 C 
BRANCH  12  13
ATOM     13  N   UNL     1      48.768   8.790  13.602  0.00  0.00    +0.000 N 
ATOM     14  C   UNL     1      50.108   8.603  13.813  0.00  0.00    +0.000 C 
ATOM     15  O   UNL     1      50.863   8.154  12.956  0.00  0.00    +0.000 OA
ATOM     16  H   UNL     1      48.160   8.897  14.405  0.00  0.00    +0.000 HD
BRANCH  14  17
ATOM     17  C   UNL     1      50.603   9.057  15.122  0.00  0.00    +0.000 A 
ATOM     18  C   UNL     1      51.025  10.369  15.298  0.00  0.00    +0.000 A 
ATOM     19  S   UNL     1      51.483  10.728  16.903  0.00  0.00    +0.000 S 
ATOM     20  C   UNL     1      51.189   9.127  17.405  0.00  0.00    +0.000 A 
ATOM     21  N   UNL     1      51.396   8.743  18.694  0.00  0.00    +0.000 NA
ATOM     22  C   UNL     1      51.152   7.495  18.925  0.00  0.00    +0.000 A 
ATOM     23  N   UNL     1      50.719   6.598  17.984  0.00  0.00    +0.000 N 
ATOM     24  C   UNL     1      50.456   6.949  16.687  0.00  0.00    +0.000 A 
ATOM     25  O   UNL     1      49.999   6.135  15.891  0.00  0.00    +0.000 OA
ATOM     26  C   UNL     1      50.728   8.340  16.368  0.00  0.00    +0.000 A 
ATOM     27  H   UNL     1      50.530   5.636  18.226  0.00  0.00    +0.000 HD
ENDBRANCH  14  17
ENDBRANCH  12  13
ENDBRANCH   4  12
BRANCH   6  28
ATOM     28  C   UNL     1      44.553   5.503  10.424  0.00  0.00    +0.000 C 
BRANCH  28  29
ATOM     29  N   UNL     1      45.195   4.736   9.386  0.00  0.00    +0.000 N 
ATOM     30  C   UNL     1      44.915   3.409   9.132  0.00  0.00    +0.000 C 
ATOM     31  O   UNL     1      44.042   2.769   9.700  0.00  0.00    +0.000 OA
ATOM     32  H   UNL     1      45.741   5.267   8.720  0.00  0.00    +0.000 HD
BRANCH  30  33
ATOM     33  C   UNL     1      45.766   2.777   8.085  0.00  0.00    +0.000 A 
ATOM     34  C   UNL     1      46.214   1.453   8.212  0.00  0.00    +0.000 A 
ATOM     35  C   UNL     1      46.976   0.864   7.200  0.00  0.00    +0.000 A 
ATOM     36  C   UNL     1      47.293   1.595   6.054  0.00  0.00    +0.000 A 
ATOM     37  C   UNL     1      46.848   2.911   5.920  0.00  0.00    +0.000 A 
ATOM     38  C   UNL     1      46.080   3.501   6.928  0.00  0.00    +0.000 A 
ENDBRANCH  30  33
ENDBRANCH  28  29
ENDBRANCH   6  28
TORSDOF 7
ENDMDL
MODEL 8
REMARK VINA RESULT:    -8.445      3.571      9.202
REMARK INTER + INTRA:         -12.607
REMARK INTER:                 -11.291
REMARK INTRA:                  -1.316
REMARK UNBOUND:                -0.706
REMARK  Name = 
REMARK  7 active torsions:
REMARK  status: ('A' for Active; 'I' for Inactive)
REMARK    1  A    between atoms: C_2  and  C_4
REMARK    2  A    between atoms: C_7  and  C_8
REMARK    3  A    between atoms: C_8  and  N_9
REMARK    4  A    between atoms: C_10  and  C_12
REMARK    5  A    between atoms: C_23  and  C_24
REMARK    6  A    between atoms: C_24  and  N_25
REMARK    7  A    between atoms: C_26  and  C_28
REMARK                            x       y       z     vdW  Elec       q    Type
REMARK                         _______ _______ _______ _____ _____    ______ ____
ROOT
ATOM      1  C   UNL     1      48.540   5.850  19.278  0.00  0.00    +0.000 A 
ATOM      2  C   UNL     1      48.387   7.242  19.168  0.00  0.00    +0.000 A 
ATOM      3  C   UNL     1      48.448   7.874  17.930  0.00  0.00    +0.000 A 
ATOM      4  C   UNL     1      48.721   7.137  16.779  0.00  0.00    +0.000 A 
ATOM      5  C   UNL     1      48.865   5.744  16.879  0.00  0.00    +0.000 A 
ATOM      6  C   UNL     1      48.750   5.076  18.117  0.00  0.00    +0.000 A 
ENDROOT
BRANCH   1   8
ATOM      7  N   UNL     1      47.352   5.354  21.350  0.00  0.00    +0.000 N 
ATOM      8  C   UNL     1      48.523   5.251  20.645  0.00  0.00    +0.000 C 
ATOM      9  O   UNL     1      49.503   4.703  21.133  0.00  0.00    +0.000 OA
ATOM     10  H   UNL     1      47.313   4.940  22.272  0.00  0.00    +0.000 HD
ATOM     11  H   UNL     1      46.483   5.674  20.945  0.00  0.00    +0.000 HD
ENDBRANCH   1   8
BRANCH   4  12
ATOM     12  C   UNL     1      48.827   7.840  15.454  0.00  0.00    +0.000 C 
BRANCH  12  13
ATOM     13  N   UNL     1      47.728   7.494  14.591  0.00  0.00    +0.000 N 
ATOM     14  C   UNL     1      47.834   6.678  13.497  0.00  0.00    +0.000 C 
ATOM     15  O   UNL     1      48.894   6.172  13.139  0.00  0.00    +0.000 OA
ATOM     16  H   UNL     1      46.914   8.088  14.677  0.00  0.00    +0.000 HD
BRANCH  14  17
ATOM     17  C   UNL     1      46.563   6.375  12.819  0.00  0.00    +0.000 A 
ATOM     18  C   UNL     1      45.823   7.390  12.228  0.00  0.00    +0.000 A 
ATOM     19  S   UNL     1      44.426   6.832  11.419  0.00  0.00    +0.000 S 
ATOM     20  C   UNL     1      44.732   5.222  11.881  0.00  0.00    +0.000 A 
ATOM     21  N   UNL     1      43.895   4.213  11.520  0.00  0.00    +0.000 NA
ATOM     22  C   UNL     1      44.241   3.047  11.959  0.00  0.00    +0.000 A 
ATOM     23  N   UNL     1      45.350   2.801  12.726  0.00  0.00    +0.000 N 
ATOM     24  C   UNL     1      46.243   3.778  13.077  0.00  0.00    +0.000 A 
ATOM     25  O   UNL     1      47.263   3.507  13.703  0.00  0.00    +0.000 OA
ATOM     26  C   UNL     1      45.893   5.112  12.622  0.00  0.00    +0.000 A 
ATOM     27  H   UNL     1      45.579   1.866  13.030  0.00  0.00    +0.000 HD
ENDBRANCH  14  17
ENDBRANCH  12  13
ENDBRANCH   4  12
BRANCH   6  28
ATOM     28  C   UNL     1      48.852   3.571  18.117  0.00  0.00    +0.000 C 
BRANCH  28  29
ATOM     29  N   UNL     1      50.216   3.121  18.243  0.00  0.00    +0.000 N 
ATOM     30  C   UNL     1      50.801   2.206  17.391  0.00  0.00    +0.000 C 
ATOM     31  O   UNL     1      50.257   1.746  16.397  0.00  0.00    +0.000 OA
ATOM     32  H   UNL     1      50.795   3.646  18.885  0.00  0.00    +0.000 HD
BRANCH  30  33
ATOM     33  C   UNL     1      52.185   1.799  17.761  0.00  0.00    +0.000 A 
ATOM     34  C   UNL     1      52.719   0.568  17.347  0.00  0.00    +0.000 A 
ATOM     35  C   UNL     1      54.033   0.223  17.668  0.00  0.00    +0.000 A 
ATOM     36  C   UNL     1      54.824   1.107  18.404  0.00  0.00    +0.000 A 
ATOM     37  C   UNL     1      54.301   2.333  18.817  0.00  0.00    +0.000 A 
ATOM     38  C   UNL     1      52.988   2.685  18.491  0.00  0.00    +0.000 A 
ENDBRANCH  30  33
ENDBRANCH  28  29
ENDBRANCH   6  28
TORSDOF 7
ENDMDL
MODEL 9
REMARK VINA RESULT:    -8.229      2.693      3.739
REMARK INTER + INTRA:         -12.302
REMARK INTER:                 -11.051
REMARK INTRA:                  -1.251
REMARK UNBOUND:                -0.706
REMARK  Name = 
REMARK  7 active torsions:
REMARK  status: ('A' for Active; 'I' for Inactive)
REMARK    1  A    between atoms: C_2  and  C_4
REMARK    2  A    between atoms: C_7  and  C_8
REMARK    3  A    between atoms: C_8  and  N_9
REMARK    4  A    between atoms: C_10  and  C_12
REMARK    5  A    between atoms: C_23  and  C_24
REMARK    6  A    between atoms: C_24  and  N_25
REMARK    7  A    between atoms: C_26  and  C_28
REMARK                            x       y       z     vdW  Elec       q    Type
REMARK                         _______ _______ _______ _____ _____    ______ ____
ROOT
ATOM      1  C   UNL     1      45.966   8.909  12.476  0.00  0.00    +0.000 A 
ATOM      2  C   UNL     1      47.059   9.261  13.285  0.00  0.00    +0.000 A 
ATOM      3  C   UNL     1      47.824   8.288  13.920  0.00  0.00    +0.000 A 
ATOM      4  C   UNL     1      47.479   6.942  13.809  0.00  0.00    +0.000 A 
ATOM      5  C   UNL     1      46.394   6.580  12.994  0.00  0.00    +0.000 A 
ATOM      6  C   UNL     1      45.641   7.548  12.295  0.00  0.00    +0.000 A 
ENDROOT
BRANCH   1   8
ATOM      7  N   UNL     1      43.917  10.232  12.418  0.00  0.00    +0.000 N 
ATOM      8  C   UNL     1      45.156  10.010  11.876  0.00  0.00    +0.000 C 
ATOM      9  O   UNL     1      45.560  10.683  10.936  0.00  0.00    +0.000 OA
ATOM     10  H   UNL     1      43.359  10.985  12.037  0.00  0.00    +0.000 HD
ATOM     11  H   UNL     1      43.596   9.798  13.272  0.00  0.00    +0.000 HD
ENDBRANCH   1   8
BRANCH   4  12
ATOM     12  C   UNL     1      48.289   5.905  14.536  0.00  0.00    +0.000 C 
BRANCH  12  13
ATOM     13  N   UNL     1      48.057   5.965  15.955  0.00  0.00    +0.000 N 
ATOM     14  C   UNL     1      49.019   5.738  16.904  0.00  0.00    +0.000 C 
ATOM     15  O   UNL     1      50.177   5.443  16.625  0.00  0.00    +0.000 OA
ATOM     16  H   UNL     1      47.085   5.932  16.232  0.00  0.00    +0.000 HD
BRANCH  14  17
ATOM     17  C   UNL     1      48.587   5.955  18.294  0.00  0.00    +0.000 A 
ATOM     18  C   UNL     1      48.606   4.909  19.207  0.00  0.00    +0.000 A 
ATOM     19  S   UNL     1      48.152   5.375  20.787  0.00  0.00    +0.000 S 
ATOM     20  C   UNL     1      47.859   6.978  20.290  0.00  0.00    +0.000 A 
ATOM     21  N   UNL     1      47.425   7.920  21.170  0.00  0.00    +0.000 NA
ATOM     22  C   UNL     1      47.224   9.086  20.648  0.00  0.00    +0.000 A 
ATOM     23  N   UNL     1      47.419   9.393  19.327  0.00  0.00    +0.000 N 
ATOM     24  C   UNL     1      47.896   8.489  18.415  0.00  0.00    +0.000 A 
ATOM     25  O   UNL     1      48.128   8.821  17.258  0.00  0.00    +0.000 OA
ATOM     26  C   UNL     1      48.124   7.156  18.946  0.00  0.00    +0.000 A 
ATOM     27  H   UNL     1      47.259  10.327  18.978  0.00  0.00    +0.000 HD
ENDBRANCH  14  17
ENDBRANCH  12  13
ENDBRANCH   4  12
BRANCH   6  28
ATOM     28  C   UNL     1      44.536   7.060  11.390  0.00  0.00    +0.000 C 
BRANCH  28  29
ATOM     29  N   UNL     1      45.002   6.070  10.452  0.00  0.00    +0.000 N 
ATOM     30  C   UNL     1      44.444   4.813  10.327  0.00  0.00    +0.000 C 
ATOM     31  O   UNL     1      43.451   4.438  10.934  0.00  0.00    +0.000 OA
ATOM     32  H   UNL     1      45.652   6.399   9.750  0.00  0.00    +0.000 HD
BRANCH  30  33
ATOM     33  C   UNL     1      45.143   3.908   9.372  0.00  0.00    +0.000 A 
ATOM     34  C   UNL     1      45.041   2.513   9.483  0.00  0.00    +0.000 A 
ATOM     35  C   UNL     1      45.669   1.682   8.553  0.00  0.00    +0.000 A 
ATOM     36  C   UNL     1      46.402   2.240   7.505  0.00  0.00    +0.000 A 
ATOM     37  C   UNL     1      46.506   3.626   7.387  0.00  0.00    +0.000 A 
ATOM     38  C   UNL     1      45.873   4.462   8.312  0.00  0.00    +0.000 A 
ENDBRANCH  30  33
ENDBRANCH  28  29
ENDBRANCH   6  28
TORSDOF 7
ENDMDL
