MODEL 1
REMARK VINA RESULT:    -8.227      0.000      0.000
REMARK INTER + INTRA:         -12.082
REMARK INTER:                 -11.113
REMARK INTRA:                  -0.969
REMARK UNBOUND:                -0.969
REMARK  Name = 
REMARK  6 active torsions:
REMARK  status: ('A' for Active; 'I' for Inactive)
REMARK    1  A    between atoms: C_2  and  C_3
REMARK    2  A    between atoms: C_6  and  N_7
REMARK    3  A    between atoms: N_7  and  C_8
REMARK    4  A    between atoms: C_8  and  C_9
REMARK    5  A    between atoms: C_9  and  C_12
REMARK    6  A    between atoms: C_16  and  C_17
REMARK                            x       y       z     vdW  Elec       q    Type
REMARK                         _______ _______ _______ _____ _____    ______ ____
ROOT
ATOM      1  C   UNL     1      43.292   4.798  12.552  0.00  0.00    +0.000 C 
ATOM      2  F   UNL     1      42.366   5.761  12.269  0.00  0.00    +0.000 F 
ATOM      3  F   UNL     1      42.842   4.187  13.689  0.00  0.00    +0.000 F 
ENDROOT
BRANCH   1   4
ATOM      4  C   UNL     1      44.688   5.372  12.725  0.00  0.00    +0.000 A 
ATOM      5  C   UNL     1      45.701   4.621  13.331  0.00  0.00    +0.000 A 
ATOM      6  C   UNL     1      46.955   5.185  13.552  0.00  0.00    +0.000 A 
ATOM      7  C   UNL     1      47.204   6.512  13.189  0.00  0.00    +0.000 A 
ATOM      8  C   UNL     1      46.217   7.306  12.576  0.00  0.00    +0.000 A 
ATOM      9  C   UNL     1      44.969   6.697  12.333  0.00  0.00    +0.000 A 
BRANCH   8  10
ATOM     10  C   UNL     1      46.465   8.735  12.249  0.00  0.00    +0.000 A 
ATOM     11  C   UNL     1      45.412   9.652  12.063  0.00  0.00    +0.000 A 
ATOM     12  C   UNL     1      45.653  10.981  11.698  0.00  0.00    +0.000 A 
ATOM     13  C   UNL     1      46.957  11.435  11.527  0.00  0.00    +0.000 A 
ATOM     14  C   UNL     1      48.018  10.559  11.722  0.00  0.00    +0.000 A 
ATOM     15  C   UNL     1      47.773   9.226  12.072  0.00  0.00    +0.000 A 
ENDBRANCH   8  10
ENDBRANCH   1   4
BRANCH   1  16
ATOM     16  C   UNL     1      43.292   3.759  11.397  0.00  0.00    +0.000 C 
BRANCH  16  17
ATOM     17  N   UNL     1      43.706   4.287  10.096  0.00  0.00    +0.000 N 
ATOM     18  H   UNL     1      43.338   5.173   9.764  0.00  0.00    +0.000 HD
BRANCH  17  22
ATOM     19  C   UNL     1      46.501   2.551   7.660  0.00  0.00    +0.000 A 
ATOM     20  C   UNL     1      46.245   3.913   7.645  0.00  0.00    +0.000 A 
ATOM     21  N   UNL     1      45.318   4.498   8.452  0.00  0.00    +0.000 NA
ATOM     22  C   UNL     1      44.632   3.685   9.284  0.00  0.00    +0.000 A 
ATOM     23  C   UNL     1      44.896   2.312   9.269  0.00  0.00    +0.000 A 
ATOM     24  N   UNL     1      45.823   1.713   8.476  0.00  0.00    +0.000 NA
BRANCH  19  26
ATOM     25  N   UNL     1      48.316   1.523   6.121  0.00  0.00    +0.000 NA
ATOM     26  C   UNL     1      47.505   1.970   6.820  0.00  0.00    +0.000 C 
ENDBRANCH  19  26
ENDBRANCH  17  22
ENDBRANCH  16  17
ENDBRANCH   1  16
TORSDOF 6
ENDMDL
MODEL 2
REMARK VINA RESULT:    -8.028      3.463      7.407
REMARK INTER + INTRA:         -11.813
REMARK INTER:                 -10.993
REMARK INTRA:                  -0.820
REMARK UNBOUND:                -0.969
REMARK  Name = 
REMARK  6 active torsions:
REMARK  status: ('A' for Active; 'I' for Inactive)
REMARK    1  A    between atoms: C_2  and  C_3
REMARK    2  A    between atoms: C_6  and  N_7
REMARK    3  A    between atoms: N_7  and  C_8
REMARK    4  A    between atoms: C_8  and  C_9
REMARK    5  A    between atoms: C_9  and  C_12
REMARK    6  A    between atoms: C_16  and  C_17
REMARK                            x       y       z     vdW  Elec       q    Type
REMARK                         _______ _______ _______ _____ _____    ______ ____
ROOT
ATOM      1  C   UNL     1      44.656   6.413  11.434  0.00  0.00    +0.000 C 
ATOM      2  F   UNL     1      43.493   7.128  11.474  0.00  0.00    +0.000 F 
ATOM      3  F   UNL     1      45.506   7.147  10.656  0.00  0.00    +0.000 F 
ENDROOT
BRANCH   1   4
ATOM      4  C   UNL     1      44.451   5.008  10.891  0.00  0.00    +0.000 A 
ATOM      5  C   UNL     1      43.637   4.093  11.567  0.00  0.00    +0.000 A 
ATOM      6  C   UNL     1      43.518   2.786  11.102  0.00  0.00    +0.000 A 
ATOM      7  C   UNL     1      44.227   2.374   9.970  0.00  0.00    +0.000 A 
ATOM      8  C   UNL     1      45.057   3.259   9.257  0.00  0.00    +0.000 A 
ATOM      9  C   UNL     1      45.131   4.585   9.731  0.00  0.00    +0.000 A 
BRANCH   8  10
ATOM     10  C   UNL     1      45.858   2.802   8.091  0.00  0.00    +0.000 A 
ATOM     11  C   UNL     1      46.426   1.515   8.033  0.00  0.00    +0.000 A 
ATOM     12  C   UNL     1      47.227   1.114   6.958  0.00  0.00    +0.000 A 
ATOM     13  C   UNL     1      47.467   1.986   5.901  0.00  0.00    +0.000 A 
ATOM     14  C   UNL     1      46.905   3.257   5.920  0.00  0.00    +0.000 A 
ATOM     15  C   UNL     1      46.118   3.660   7.004  0.00  0.00    +0.000 A 
ENDBRANCH   8  10
ENDBRANCH   1   4
BRANCH   1  16
ATOM     16  C   UNL     1      45.239   6.340  12.872  0.00  0.00    +0.000 C 
BRANCH  16  17
ATOM     17  N   UNL     1      46.473   5.562  12.996  0.00  0.00    +0.000 N 
ATOM     18  H   UNL     1      46.932   5.198  12.167  0.00  0.00    +0.000 HD
BRANCH  17  22
ATOM     19  C   UNL     1      48.367   4.791  16.542  0.00  0.00    +0.000 A 
ATOM     20  C   UNL     1      47.343   3.993  16.059  0.00  0.00    +0.000 A 
ATOM     21  N   UNL     1      46.708   4.242  14.880  0.00  0.00    +0.000 NA
ATOM     22  C   UNL     1      47.115   5.325  14.183  0.00  0.00    +0.000 A 
ATOM     23  C   UNL     1      48.139   6.125  14.701  0.00  0.00    +0.000 A 
ATOM     24  N   UNL     1      48.788   5.887  15.870  0.00  0.00    +0.000 NA
BRANCH  19  26
ATOM     25  N   UNL     1      49.600   4.219  18.750  0.00  0.00    +0.000 NA
ATOM     26  C   UNL     1      49.037   4.485  17.771  0.00  0.00    +0.000 C 
ENDBRANCH  19  26
ENDBRANCH  17  22
ENDBRANCH  16  17
ENDBRANCH   1  16
TORSDOF 6
ENDMDL
MODEL 3
REMARK VINA RESULT:    -7.987      2.140      4.217
REMARK INTER + INTRA:         -11.758
REMARK INTER:                 -10.794
REMARK INTRA:                  -0.964
REMARK UNBOUND:                -0.969
REMARK  Name = 
REMARK  6 active torsions:
REMARK  status: ('A' for Active; 'I' for Inactive)
REMARK    1  A    between atoms: C_2  and  C_3
REMARK    2  A    between atoms: C_6  and  N_7
REMARK    3  A    between atoms: N_7  and  C_8
REMARK    4  A    between atoms: C_8  and  C_9
REMARK    5  A    between atoms: C_9  and  C_12
REMARK    6  A    between atoms: C_16  and  C_17
REMARK                            x       y       z     vdW  Elec       q    Type
REMARK                         _______ _______ _______ _____ _____    ______ ____
ROOT
ATOM      1  C   UNL     1      44.075   4.544  12.388  0.00  0.00    +0.000 C 
ATOM      2  F   UNL     1      43.029   4.938  13.173  0.00  0.00    +0.000 F 
ATOM      3  F   UNL     1      44.076   3.179  12.446  0.00  0.00    +0.000 F 
ENDROOT
BRANCH   1   4
ATOM      4  C   UNL     1      45.396   5.139  12.846  0.00  0.00    +0.000 A 
ATOM      5  C   UNL     1      46.115   6.006  12.016  0.00  0.00    +0.000 A 
ATOM      6  C   UNL     1      47.360   6.485  12.416  0.00  0.00    +0.000 A 
ATOM      7  C   UNL     1      47.910   6.085  13.637  0.00  0.00    +0.000 A 
ATOM      8  C   UNL     1      47.224   5.215  14.505  0.00  0.00    +0.000 A 
ATOM      9  C   UNL     1      45.950   4.775  14.090  0.00  0.00    +0.000 A 
BRANCH   8  10
ATOM     10  C   UNL     1      47.837   4.742  15.774  0.00  0.00    +0.000 A 
ATOM     11  C   UNL     1      48.687   5.560  16.543  0.00  0.00    +0.000 A 
ATOM     12  C   UNL     1      49.305   5.086  17.706  0.00  0.00    +0.000 A 
ATOM     13  C   UNL     1      49.077   3.785  18.140  0.00  0.00    +0.000 A 
ATOM     14  C   UNL     1      48.228   2.959  17.412  0.00  0.00    +0.000 A 
ATOM     15  C   UNL     1      47.623   3.430  16.242  0.00  0.00    +0.000 A 
ENDBRANCH   8  10
ENDBRANCH   1   4
BRANCH   1  16
ATOM     16  C   UNL     1      43.784   4.978  10.924  0.00  0.00    +0.000 C 
BRANCH  16  17
ATOM     17  N   UNL     1      43.590   3.874   9.983  0.00  0.00    +0.000 N 
ATOM     18  H   UNL     1      42.674   3.447   9.879  0.00  0.00    +0.000 HD
BRANCH  17  22
ATOM     19  C   UNL     1      46.537   2.490   7.502  0.00  0.00    +0.000 A 
ATOM     20  C   UNL     1      46.104   3.806   7.479  0.00  0.00    +0.000 A 
ATOM     21  N   UNL     1      45.124   4.274   8.302  0.00  0.00    +0.000 NA
ATOM     22  C   UNL     1      44.569   3.390   9.157  0.00  0.00    +0.000 A 
ATOM     23  C   UNL     1      45.012   2.063   9.150  0.00  0.00    +0.000 A 
ATOM     24  N   UNL     1      45.993   1.581   8.343  0.00  0.00    +0.000 NA
BRANCH  19  26
ATOM     25  N   UNL     1      48.426   1.645   5.940  0.00  0.00    +0.000 NA
ATOM     26  C   UNL     1      47.592   2.035   6.646  0.00  0.00    +0.000 C 
ENDBRANCH  19  26
ENDBRANCH  17  22
ENDBRANCH  16  17
ENDBRANCH   1  16
TORSDOF 6
ENDMDL
MODEL 4
REMARK VINA RESULT:    -7.279      1.915      2.931
REMARK INTER + INTRA:         -10.802
REMARK INTER:                  -9.998
REMARK INTRA:                  -0.804
REMARK UNBOUND:                -0.969
REMARK  Name = 
REMARK  6 active torsions:
REMARK  status: ('A' for Active; 'I' for Inactive)
REMARK    1  A    between atoms: C_2  and  C_3
REMARK    2  A    between atoms: C_6  and  N_7
REMARK    3  A    between atoms: N_7  and  C_8
REMARK    4  A    between atoms: C_8  and  C_9
REMARK    5  A    between atoms: C_9  and  C_12
REMARK    6  A    between atoms: C_16  and  C_17
REMARK                            x       y       z     vdW  Elec       q    Type
REMARK                         _______ _______ _______ _____ _____    ______ ____
ROOT
ATOM      1  C   UNL     1      44.699   5.421  12.078  0.00  0.00    +0.000 C 
ATOM      2  F   UNL     1      44.030   5.103  13.226  0.00  0.00    +0.000 F 
ATOM      3  F   UNL     1      45.739   4.537  12.008  0.00  0.00    +0.000 F 
ENDROOT
BRANCH   1   4
ATOM      4  C   UNL     1      45.172   6.865  12.068  0.00  0.00    +0.000 A 
ATOM      5  C   UNL     1      46.335   7.242  12.749  0.00  0.00    +0.000 A 
ATOM      6  C   UNL     1      46.717   8.580  12.795  0.00  0.00    +0.000 A 
ATOM      7  C   UNL     1      45.930   9.559  12.181  0.00  0.00    +0.000 A 
ATOM      8  C   UNL     1      44.752   9.228  11.485  0.00  0.00    +0.000 A 
ATOM      9  C   UNL     1      44.410   7.861  11.424  0.00  0.00    +0.000 A 
BRANCH   8  10
ATOM     10  C   UNL     1      43.885  10.276  10.887  0.00  0.00    +0.000 A 
ATOM     11  C   UNL     1      44.298  11.618  10.782  0.00  0.00    +0.000 A 
ATOM     12  C   UNL     1      43.452  12.609  10.270  0.00  0.00    +0.000 A 
ATOM     13  C   UNL     1      42.174  12.280   9.833  0.00  0.00    +0.000 A 
ATOM     14  C   UNL     1      41.744  10.960   9.905  0.00  0.00    +0.000 A 
ATOM     15  C   UNL     1      42.586   9.975  10.431  0.00  0.00    +0.000 A 
ENDBRANCH   8  10
ENDBRANCH   1   4
BRANCH   1  16
ATOM     16  C   UNL     1      43.753   5.171  10.871  0.00  0.00    +0.000 C 
BRANCH  16  17
ATOM     17  N   UNL     1      43.824   3.824  10.304  0.00  0.00    +0.000 N 
ATOM     18  H   UNL     1      43.133   3.125  10.560  0.00  0.00    +0.000 HD
BRANCH  17  22
ATOM     19  C   UNL     1      46.570   2.584   7.533  0.00  0.00    +0.000 A 
ATOM     20  C   UNL     1      45.945   1.706   8.403  0.00  0.00    +0.000 A 
ATOM     21  N   UNL     1      45.029   2.110   9.327  0.00  0.00    +0.000 NA
ATOM     22  C   UNL     1      44.750   3.430   9.375  0.00  0.00    +0.000 A 
ATOM     23  C   UNL     1      45.408   4.299   8.497  0.00  0.00    +0.000 A 
ATOM     24  N   UNL     1      46.317   3.912   7.564  0.00  0.00    +0.000 NA
BRANCH  19  26
ATOM     25  N   UNL     1      48.259   1.722   5.765  0.00  0.00    +0.000 NA
ATOM     26  C   UNL     1      47.506   2.124   6.550  0.00  0.00    +0.000 C 
ENDBRANCH  19  26
ENDBRANCH  17  22
ENDBRANCH  16  17
ENDBRANCH   1  16
TORSDOF 6
ENDMDL
MODEL 5
REMARK VINA RESULT:    -7.184      4.007      7.497
REMARK INTER + INTRA:         -10.673
REMARK INTER:                  -9.818
REMARK INTRA:                  -0.855
REMARK UNBOUND:                -0.969
REMARK  Name = 
REMARK  6 active torsions:
REMARK  status: ('A' for Active; 'I' for Inactive)
REMARK    1  A    between atoms: C_2  and  C_3
REMARK    2  A    between atoms: C_6  and  N_7
REMARK    3  A    between atoms: N_7  and  C_8
REMARK    4  A    between atoms: C_8  and  C_9
REMARK    5  A    between atoms: C_9  and  C_12
REMARK    6  A    between atoms: C_16  and  C_17
REMARK                            x       y       z     vdW  Elec       q    Type
REMARK                         _______ _______ _______ _____ _____    ______ ____
ROOT
ATOM      1  C   UNL     1      45.824   7.390  12.251  0.00  0.00    +0.000 C 
ATOM      2  F   UNL     1      45.096   7.996  13.235  0.00  0.00    +0.000 F 
ATOM      3  F   UNL     1      46.235   8.402  11.429  0.00  0.00    +0.000 F 
ENDROOT
BRANCH   1   4
ATOM      4  C   UNL     1      45.023   6.336  11.506  0.00  0.00    +0.000 A 
ATOM      5  C   UNL     1      43.699   6.058  11.865  0.00  0.00    +0.000 A 
ATOM      6  C   UNL     1      43.000   5.038  11.226  0.00  0.00    +0.000 A 
ATOM      7  C   UNL     1      43.622   4.270  10.237  0.00  0.00    +0.000 A 
ATOM      8  C   UNL     1      44.951   4.512   9.842  0.00  0.00    +0.000 A 
ATOM      9  C   UNL     1      45.622   5.575  10.482  0.00  0.00    +0.000 A 
BRANCH   8  10
ATOM     10  C   UNL     1      45.630   3.655   8.836  0.00  0.00    +0.000 A 
ATOM     11  C   UNL     1      46.263   4.195   7.700  0.00  0.00    +0.000 A 
ATOM     12  C   UNL     1      46.850   3.376   6.728  0.00  0.00    +0.000 A 
ATOM     13  C   UNL     1      46.834   1.993   6.875  0.00  0.00    +0.000 A 
ATOM     14  C   UNL     1      46.233   1.431   7.996  0.00  0.00    +0.000 A 
ATOM     15  C   UNL     1      45.634   2.251   8.957  0.00  0.00    +0.000 A 
ENDBRANCH   8  10
ENDBRANCH   1   4
BRANCH   1  16
ATOM     16  C   UNL     1      47.077   6.736  12.897  0.00  0.00    +0.000 C 
BRANCH  16  17
ATOM     17  N   UNL     1      46.789   5.652  13.837  0.00  0.00    +0.000 N 
ATOM     18  H   UNL     1      46.034   5.000  13.647  0.00  0.00    +0.000 HD
BRANCH  17  22
ATOM     19  C   UNL     1      49.000   4.966  17.212  0.00  0.00    +0.000 A 
ATOM     20  C   UNL     1      49.250   6.033  16.365  0.00  0.00    +0.000 A 
ATOM     21  N   UNL     1      48.519   6.269  15.241  0.00  0.00    +0.000 NA
ATOM     22  C   UNL     1      47.521   5.401  14.967  0.00  0.00    +0.000 A 
ATOM     23  C   UNL     1      47.300   4.322  15.829  0.00  0.00    +0.000 A 
ATOM     24  N   UNL     1      48.014   4.077  16.959  0.00  0.00    +0.000 NA
BRANCH  19  26
ATOM     25  N   UNL     1      50.415   4.605  19.355  0.00  0.00    +0.000 NA
ATOM     26  C   UNL     1      49.768   4.763  18.406  0.00  0.00    +0.000 C 
ENDBRANCH  19  26
ENDBRANCH  17  22
ENDBRANCH  16  17
ENDBRANCH   1  16
TORSDOF 6
ENDMDL
MODEL 6
REMARK VINA RESULT:    -7.107      3.662      7.374
REMARK INTER + INTRA:         -10.569
REMARK INTER:                  -9.709
REMARK INTRA:                  -0.860
REMARK UNBOUND:                -0.969
REMARK  Name = 
REMARK  6 active torsions:
REMARK  status: ('A' for Active; 'I' for Inactive)
REMARK    1  A    between atoms: C_2  and  C_3
REMARK    2  A    between atoms: C_6  and  N_7
REMARK    3  A    between atoms: N_7  and  C_8
REMARK    4  A    between atoms: C_8  and  C_9
REMARK    5  A    between atoms: C_9  and  C_12
REMARK    6  A    between atoms: C_16  and  C_17
REMARK                            x       y       z     vdW  Elec       q    Type
REMARK                         _______ _______ _______ _____ _____    ______ ____
ROOT
ATOM      1  C   UNL     1      44.941   6.834  11.372  0.00  0.00    +0.000 C 
ATOM      2  F   UNL     1      43.919   7.704  11.118  0.00  0.00    +0.000 F 
ATOM      3  F   UNL     1      46.024   7.346  10.716  0.00  0.00    +0.000 F 
ENDROOT
BRANCH   1   4
ATOM      4  C   UNL     1      44.617   5.418  10.926  0.00  0.00    +0.000 A 
ATOM      5  C   UNL     1      43.729   4.623  11.658  0.00  0.00    +0.000 A 
ATOM      6  C   UNL     1      43.499   3.302  11.283  0.00  0.00    +0.000 A 
ATOM      7  C   UNL     1      44.170   2.755  10.185  0.00  0.00    +0.000 A 
ATOM      8  C   UNL     1      45.072   3.515   9.418  0.00  0.00    +0.000 A 
ATOM      9  C   UNL     1      45.257   4.860   9.801  0.00  0.00    +0.000 A 
BRANCH   8  10
ATOM     10  C   UNL     1      45.831   2.913   8.290  0.00  0.00    +0.000 A 
ATOM     11  C   UNL     1      46.175   3.653   7.143  0.00  0.00    +0.000 A 
ATOM     12  C   UNL     1      46.839   3.063   6.061  0.00  0.00    +0.000 A 
ATOM     13  C   UNL     1      47.192   1.719   6.106  0.00  0.00    +0.000 A 
ATOM     14  C   UNL     1      46.884   0.966   7.234  0.00  0.00    +0.000 A 
ATOM     15  C   UNL     1      46.206   1.556   8.306  0.00  0.00    +0.000 A 
ENDBRANCH   8  10
ENDBRANCH   1   4
BRANCH   1  16
ATOM     16  C   UNL     1      45.233   6.849  12.898  0.00  0.00    +0.000 C 
BRANCH  16  17
ATOM     17  N   UNL     1      46.023   7.990  13.361  0.00  0.00    +0.000 N 
ATOM     18  H   UNL     1      45.592   8.904  13.459  0.00  0.00    +0.000 HD
BRANCH  17  22
ATOM     19  C   UNL     1      49.932   7.782  14.560  0.00  0.00    +0.000 A 
ATOM     20  C   UNL     1      49.037   8.692  15.099  0.00  0.00    +0.000 A 
ATOM     21  N   UNL     1      47.736   8.767  14.706  0.00  0.00    +0.000 NA
ATOM     22  C   UNL     1      47.336   7.909  13.743  0.00  0.00    +0.000 A 
ATOM     23  C   UNL     1      48.262   7.010  13.204  0.00  0.00    +0.000 A 
ATOM     24  N   UNL     1      49.562   6.916  13.589  0.00  0.00    +0.000 NA
BRANCH  19  26
ATOM     25  N   UNL     1      52.394   7.663  15.364  0.00  0.00    +0.000 NA
ATOM     26  C   UNL     1      51.288   7.706  15.017  0.00  0.00    +0.000 C 
ENDBRANCH  19  26
ENDBRANCH  17  22
ENDBRANCH  16  17
ENDBRANCH   1  16
TORSDOF 6
ENDMDL
MODEL 7
REMARK VINA RESULT:    -7.010      1.909      2.894
REMARK INTER + INTRA:         -10.438
REMARK INTER:                  -9.682
REMARK INTRA:                  -0.756
REMARK UNBOUND:                -0.969
REMARK  Name = 
REMARK  6 active torsions:
REMARK  status: ('A' for Active; 'I' for Inactive)
REMARK    1  A    between atoms: C_2  and  C_3
REMARK    2  A    between atoms: C_6  and  N_7
REMARK    3  A    between atoms: N_7  and  C_8
REMARK    4  A    between atoms: C_8  and  C_9
REMARK    5  A    between atoms: C_9  and  C_12
REMARK    6  A    between atoms: C_16  and  C_17
REMARK                            x       y       z     vdW  Elec       q    Type
REMARK                         _______ _______ _______ _____ _____    ______ ____
ROOT
ATOM      1  C   UNL     1      45.276   5.517  12.424  0.00  0.00    +0.000 C 
ATOM      2  F   UNL     1      45.017   5.106  13.700  0.00  0.00    +0.000 F 
ATOM      3  F   UNL     1      46.160   4.604  11.921  0.00  0.00    +0.000 F 
ENDROOT
BRANCH   1   4
ATOM      4  C   UNL     1      45.824   6.933  12.373  0.00  0.00    +0.000 A 
ATOM      5  C   UNL     1      44.973   8.035  12.518  0.00  0.00    +0.000 A 
ATOM      6  C   UNL     1      45.475   9.328  12.394  0.00  0.00    +0.000 A 
ATOM      7  C   UNL     1      46.826   9.534  12.102  0.00  0.00    +0.000 A 
ATOM      8  C   UNL     1      47.720   8.458  11.948  0.00  0.00    +0.000 A 
ATOM      9  C   UNL     1      47.190   7.161  12.114  0.00  0.00    +0.000 A 
BRANCH   8  10
ATOM     10  C   UNL     1      49.142   8.678  11.576  0.00  0.00    +0.000 A 
ATOM     11  C   UNL     1      49.662   9.965  11.339  0.00  0.00    +0.000 A 
ATOM     12  C   UNL     1      50.988  10.158  10.934  0.00  0.00    +0.000 A 
ATOM     13  C   UNL     1      51.835   9.067  10.770  0.00  0.00    +0.000 A 
ATOM     14  C   UNL     1      51.356   7.785  11.014  0.00  0.00    +0.000 A 
ATOM     15  C   UNL     1      50.027   7.595  11.405  0.00  0.00    +0.000 A 
ENDBRANCH   8  10
ENDBRANCH   1   4
BRANCH   1  16
ATOM     16  C   UNL     1      43.958   5.435  11.603  0.00  0.00    +0.000 C 
BRANCH  16  17
ATOM     17  N   UNL     1      44.139   5.429  10.151  0.00  0.00    +0.000 N 
ATOM     18  H   UNL     1      43.813   6.213   9.593  0.00  0.00    +0.000 HD
BRANCH  17  22
ATOM     19  C   UNL     1      46.128   2.514   8.077  0.00  0.00    +0.000 A 
ATOM     20  C   UNL     1      46.375   3.863   7.884  0.00  0.00    +0.000 A 
ATOM     21  N   UNL     1      45.718   4.839   8.569  0.00  0.00    +0.000 NA
ATOM     22  C   UNL     1      44.788   4.439   9.463  0.00  0.00    +0.000 A 
ATOM     23  C   UNL     1      44.545   3.071   9.628  0.00  0.00    +0.000 A 
ATOM     24  N   UNL     1      45.196   2.084   8.958  0.00  0.00    +0.000 NA
BRANCH  19  26
ATOM     25  N   UNL     1      47.422   0.685   6.773  0.00  0.00    +0.000 NA
ATOM     26  C   UNL     1      46.858   1.509   7.362  0.00  0.00    +0.000 C 
ENDBRANCH  19  26
ENDBRANCH  17  22
ENDBRANCH  16  17
ENDBRANCH   1  16
TORSDOF 6
ENDMDL
MODEL 8
REMARK VINA RESULT:    -6.894      3.611      7.622
REMARK INTER + INTRA:         -10.282
REMARK INTER:                  -9.329
REMARK INTRA:                  -0.953
REMARK UNBOUND:                -0.969
REMARK  Name = 
REMARK  6 active torsions:
REMARK  status: ('A' for Active; 'I' for Inactive)
REMARK    1  A    between atoms: C_2  and  C_3
REMARK    2  A    between atoms: C_6  and  N_7
REMARK    3  A    between atoms: N_7  and  C_8
REMARK    4  A    between atoms: C_8  and  C_9
REMARK    5  A    between atoms: C_9  and  C_12
REMARK    6  A    between atoms: C_16  and  C_17
REMARK                            x       y       z     vdW  Elec       q    Type
REMARK                         _______ _______ _______ _____ _____    ______ ____
ROOT
ATOM      1  C   UNL     1      46.208   7.081  12.488  0.00  0.00    +0.000 C 
ATOM      2  F   UNL     1      47.364   7.384  11.826  0.00  0.00    +0.000 F 
ATOM      3  F   UNL     1      46.603   6.474  13.647  0.00  0.00    +0.000 F 
ENDROOT
BRANCH   1   4
ATOM      4  C   UNL     1      45.286   6.198  11.664  0.00  0.00    +0.000 A 
ATOM      5  C   UNL     1      43.927   6.093  11.979  0.00  0.00    +0.000 A 
ATOM      6  C   UNL     1      43.107   5.223  11.264  0.00  0.00    +0.000 A 
ATOM      7  C   UNL     1      43.641   4.433  10.242  0.00  0.00    +0.000 A 
ATOM      8  C   UNL     1      45.001   4.504   9.889  0.00  0.00    +0.000 A 
ATOM      9  C   UNL     1      45.799   5.420  10.606  0.00  0.00    +0.000 A 
BRANCH   8  10
ATOM     10  C   UNL     1      45.579   3.618   8.844  0.00  0.00    +0.000 A 
ATOM     11  C   UNL     1      45.580   2.216   8.971  0.00  0.00    +0.000 A 
ATOM     12  C   UNL     1      46.178   1.392   8.010  0.00  0.00    +0.000 A 
ATOM     13  C   UNL     1      46.777   1.950   6.886  0.00  0.00    +0.000 A 
ATOM     14  C   UNL     1      46.775   3.331   6.722  0.00  0.00    +0.000 A 
ATOM     15  C   UNL     1      46.190   4.152   7.692  0.00  0.00    +0.000 A 
ENDBRANCH   8  10
ENDBRANCH   1   4
BRANCH   1  16
ATOM     16  C   UNL     1      45.482   8.408  12.845  0.00  0.00    +0.000 C 
BRANCH  16  17
ATOM     17  N   UNL     1      45.499   9.421  11.789  0.00  0.00    +0.000 N 
ATOM     18  H   UNL     1      46.366   9.643  11.308  0.00  0.00    +0.000 HD
BRANCH  17  22
ATOM     19  C   UNL     1      42.136  11.328  10.445  0.00  0.00    +0.000 A 
ATOM     20  C   UNL     1      42.308   9.958  10.333  0.00  0.00    +0.000 A 
ATOM     21  N   UNL     1      43.423   9.316  10.778  0.00  0.00    +0.000 NA
ATOM     22  C   UNL     1      44.385  10.079  11.340  0.00  0.00    +0.000 A 
ATOM     23  C   UNL     1      44.195  11.462  11.426  0.00  0.00    +0.000 A 
ATOM     24  N   UNL     1      43.086  12.118  10.995  0.00  0.00    +0.000 NA
BRANCH  19  26
ATOM     25  N   UNL     1      39.981  12.500   9.605  0.00  0.00    +0.000 NA
ATOM     26  C   UNL     1      40.937  11.971   9.995  0.00  0.00    +0.000 C 
ENDBRANCH  19  26
ENDBRANCH  17  22
ENDBRANCH  16  17
ENDBRANCH   1  16
TORSDOF 6
ENDMDL
MODEL 9
REMARK VINA RESULT:    -6.811      2.943      6.918
REMARK INTER + INTRA:         -10.169
REMARK INTER:                  -9.159
REMARK INTRA:                  -1.010
REMARK UNBOUND:                -0.969
REMARK  Name = 
REMARK  6 active torsions:
REMARK  status: ('A' for Active; 'I' for Inactive)
REMARK    1  A    between atoms: C_2  and  C_3
REMARK    2  A    between atoms: C_6  and  N_7
REMARK    3  A    between atoms: N_7  and  C_8
REMARK    4  A    between atoms: C_8  and  C_9
REMARK    5  A    between atoms: C_9  and  C_12
REMARK    6  A    between atoms: C_16  and  C_17
REMARK                            x       y       z     vdW  Elec       q    Type
REMARK                         _______ _______ _______ _____ _____    ______ ____
ROOT
ATOM      1  C   UNL     1      46.243   4.293  13.500  0.00  0.00    +0.000 C 
ATOM      2  F   UNL     1      47.157   3.377  13.935  0.00  0.00    +0.000 F 
ATOM      3  F   UNL     1      45.504   4.619  14.602  0.00  0.00    +0.000 F 
ENDROOT
BRANCH   1   4
ATOM      4  C   UNL     1      45.381   3.757  12.369  0.00  0.00    +0.000 A 
ATOM      5  C   UNL     1      44.063   3.351  12.606  0.00  0.00    +0.000 A 
ATOM      6  C   UNL     1      43.308   2.791  11.579  0.00  0.00    +0.000 A 
ATOM      7  C   UNL     1      43.869   2.609  10.311  0.00  0.00    +0.000 A 
ATOM      8  C   UNL     1      45.190   3.002  10.026  0.00  0.00    +0.000 A 
ATOM      9  C   UNL     1      45.918   3.599  11.076  0.00  0.00    +0.000 A 
BRANCH   8  10
ATOM     10  C   UNL     1      45.804   2.750   8.696  0.00  0.00    +0.000 A 
ATOM     11  C   UNL     1      45.951   3.770   7.736  0.00  0.00    +0.000 A 
ATOM     12  C   UNL     1      46.477   3.512   6.465  0.00  0.00    +0.000 A 
ATOM     13  C   UNL     1      46.887   2.226   6.126  0.00  0.00    +0.000 A 
ATOM     14  C   UNL     1      46.772   1.202   7.058  0.00  0.00    +0.000 A 
ATOM     15  C   UNL     1      46.232   1.461   8.322  0.00  0.00    +0.000 A 
ENDBRANCH   8  10
ENDBRANCH   1   4
BRANCH   1  16
ATOM     16  C   UNL     1      47.005   5.561  13.022  0.00  0.00    +0.000 C 
BRANCH  16  17
ATOM     17  N   UNL     1      46.447   6.828  13.495  0.00  0.00    +0.000 N 
ATOM     18  H   UNL     1      46.634   7.147  14.441  0.00  0.00    +0.000 HD
BRANCH  17  22
ATOM     19  C   UNL     1      44.203   9.324  11.152  0.00  0.00    +0.000 A 
ATOM     20  C   UNL     1      44.108   7.945  11.070  0.00  0.00    +0.000 A 
ATOM     21  N   UNL     1      44.850   7.107  11.846  0.00  0.00    +0.000 NA
ATOM     22  C   UNL     1      45.710   7.681  12.715  0.00  0.00    +0.000 A 
ATOM     23  C   UNL     1      45.800   9.075  12.767  0.00  0.00    +0.000 A 
ATOM     24  N   UNL     1      45.062   9.925  12.006  0.00  0.00    +0.000 NA
BRANCH  19  26
ATOM     25  N   UNL     1      42.719  10.848   9.669  0.00  0.00    +0.000 NA
ATOM     26  C   UNL     1      43.385  10.179  10.343  0.00  0.00    +0.000 C 
ENDBRANCH  19  26
ENDBRANCH  17  22
ENDBRANCH  16  17
ENDBRANCH   1  16
TORSDOF 6
ENDMDL
