MODEL 1
REMARK VINA RESULT:    -8.350      0.000      0.000
REMARK INTER + INTRA:         -13.361
REMARK INTER:                 -12.499
REMARK INTRA:                  -0.862
REMARK UNBOUND:                -0.862
REMARK  Name = 
REMARK  9 active torsions:
REMARK  status: ('A' for Active; 'I' for Inactive)
REMARK    1  A    between atoms: C_2  and  C_22
REMARK    2  A    between atoms: N_3  and  C_4
REMARK    3  A    between atoms: C_4  and  C_5
REMARK    4  A    between atoms: C_8  and  C_9
REMARK    5  A    between atoms: C_9  and  N_10
REMARK    6  A    between atoms: N_10  and  CA_11
REMARK    7  A    between atoms: CA_11  and  C_12
REMARK    8  A    between atoms: CA_11  and  C_14
REMARK    9  A    between atoms: C_12  and  O_13
REMARK                            x       y       z     vdW  Elec       q    Type
REMARK                         _______ _______ _______ _____ _____    ______ ____
ROOT
ATOM      1  C   UNL     1      46.848   6.017  13.088  0.00  0.00    +0.000 A 
ATOM      2  C   UNL     1      46.823   6.530  11.785  0.00  0.00    +0.000 A 
ATOM      3  C   UNL     1      45.784   6.202  10.908  0.00  0.00    +0.000 A 
ATOM      4  C   UNL     1      44.740   5.360  11.317  0.00  0.00    +0.000 A 
ATOM      5  C   UNL     1      44.756   4.864  12.629  0.00  0.00    +0.000 A 
ATOM      6  C   UNL     1      45.794   5.193  13.507  0.00  0.00    +0.000 A 
ENDROOT
BRANCH   1   7
ATOM      7  C   UNL     1      47.997   6.324  14.010  0.00  0.00    +0.000 C 
BRANCH   7  10
ATOM      8  O   UNL     1      49.931   6.205  15.944  0.00  0.00    +0.000 OA
ATOM      9  C   UNL     1      48.788   5.913  16.275  0.00  0.00    +0.000 C 
ATOM     10  N   UNL     1      47.741   5.949  15.378  0.00  0.00    +0.000 N 
ATOM     11  H   UNL     1      46.793   5.779  15.678  0.00  0.00    +0.000 HD
BRANCH   9  12
ATOM     12  C   UNL     1      48.459   5.491  17.638  0.00  0.00    +0.000 A 
ATOM     13  C   UNL     1      48.433   4.199  18.150  0.00  0.00    +0.000 A 
ATOM     14  N   UNL     1      48.119   4.265  19.484  0.00  0.00    +0.000 N 
ATOM     15  C   UNL     1      47.933   5.566  19.855  0.00  0.00    +0.000 A 
ATOM     16  N   UNL     1      47.626   5.960  21.105  0.00  0.00    +0.000 NA
ATOM     17  C   UNL     1      47.494   7.303  21.214  0.00  0.00    +0.000 A 
ATOM     18  C   UNL     1      47.639   8.218  20.180  0.00  0.00    +0.000 A 
ATOM     19  C   UNL     1      47.959   7.749  18.906  0.00  0.00    +0.000 A 
ATOM     20  C   UNL     1      48.120   6.361  18.732  0.00  0.00    +0.000 A 
ATOM     21  H   UNL     1      48.039   3.490  20.128  0.00  0.00    +0.000 HD
ENDBRANCH   9  12
ENDBRANCH   7  10
ENDBRANCH   1   7
BRANCH   4  22
ATOM     22  C   UNL     1      43.579   5.059  10.395  0.00  0.00    +0.000 C 
BRANCH  22  23
ATOM     23  N   UNL     1      43.987   4.320   9.195  0.00  0.00    +0.000 NA
ATOM     24  H   UNL     1      44.576   4.940   8.633  0.00  0.00    +0.000 HD
BRANCH  23  25
ATOM     25  CA  UNL     1      44.800   3.122   9.522  0.00  0.00    +0.000 C 
BRANCH  25  26
ATOM     26  C   UNL     1      45.722   2.779   8.353  0.00  0.00    +0.000 A 
ATOM     27  C   UNL     1      46.070   3.760   7.414  0.00  0.00    +0.000 A 
ATOM     28  C   UNL     1      46.929   3.463   6.350  0.00  0.00    +0.000 A 
ATOM     29  C   UNL     1      47.451   2.181   6.211  0.00  0.00    +0.000 A 
ATOM     30  C   UNL     1      47.110   1.191   7.127  0.00  0.00    +0.000 A 
ATOM     31  C   UNL     1      46.249   1.486   8.186  0.00  0.00    +0.000 A 
ENDBRANCH  25  26
BRANCH  25  32
ATOM     32  C   UNL     1      43.934   1.897   9.936  0.00  0.00    +0.000 C 
BRANCH  32  33
ATOM     33  O   UNL     1      43.420   2.008  11.264  0.00  0.00    +0.000 OA
ATOM     34  H   UNL     1      44.176   2.291  11.812  0.00  0.00    +0.000 HD
ENDBRANCH  32  33
ENDBRANCH  25  32
ENDBRANCH  23  25
ENDBRANCH  22  23
ENDBRANCH   4  22
TORSDOF 9
ENDMDL
MODEL 2
REMARK VINA RESULT:    -8.231      1.857      2.551
REMARK INTER + INTRA:         -13.183
REMARK INTER:                 -12.229
REMARK INTRA:                  -0.955
REMARK UNBOUND:                -0.862
REMARK  Name = 
REMARK  9 active torsions:
REMARK  status: ('A' for Active; 'I' for Inactive)
REMARK    1  A    between atoms: C_2  and  C_22
REMARK    2  A    between atoms: N_3  and  C_4
REMARK    3  A    between atoms: C_4  and  C_5
REMARK    4  A    between atoms: C_8  and  C_9
REMARK    5  A    between atoms: C_9  and  N_10
REMARK    6  A    between atoms: N_10  and  CA_11
REMARK    7  A    between atoms: CA_11  and  C_12
REMARK    8  A    between atoms: CA_11  and  C_14
REMARK    9  A    between atoms: C_12  and  O_13
REMARK                            x       y       z     vdW  Elec       q    Type
REMARK                         _______ _______ _______ _____ _____    ______ ____
ROOT
ATOM      1  C   UNL     1      46.322   7.854  12.931  0.00  0.00    +0.000 A 
ATOM      2  C   UNL     1      45.999   6.546  13.313  0.00  0.00    +0.000 A 
ATOM      3  C   UNL     1      44.901   5.888  12.748  0.00  0.00    +0.000 A 
ATOM      4  C   UNL     1      44.105   6.519  11.782  0.00  0.00    +0.000 A 
ATOM      5  C   UNL     1      44.443   7.822  11.386  0.00  0.00    +0.000 A 
ATOM      6  C   UNL     1      45.542   8.480  11.949  0.00  0.00    +0.000 A 
ENDROOT
BRANCH   1   7
ATOM      7  C   UNL     1      47.467   8.582  13.583  0.00  0.00    +0.000 C 
BRANCH   7  10
ATOM      8  O   UNL     1      49.508   6.774  13.828  0.00  0.00    +0.000 OA
ATOM      9  C   UNL     1      48.909   7.086  14.850  0.00  0.00    +0.000 C 
ATOM     10  N   UNL     1      47.871   7.994  14.835  0.00  0.00    +0.000 N 
ATOM     11  H   UNL     1      47.434   8.299  15.691  0.00  0.00    +0.000 HD
BRANCH   9  12
ATOM     12  C   UNL     1      49.242   6.504  16.153  0.00  0.00    +0.000 A 
ATOM     13  C   UNL     1      50.126   6.994  17.107  0.00  0.00    +0.000 A 
ATOM     14  N   UNL     1      50.098   6.160  18.196  0.00  0.00    +0.000 N 
ATOM     15  C   UNL     1      49.223   5.135  17.975  0.00  0.00    +0.000 A 
ATOM     16  N   UNL     1      48.964   4.157  18.863  0.00  0.00    +0.000 NA
ATOM     17  C   UNL     1      48.061   3.259  18.406  0.00  0.00    +0.000 A 
ATOM     18  C   UNL     1      47.445   3.291  17.161  0.00  0.00    +0.000 A 
ATOM     19  C   UNL     1      47.754   4.331  16.283  0.00  0.00    +0.000 A 
ATOM     20  C   UNL     1      48.680   5.303  16.708  0.00  0.00    +0.000 A 
ATOM     21  H   UNL     1      50.623   6.264  19.053  0.00  0.00    +0.000 HD
ENDBRANCH   9  12
ENDBRANCH   7  10
ENDBRANCH   1   7
BRANCH   4  22
ATOM     22  C   UNL     1      42.960   5.786  11.119  0.00  0.00    +0.000 C 
BRANCH  22  23
ATOM     23  N   UNL     1      43.401   4.933  10.010  0.00  0.00    +0.000 NA
ATOM     24  H   UNL     1      43.926   5.520   9.356  0.00  0.00    +0.000 HD
BRANCH  23  25
ATOM     25  CA  UNL     1      44.315   3.854  10.461  0.00  0.00    +0.000 C 
BRANCH  25  26
ATOM     26  C   UNL     1      45.157   3.355   9.287  0.00  0.00    +0.000 A 
ATOM     27  C   UNL     1      45.717   4.266   8.380  0.00  0.00    +0.000 A 
ATOM     28  C   UNL     1      46.505   3.824   7.312  0.00  0.00    +0.000 A 
ATOM     29  C   UNL     1      46.745   2.464   7.138  0.00  0.00    +0.000 A 
ATOM     30  C   UNL     1      46.191   1.544   8.022  0.00  0.00    +0.000 A 
ATOM     31  C   UNL     1      45.399   1.985   9.085  0.00  0.00    +0.000 A 
ENDBRANCH  25  26
BRANCH  25  32
ATOM     32  C   UNL     1      43.569   2.680  11.158  0.00  0.00    +0.000 C 
BRANCH  32  33
ATOM     33  O   UNL     1      43.983   2.489  12.512  0.00  0.00    +0.000 OA
ATOM     34  H   UNL     1      44.348   1.584  12.546  0.00  0.00    +0.000 HD
ENDBRANCH  32  33
ENDBRANCH  25  32
ENDBRANCH  23  25
ENDBRANCH  22  23
ENDBRANCH   4  22
TORSDOF 9
ENDMDL
MODEL 3
REMARK VINA RESULT:    -7.555      1.927      2.793
REMARK INTER + INTRA:         -12.172
REMARK INTER:                 -11.240
REMARK INTRA:                  -0.932
REMARK UNBOUND:                -0.862
REMARK  Name = 
REMARK  9 active torsions:
REMARK  status: ('A' for Active; 'I' for Inactive)
REMARK    1  A    between atoms: C_2  and  C_22
REMARK    2  A    between atoms: N_3  and  C_4
REMARK    3  A    between atoms: C_4  and  C_5
REMARK    4  A    between atoms: C_8  and  C_9
REMARK    5  A    between atoms: C_9  and  N_10
REMARK    6  A    between atoms: N_10  and  CA_11
REMARK    7  A    between atoms: CA_11  and  C_12
REMARK    8  A    between atoms: CA_11  and  C_14
REMARK    9  A    between atoms: C_12  and  O_13
REMARK                            x       y       z     vdW  Elec       q    Type
REMARK                         _______ _______ _______ _____ _____    ______ ____
ROOT
ATOM      1  C   UNL     1      46.859   6.828  13.222  0.00  0.00    +0.000 A 
ATOM      2  C   UNL     1      46.109   5.733  13.669  0.00  0.00    +0.000 A 
ATOM      3  C   UNL     1      44.934   5.355  13.010  0.00  0.00    +0.000 A 
ATOM      4  C   UNL     1      44.486   6.059  11.883  0.00  0.00    +0.000 A 
ATOM      5  C   UNL     1      45.250   7.143  11.425  0.00  0.00    +0.000 A 
ATOM      6  C   UNL     1      46.425   7.520  12.083  0.00  0.00    +0.000 A 
ENDROOT
BRANCH   1   7
ATOM      7  C   UNL     1      48.089   7.269  13.968  0.00  0.00    +0.000 C 
BRANCH   7  10
ATOM      8  O   UNL     1      48.737   7.720  16.589  0.00  0.00    +0.000 OA
ATOM      9  C   UNL     1      48.911   6.588  16.156  0.00  0.00    +0.000 C 
ATOM     10  N   UNL     1      48.609   6.255  14.851  0.00  0.00    +0.000 N 
ATOM     11  H   UNL     1      48.685   5.304  14.526  0.00  0.00    +0.000 HD
BRANCH   9  12
ATOM     12  C   UNL     1      49.466   5.516  16.985  0.00  0.00    +0.000 A 
ATOM     13  C   UNL     1      48.778   4.518  17.665  0.00  0.00    +0.000 A 
ATOM     14  N   UNL     1      49.693   3.699  18.278  0.00  0.00    +0.000 N 
ATOM     15  C   UNL     1      50.959   4.140  18.021  0.00  0.00    +0.000 A 
ATOM     16  N   UNL     1      52.075   3.539  18.474  0.00  0.00    +0.000 NA
ATOM     17  C   UNL     1      53.207   4.171  18.082  0.00  0.00    +0.000 A 
ATOM     18  C   UNL     1      53.265   5.321  17.306  0.00  0.00    +0.000 A 
ATOM     19  C   UNL     1      52.073   5.897  16.865  0.00  0.00    +0.000 A 
ATOM     20  C   UNL     1      50.863   5.279  17.232  0.00  0.00    +0.000 A 
ATOM     21  H   UNL     1      49.495   2.878  18.834  0.00  0.00    +0.000 HD
ENDBRANCH   9  12
ENDBRANCH   7  10
ENDBRANCH   1   7
BRANCH   4  22
ATOM     22  C   UNL     1      43.255   5.611  11.126  0.00  0.00    +0.000 C 
BRANCH  22  23
ATOM     23  N   UNL     1      43.578   4.780   9.961  0.00  0.00    +0.000 NA
ATOM     24  H   UNL     1      44.113   5.357   9.307  0.00  0.00    +0.000 HD
BRANCH  23  25
ATOM     25  CA  UNL     1      44.431   3.619  10.319  0.00  0.00    +0.000 C 
BRANCH  25  26
ATOM     26  C   UNL     1      45.264   3.190   9.113  0.00  0.00    +0.000 A 
ATOM     27  C   UNL     1      45.763   4.148   8.219  0.00  0.00    +0.000 A 
ATOM     28  C   UNL     1      46.544   3.770   7.121  0.00  0.00    +0.000 A 
ATOM     29  C   UNL     1      46.838   2.427   6.904  0.00  0.00    +0.000 A 
ATOM     30  C   UNL     1      46.346   1.460   7.774  0.00  0.00    +0.000 A 
ATOM     31  C   UNL     1      45.561   1.837   8.867  0.00  0.00    +0.000 A 
ENDBRANCH  25  26
BRANCH  25  32
ATOM     32  C   UNL     1      43.616   2.425  10.894  0.00  0.00    +0.000 C 
BRANCH  32  33
ATOM     33  O   UNL     1      43.765   2.285  12.308  0.00  0.00    +0.000 OA
ATOM     34  H   UNL     1      44.580   1.762  12.432  0.00  0.00    +0.000 HD
ENDBRANCH  32  33
ENDBRANCH  25  32
ENDBRANCH  23  25
ENDBRANCH  22  23
ENDBRANCH   4  22
TORSDOF 9
ENDMDL
MODEL 4
REMARK VINA RESULT:    -7.341      2.331      9.236
REMARK INTER + INTRA:         -11.850
REMARK INTER:                 -10.207
REMARK INTRA:                  -1.643
REMARK UNBOUND:                -0.862
REMARK  Name = 
REMARK  9 active torsions:
REMARK  status: ('A' for Active; 'I' for Inactive)
REMARK    1  A    between atoms: C_2  and  C_22
REMARK    2  A    between atoms: N_3  and  C_4
REMARK    3  A    between atoms: C_4  and  C_5
REMARK    4  A    between atoms: C_8  and  C_9
REMARK    5  A    between atoms: C_9  and  N_10
REMARK    6  A    between atoms: N_10  and  CA_11
REMARK    7  A    between atoms: CA_11  and  C_12
REMARK    8  A    between atoms: CA_11  and  C_14
REMARK    9  A    between atoms: C_12  and  O_13
REMARK                            x       y       z     vdW  Elec       q    Type
REMARK                         _______ _______ _______ _____ _____    ______ ____
ROOT
ATOM      1  C   UNL     1      47.980   7.727  13.844  0.00  0.00    +0.000 A 
ATOM      2  C   UNL     1      48.690   6.641  14.371  0.00  0.00    +0.000 A 
ATOM      3  C   UNL     1      49.162   6.667  15.687  0.00  0.00    +0.000 A 
ATOM      4  C   UNL     1      48.928   7.777  16.511  0.00  0.00    +0.000 A 
ATOM      5  C   UNL     1      48.199   8.856  15.988  0.00  0.00    +0.000 A 
ATOM      6  C   UNL     1      47.725   8.829  14.671  0.00  0.00    +0.000 A 
ENDROOT
BRANCH   1   7
ATOM      7  C   UNL     1      47.525   7.721  12.409  0.00  0.00    +0.000 C 
BRANCH   7  10
ATOM      8  O   UNL     1      44.890   7.016  12.637  0.00  0.00    +0.000 OA
ATOM      9  C   UNL     1      45.652   6.188  12.154  0.00  0.00    +0.000 C 
ATOM     10  N   UNL     1      46.997   6.448  11.989  0.00  0.00    +0.000 N 
ATOM     11  H   UNL     1      47.600   5.789  11.522  0.00  0.00    +0.000 HD
BRANCH   9  12
ATOM     12  C   UNL     1      45.192   4.862  11.735  0.00  0.00    +0.000 A 
ATOM     13  C   UNL     1      44.655   3.854  12.527  0.00  0.00    +0.000 A 
ATOM     14  N   UNL     1      44.319   2.797  11.718  0.00  0.00    +0.000 N 
ATOM     15  C   UNL     1      44.628   3.087  10.421  0.00  0.00    +0.000 A 
ATOM     16  N   UNL     1      44.405   2.255   9.386  0.00  0.00    +0.000 NA
ATOM     17  C   UNL     1      44.801   2.775   8.201  0.00  0.00    +0.000 A 
ATOM     18  C   UNL     1      45.386   4.021   8.017  0.00  0.00    +0.000 A 
ATOM     19  C   UNL     1      45.590   4.840   9.128  0.00  0.00    +0.000 A 
ATOM     20  C   UNL     1      45.189   4.357  10.389  0.00  0.00    +0.000 A 
ATOM     21  H   UNL     1      43.894   1.926  12.005  0.00  0.00    +0.000 HD
ENDBRANCH   9  12
ENDBRANCH   7  10
ENDBRANCH   1   7
BRANCH   4  22
ATOM     22  C   UNL     1      49.376   7.780  17.956  0.00  0.00    +0.000 C 
BRANCH  22  23
ATOM     23  N   UNL     1      48.330   7.315  18.873  0.00  0.00    +0.000 NA
ATOM     24  H   UNL     1      47.491   7.128  18.319  0.00  0.00    +0.000 HD
BRANCH  23  25
ATOM     25  CA  UNL     1      48.701   6.048  19.550  0.00  0.00    +0.000 C 
BRANCH  25  26
ATOM     26  C   UNL     1      48.568   4.876  18.578  0.00  0.00    +0.000 A 
ATOM     27  C   UNL     1      49.668   4.049  18.311  0.00  0.00    +0.000 A 
ATOM     28  C   UNL     1      49.554   2.961  17.438  0.00  0.00    +0.000 A 
ATOM     29  C   UNL     1      48.338   2.686  16.821  0.00  0.00    +0.000 A 
ATOM     30  C   UNL     1      47.237   3.500  17.066  0.00  0.00    +0.000 A 
ATOM     31  C   UNL     1      47.352   4.589  17.933  0.00  0.00    +0.000 A 
ENDBRANCH  25  26
BRANCH  25  32
ATOM     32  C   UNL     1      47.885   5.795  20.851  0.00  0.00    +0.000 C 
BRANCH  32  33
ATOM     33  O   UNL     1      48.012   4.456  21.331  0.00  0.00    +0.000 OA
ATOM     34  H   UNL     1      47.143   4.040  21.171  0.00  0.00    +0.000 HD
ENDBRANCH  32  33
ENDBRANCH  25  32
ENDBRANCH  23  25
ENDBRANCH  22  23
ENDBRANCH   4  22
TORSDOF 9
ENDMDL
MODEL 5
REMARK VINA RESULT:    -6.873      2.280     10.170
REMARK INTER + INTRA:         -11.151
REMARK INTER:                 -10.011
REMARK INTRA:                  -1.140
REMARK UNBOUND:                -0.862
REMARK  Name = 
REMARK  9 active torsions:
REMARK  status: ('A' for Active; 'I' for Inactive)
REMARK    1  A    between atoms: C_2  and  C_22
REMARK    2  A    between atoms: N_3  and  C_4
REMARK    3  A    between atoms: C_4  and  C_5
REMARK    4  A    between atoms: C_8  and  C_9
REMARK    5  A    between atoms: C_9  and  N_10
REMARK    6  A    between atoms: N_10  and  CA_11
REMARK    7  A    between atoms: CA_11  and  C_12
REMARK    8  A    between atoms: CA_11  and  C_14
REMARK    9  A    between atoms: C_12  and  O_13
REMARK                            x       y       z     vdW  Elec       q    Type
REMARK                         _______ _______ _______ _____ _____    ______ ____
ROOT
ATOM      1  C   UNL     1      48.197   7.953  13.710  0.00  0.00    +0.000 A 
ATOM      2  C   UNL     1      49.170   7.031  14.115  0.00  0.00    +0.000 A 
ATOM      3  C   UNL     1      49.774   7.137  15.372  0.00  0.00    +0.000 A 
ATOM      4  C   UNL     1      49.412   8.162  16.258  0.00  0.00    +0.000 A 
ATOM      5  C   UNL     1      48.422   9.072  15.858  0.00  0.00    +0.000 A 
ATOM      6  C   UNL     1      47.817   8.965  14.601  0.00  0.00    +0.000 A 
ENDROOT
BRANCH   1   7
ATOM      7  C   UNL     1      47.592   7.872  12.334  0.00  0.00    +0.000 C 
BRANCH   7  10
ATOM      8  O   UNL     1      44.948   7.164  12.370  0.00  0.00    +0.000 OA
ATOM      9  C   UNL     1      45.756   6.298  12.060  0.00  0.00    +0.000 C 
ATOM     10  N   UNL     1      47.111   6.555  12.004  0.00  0.00    +0.000 N 
ATOM     11  H   UNL     1      47.759   5.856  11.676  0.00  0.00    +0.000 HD
BRANCH   9  12
ATOM     12  C   UNL     1      45.343   4.928  11.744  0.00  0.00    +0.000 A 
ATOM     13  C   UNL     1      44.957   3.927  12.628  0.00  0.00    +0.000 A 
ATOM     14  N   UNL     1      44.608   2.816  11.901  0.00  0.00    +0.000 N 
ATOM     15  C   UNL     1      44.762   3.065  10.567  0.00  0.00    +0.000 A 
ATOM     16  N   UNL     1      44.489   2.174   9.595  0.00  0.00    +0.000 NA
ATOM     17  C   UNL     1      44.726   2.662   8.355  0.00  0.00    +0.000 A 
ATOM     18  C   UNL     1      45.207   3.931   8.062  0.00  0.00    +0.000 A 
ATOM     19  C   UNL     1      45.471   4.811   9.113  0.00  0.00    +0.000 A 
ATOM     20  C   UNL     1      45.234   4.363  10.427  0.00  0.00    +0.000 A 
ATOM     21  H   UNL     1      44.273   1.935  12.264  0.00  0.00    +0.000 HD
ENDBRANCH   9  12
ENDBRANCH   7  10
ENDBRANCH   1   7
BRANCH   4  22
ATOM     22  C   UNL     1      50.012   8.238  17.644  0.00  0.00    +0.000 C 
BRANCH  22  23
ATOM     23  N   UNL     1      49.630   7.101  18.489  0.00  0.00    +0.000 NA
ATOM     24  H   UNL     1      50.004   7.271  19.426  0.00  0.00    +0.000 HD
BRANCH  23  25
ATOM     25  CA  UNL     1      48.158   6.971  18.623  0.00  0.00    +0.000 C 
BRANCH  25  26
ATOM     26  C   UNL     1      47.654   7.856  19.762  0.00  0.00    +0.000 A 
ATOM     27  C   UNL     1      47.100   9.115  19.489  0.00  0.00    +0.000 A 
ATOM     28  C   UNL     1      46.618   9.927  20.521  0.00  0.00    +0.000 A 
ATOM     29  C   UNL     1      46.682   9.490  21.841  0.00  0.00    +0.000 A 
ATOM     30  C   UNL     1      47.235   8.248  22.133  0.00  0.00    +0.000 A 
ATOM     31  C   UNL     1      47.722   7.440  21.103  0.00  0.00    +0.000 A 
ENDBRANCH  25  26
BRANCH  25  32
ATOM     32  C   UNL     1      47.695   5.497  18.808  0.00  0.00    +0.000 C 
BRANCH  32  33
ATOM     33  O   UNL     1      46.285   5.336  18.644  0.00  0.00    +0.000 OA
ATOM     34  H   UNL     1      46.179   4.559  18.062  0.00  0.00    +0.000 HD
ENDBRANCH  32  33
ENDBRANCH  25  32
ENDBRANCH  23  25
ENDBRANCH  22  23
ENDBRANCH   4  22
TORSDOF 9
ENDMDL
MODEL 6
REMARK VINA RESULT:    -6.872      2.794      8.749
REMARK INTER + INTRA:         -11.149
REMARK INTER:                  -9.819
REMARK INTRA:                  -1.331
REMARK UNBOUND:                -0.862
REMARK  Name = 
REMARK  9 active torsions:
REMARK  status: ('A' for Active; 'I' for Inactive)
REMARK    1  A    between atoms: C_2  and  C_22
REMARK    2  A    between atoms: N_3  and  C_4
REMARK    3  A    between atoms: C_4  and  C_5
REMARK    4  A    between atoms: C_8  and  C_9
REMARK    5  A    between atoms: C_9  and  N_10
REMARK    6  A    between atoms: N_10  and  CA_11
REMARK    7  A    between atoms: CA_11  and  C_12
REMARK    8  A    between atoms: CA_11  and  C_14
REMARK    9  A    between atoms: C_12  and  O_13
REMARK                            x       y       z     vdW  Elec       q    Type
REMARK                         _______ _______ _______ _____ _____    ______ ____
ROOT
ATOM      1  C   UNL     1      48.528   8.108  13.619  0.00  0.00    +0.000 A 
ATOM      2  C   UNL     1      48.284   9.210  14.448  0.00  0.00    +0.000 A 
ATOM      3  C   UNL     1      48.299   9.074  15.840  0.00  0.00    +0.000 A 
ATOM      4  C   UNL     1      48.566   7.833  16.436  0.00  0.00    +0.000 A 
ATOM      5  C   UNL     1      48.830   6.735  15.605  0.00  0.00    +0.000 A 
ATOM      6  C   UNL     1      48.817   6.871  14.212  0.00  0.00    +0.000 A 
ENDROOT
BRANCH   1   7
ATOM      7  C   UNL     1      48.453   8.244  12.122  0.00  0.00    +0.000 C 
BRANCH   7  10
ATOM      8  O   UNL     1      45.727   8.058  11.965  0.00  0.00    +0.000 OA
ATOM      9  C   UNL     1      46.380   7.148  11.470  0.00  0.00    +0.000 C 
ATOM     10  N   UNL     1      47.760   7.151  11.489  0.00  0.00    +0.000 N 
ATOM     11  H   UNL     1      48.288   6.435  11.014  0.00  0.00    +0.000 HD
BRANCH   9  12
ATOM     12  C   UNL     1      45.743   5.989  10.839  0.00  0.00    +0.000 A 
ATOM     13  C   UNL     1      45.866   5.557   9.524  0.00  0.00    +0.000 A 
ATOM     14  N   UNL     1      45.135   4.405   9.374  0.00  0.00    +0.000 N 
ATOM     15  C   UNL     1      44.533   4.079  10.555  0.00  0.00    +0.000 A 
ATOM     16  N   UNL     1      43.757   2.994  10.734  0.00  0.00    +0.000 NA
ATOM     17  C   UNL     1      43.277   2.894  11.996  0.00  0.00    +0.000 A 
ATOM     18  C   UNL     1      43.522   3.789  13.029  0.00  0.00    +0.000 A 
ATOM     19  C   UNL     1      44.336   4.895  12.783  0.00  0.00    +0.000 A 
ATOM     20  C   UNL     1      44.873   5.048  11.490  0.00  0.00    +0.000 A 
ATOM     21  H   UNL     1      45.042   3.851   8.534  0.00  0.00    +0.000 HD
ENDBRANCH   9  12
ENDBRANCH   7  10
ENDBRANCH   1   7
BRANCH   4  22
ATOM     22  C   UNL     1      48.651   7.697  17.940  0.00  0.00    +0.000 C 
BRANCH  22  23
ATOM     23  N   UNL     1      47.904   6.541  18.447  0.00  0.00    +0.000 NA
ATOM     24  H   UNL     1      47.480   6.069  17.644  0.00  0.00    +0.000 HD
BRANCH  23  25
ATOM     25  CA  UNL     1      48.785   5.554  19.120  0.00  0.00    +0.000 C 
BRANCH  25  26
ATOM     26  C   UNL     1      48.958   4.319  18.238  0.00  0.00    +0.000 A 
ATOM     27  C   UNL     1      47.856   3.765  17.570  0.00  0.00    +0.000 A 
ATOM     28  C   UNL     1      48.005   2.646  16.744  0.00  0.00    +0.000 A 
ATOM     29  C   UNL     1      49.259   2.066  16.573  0.00  0.00    +0.000 A 
ATOM     30  C   UNL     1      50.363   2.595  17.235  0.00  0.00    +0.000 A 
ATOM     31  C   UNL     1      50.213   3.708  18.064  0.00  0.00    +0.000 A 
ENDBRANCH  25  26
BRANCH  25  32
ATOM     32  C   UNL     1      48.283   5.166  20.541  0.00  0.00    +0.000 C 
BRANCH  32  33
ATOM     33  O   UNL     1      48.403   3.767  20.805  0.00  0.00    +0.000 OA
ATOM     34  H   UNL     1      47.789   3.332  20.183  0.00  0.00    +0.000 HD
ENDBRANCH  32  33
ENDBRANCH  25  32
ENDBRANCH  23  25
ENDBRANCH  22  23
ENDBRANCH   4  22
TORSDOF 9
ENDMDL
MODEL 7
REMARK VINA RESULT:    -6.865      3.424      8.814
REMARK INTER + INTRA:         -11.139
REMARK INTER:                  -9.131
REMARK INTRA:                  -2.008
REMARK UNBOUND:                -0.862
REMARK  Name = 
REMARK  9 active torsions:
REMARK  status: ('A' for Active; 'I' for Inactive)
REMARK    1  A    between atoms: C_2  and  C_22
REMARK    2  A    between atoms: N_3  and  C_4
REMARK    3  A    between atoms: C_4  and  C_5
REMARK    4  A    between atoms: C_8  and  C_9
REMARK    5  A    between atoms: C_9  and  N_10
REMARK    6  A    between atoms: N_10  and  CA_11
REMARK    7  A    between atoms: CA_11  and  C_12
REMARK    8  A    between atoms: CA_11  and  C_14
REMARK    9  A    between atoms: C_12  and  O_13
REMARK                            x       y       z     vdW  Elec       q    Type
REMARK                         _______ _______ _______ _____ _____    ______ ____
ROOT
ATOM      1  C   UNL     1      48.675   8.600  15.651  0.00  0.00    +0.000 A 
ATOM      2  C   UNL     1      49.634   7.587  15.783  0.00  0.00    +0.000 A 
ATOM      3  C   UNL     1      50.015   7.125  17.047  0.00  0.00    +0.000 A 
ATOM      4  C   UNL     1      49.440   7.658  18.209  0.00  0.00    +0.000 A 
ATOM      5  C   UNL     1      48.465   8.658  18.074  0.00  0.00    +0.000 A 
ATOM      6  C   UNL     1      48.083   9.120  16.810  0.00  0.00    +0.000 A 
ENDROOT
BRANCH   1   7
ATOM      7  C   UNL     1      48.311   9.138  14.294  0.00  0.00    +0.000 C 
BRANCH   7  10
ATOM      8  O   UNL     1      48.115   7.276  12.297  0.00  0.00    +0.000 OA
ATOM      9  C   UNL     1      47.070   7.690  12.782  0.00  0.00    +0.000 C 
ATOM     10  N   UNL     1      47.060   8.622  13.799  0.00  0.00    +0.000 N 
ATOM     11  H   UNL     1      46.197   8.900  14.241  0.00  0.00    +0.000 HD
BRANCH   9  12
ATOM     12  C   UNL     1      45.760   7.236  12.307  0.00  0.00    +0.000 A 
ATOM     13  C   UNL     1      44.748   7.996  11.734  0.00  0.00    +0.000 A 
ATOM     14  N   UNL     1      43.714   7.161  11.395  0.00  0.00    +0.000 N 
ATOM     15  C   UNL     1      44.022   5.875  11.737  0.00  0.00    +0.000 A 
ATOM     16  N   UNL     1      43.214   4.820  11.521  0.00  0.00    +0.000 NA
ATOM     17  C   UNL     1      43.748   3.654  11.953  0.00  0.00    +0.000 A 
ATOM     18  C   UNL     1      44.986   3.507  12.565  0.00  0.00    +0.000 A 
ATOM     19  C   UNL     1      45.780   4.637  12.760  0.00  0.00    +0.000 A 
ATOM     20  C   UNL     1      45.282   5.880  12.323  0.00  0.00    +0.000 A 
ATOM     21  H   UNL     1      42.846   7.421  10.948  0.00  0.00    +0.000 HD
ENDBRANCH   9  12
ENDBRANCH   7  10
ENDBRANCH   1   7
BRANCH   4  22
ATOM     22  C   UNL     1      49.798   7.112  19.574  0.00  0.00    +0.000 C 
BRANCH  22  23
ATOM     23  N   UNL     1      50.263   5.722  19.522  0.00  0.00    +0.000 NA
ATOM     24  H   UNL     1      50.971   5.604  20.252  0.00  0.00    +0.000 HD
BRANCH  23  25
ATOM     25  CA  UNL     1      49.174   4.755  19.809  0.00  0.00    +0.000 C 
BRANCH  25  26
ATOM     26  C   UNL     1      48.669   4.134  18.507  0.00  0.00    +0.000 A 
ATOM     27  C   UNL     1      47.493   4.608  17.905  0.00  0.00    +0.000 A 
ATOM     28  C   UNL     1      47.031   4.061  16.703  0.00  0.00    +0.000 A 
ATOM     29  C   UNL     1      47.738   3.035  16.085  0.00  0.00    +0.000 A 
ATOM     30  C   UNL     1      48.901   2.545  16.671  0.00  0.00    +0.000 A 
ATOM     31  C   UNL     1      49.360   3.086  17.873  0.00  0.00    +0.000 A 
ENDBRANCH  25  26
BRANCH  25  32
ATOM     32  C   UNL     1      48.006   5.382  20.623  0.00  0.00    +0.000 C 
BRANCH  32  33
ATOM     33  O   UNL     1      47.714   4.655  21.818  0.00  0.00    +0.000 OA
ATOM     34  H   UNL     1      47.077   3.965  21.552  0.00  0.00    +0.000 HD
ENDBRANCH  32  33
ENDBRANCH  25  32
ENDBRANCH  23  25
ENDBRANCH  22  23
ENDBRANCH   4  22
TORSDOF 9
ENDMDL
MODEL 8
REMARK VINA RESULT:    -6.829      3.296      4.863
REMARK INTER + INTRA:         -11.084
REMARK INTER:                 -10.195
REMARK INTRA:                  -0.889
REMARK UNBOUND:                -0.862
REMARK  Name = 
REMARK  9 active torsions:
REMARK  status: ('A' for Active; 'I' for Inactive)
REMARK    1  A    between atoms: C_2  and  C_22
REMARK    2  A    between atoms: N_3  and  C_4
REMARK    3  A    between atoms: C_4  and  C_5
REMARK    4  A    between atoms: C_8  and  C_9
REMARK    5  A    between atoms: C_9  and  N_10
REMARK    6  A    between atoms: N_10  and  CA_11
REMARK    7  A    between atoms: CA_11  and  C_12
REMARK    8  A    between atoms: CA_11  and  C_14
REMARK    9  A    between atoms: C_12  and  O_13
REMARK                            x       y       z     vdW  Elec       q    Type
REMARK                         _______ _______ _______ _____ _____    ______ ____
ROOT
ATOM      1  C   UNL     1      48.499   5.861  16.288  0.00  0.00    +0.000 A 
ATOM      2  C   UNL     1      47.754   4.681  16.398  0.00  0.00    +0.000 A 
ATOM      3  C   UNL     1      46.978   4.223  15.328  0.00  0.00    +0.000 A 
ATOM      4  C   UNL     1      46.937   4.931  14.118  0.00  0.00    +0.000 A 
ATOM      5  C   UNL     1      47.700   6.102  14.003  0.00  0.00    +0.000 A 
ATOM      6  C   UNL     1      48.477   6.559  15.073  0.00  0.00    +0.000 A 
ENDROOT
BRANCH   1   7
ATOM      7  C   UNL     1      49.285   6.383  17.461  0.00  0.00    +0.000 C 
BRANCH   7  10
ATOM      8  O   UNL     1      51.864   6.411  16.548  0.00  0.00    +0.000 OA
ATOM      9  C   UNL     1      51.574   5.562  17.381  0.00  0.00    +0.000 C 
ATOM     10  N   UNL     1      50.304   5.469  17.911  0.00  0.00    +0.000 N 
ATOM     11  H   UNL     1      50.095   4.816  18.650  0.00  0.00    +0.000 HD
BRANCH   9  12
ATOM     12  C   UNL     1      52.549   4.579  17.860  0.00  0.00    +0.000 A 
ATOM     13  C   UNL     1      53.788   4.818  18.444  0.00  0.00    +0.000 A 
ATOM     14  N   UNL     1      54.349   3.612  18.782  0.00  0.00    +0.000 N 
ATOM     15  C   UNL     1      53.512   2.593  18.429  0.00  0.00    +0.000 A 
ATOM     16  N   UNL     1      53.775   1.290  18.642  0.00  0.00    +0.000 NA
ATOM     17  C   UNL     1      52.788   0.476  18.200  0.00  0.00    +0.000 A 
ATOM     18  C   UNL     1      51.615   0.888  17.580  0.00  0.00    +0.000 A 
ATOM     19  C   UNL     1      51.398   2.253  17.388  0.00  0.00    +0.000 A 
ATOM     20  C   UNL     1      52.386   3.151  17.837  0.00  0.00    +0.000 A 
ATOM     21  H   UNL     1      55.240   3.464  19.236  0.00  0.00    +0.000 HD
ENDBRANCH   9  12
ENDBRANCH   7  10
ENDBRANCH   1   7
BRANCH   4  22
ATOM     22  C   UNL     1      46.156   4.402  12.936  0.00  0.00    +0.000 C 
BRANCH  22  23
ATOM     23  N   UNL     1      45.201   5.382  12.405  0.00  0.00    +0.000 NA
ATOM     24  H   UNL     1      45.704   5.977  11.740  0.00  0.00    +0.000 HD
BRANCH  23  25
ATOM     25  CA  UNL     1      44.090   4.737  11.662  0.00  0.00    +0.000 C 
BRANCH  25  26
ATOM     26  C   UNL     1      44.616   4.112  10.371  0.00  0.00    +0.000 A 
ATOM     27  C   UNL     1      44.371   2.761  10.087  0.00  0.00    +0.000 A 
ATOM     28  C   UNL     1      44.830   2.182   8.898  0.00  0.00    +0.000 A 
ATOM     29  C   UNL     1      45.539   2.947   7.977  0.00  0.00    +0.000 A 
ATOM     30  C   UNL     1      45.800   4.287   8.245  0.00  0.00    +0.000 A 
ATOM     31  C   UNL     1      45.346   4.864   9.433  0.00  0.00    +0.000 A 
ENDBRANCH  25  26
BRANCH  25  32
ATOM     32  C   UNL     1      42.909   5.709  11.377  0.00  0.00    +0.000 C 
BRANCH  32  33
ATOM     33  O   UNL     1      43.330   7.069  11.256  0.00  0.00    +0.000 OA
ATOM     34  H   UNL     1      42.966   7.378  10.404  0.00  0.00    +0.000 HD
ENDBRANCH  32  33
ENDBRANCH  25  32
ENDBRANCH  23  25
ENDBRANCH  22  23
ENDBRANCH   4  22
TORSDOF 9
ENDMDL
MODEL 9
REMARK VINA RESULT:    -6.733      1.810      2.774
REMARK INTER + INTRA:         -10.941
REMARK INTER:                 -10.283
REMARK INTRA:                  -0.658
REMARK UNBOUND:                -0.862
REMARK  Name = 
REMARK  9 active torsions:
REMARK  status: ('A' for Active; 'I' for Inactive)
REMARK    1  A    between atoms: C_2  and  C_22
REMARK    2  A    between atoms: N_3  and  C_4
REMARK    3  A    between atoms: C_4  and  C_5
REMARK    4  A    between atoms: C_8  and  C_9
REMARK    5  A    between atoms: C_9  and  N_10
REMARK    6  A    between atoms: N_10  and  CA_11
REMARK    7  A    between atoms: CA_11  and  C_12
REMARK    8  A    between atoms: CA_11  and  C_14
REMARK    9  A    between atoms: C_12  and  O_13
REMARK                            x       y       z     vdW  Elec       q    Type
REMARK                         _______ _______ _______ _____ _____    ______ ____
ROOT
ATOM      1  C   UNL     1      48.016   6.480  13.800  0.00  0.00    +0.000 A 
ATOM      2  C   UNL     1      47.688   5.344  14.550  0.00  0.00    +0.000 A 
ATOM      3  C   UNL     1      46.511   4.633  14.293  0.00  0.00    +0.000 A 
ATOM      4  C   UNL     1      45.638   5.038  13.273  0.00  0.00    +0.000 A 
ATOM      5  C   UNL     1      45.978   6.165  12.510  0.00  0.00    +0.000 A 
ATOM      6  C   UNL     1      47.157   6.874  12.766  0.00  0.00    +0.000 A 
ENDROOT
BRANCH   1   7
ATOM      7  C   UNL     1      49.253   7.277  14.118  0.00  0.00    +0.000 C 
BRANCH   7  10
ATOM      8  O   UNL     1      48.107   9.220  15.668  0.00  0.00    +0.000 OA
ATOM      9  C   UNL     1      48.866   8.435  16.223  0.00  0.00    +0.000 C 
ATOM     10  N   UNL     1      49.488   7.415  15.533  0.00  0.00    +0.000 N 
ATOM     11  H   UNL     1      50.051   6.731  16.013  0.00  0.00    +0.000 HD
BRANCH   9  12
ATOM     12  C   UNL     1      49.177   8.535  17.651  0.00  0.00    +0.000 A 
ATOM     13  C   UNL     1      50.047   9.421  18.276  0.00  0.00    +0.000 A 
ATOM     14  N   UNL     1      50.001   9.195  19.629  0.00  0.00    +0.000 N 
ATOM     15  C   UNL     1      49.127   8.182  19.903  0.00  0.00    +0.000 A 
ATOM     16  N   UNL     1      48.852   7.734  21.142  0.00  0.00    +0.000 NA
ATOM     17  C   UNL     1      47.955   6.721  21.147  0.00  0.00    +0.000 A 
ATOM     18  C   UNL     1      47.359   6.162  20.024  0.00  0.00    +0.000 A 
ATOM     19  C   UNL     1      47.683   6.669  18.765  0.00  0.00    +0.000 A 
ATOM     20  C   UNL     1      48.605   7.732  18.697  0.00  0.00    +0.000 A 
ATOM     21  H   UNL     1      50.513   9.692  20.344  0.00  0.00    +0.000 HD
ENDBRANCH   9  12
ENDBRANCH   7  10
ENDBRANCH   1   7
BRANCH   4  22
ATOM     22  C   UNL     1      44.400   4.233  12.946  0.00  0.00    +0.000 C 
BRANCH  22  23
ATOM     23  N   UNL     1      44.648   3.198  11.937  0.00  0.00    +0.000 NA
ATOM     24  H   UNL     1      44.268   2.318  12.295  0.00  0.00    +0.000 HD
BRANCH  23  25
ATOM     25  CA  UNL     1      43.957   3.486  10.656  0.00  0.00    +0.000 C 
BRANCH  25  26
ATOM     26  C   UNL     1      44.912   3.264   9.484  0.00  0.00    +0.000 A 
ATOM     27  C   UNL     1      45.301   1.966   9.123  0.00  0.00    +0.000 A 
ATOM     28  C   UNL     1      46.160   1.748   8.039  0.00  0.00    +0.000 A 
ATOM     29  C   UNL     1      46.639   2.827   7.301  0.00  0.00    +0.000 A 
ATOM     30  C   UNL     1      46.272   4.122   7.649  0.00  0.00    +0.000 A 
ATOM     31  C   UNL     1      45.419   4.340   8.734  0.00  0.00    +0.000 A 
ENDBRANCH  25  26
BRANCH  25  32
ATOM     32  C   UNL     1      43.333   4.910  10.612  0.00  0.00    +0.000 C 
BRANCH  32  33
ATOM     33  O   UNL     1      42.100   4.995  11.328  0.00  0.00    +0.000 OA
ATOM     34  H   UNL     1      41.508   4.345  10.903  0.00  0.00    +0.000 HD
ENDBRANCH  32  33
ENDBRANCH  25  32
ENDBRANCH  23  25
ENDBRANCH  22  23
ENDBRANCH   4  22
TORSDOF 9
ENDMDL
