MODEL 1
REMARK VINA RESULT:    -6.721      0.000      0.000
REMARK INTER + INTRA:          -8.511
REMARK INTER:                  -7.900
REMARK INTRA:                  -0.611
REMARK UNBOUND:                -0.611
REMARK  Name = 
REMARK  3 active torsions:
REMARK  status: ('A' for Active; 'I' for Inactive)
REMARK    1  A    between atoms: C_2  and  C_11
REMARK    2  A    between atoms: N_3  and  C_4
REMARK    3  A    between atoms: C_4  and  C_5
REMARK                            x       y       z     vdW  Elec       q    Type
REMARK                         _______ _______ _______ _____ _____    ______ ____
ROOT
ATOM      1  O   UNL     1      48.628   6.195  13.243  0.00  0.00    +0.000 OA
ATOM      2  C   UNL     1      47.509   5.920  13.669  0.00  0.00    +0.000 C 
ATOM      3  N   UNL     1      47.278   5.603  14.981  0.00  0.00    +0.000 N 
ATOM      4  H   UNL     1      46.368   5.252  15.266  0.00  0.00    +0.000 HD
ENDROOT
BRANCH   2   5
ATOM      5  C   UNL     1      46.332   5.967  12.795  0.00  0.00    +0.000 A 
ATOM      6  C   UNL     1      45.895   7.189  12.303  0.00  0.00    +0.000 A 
ATOM      7  S   UNL     1      44.529   7.068  11.291  0.00  0.00    +0.000 S 
ATOM      8  C   UNL     1      44.496   5.373  11.450  0.00  0.00    +0.000 A 
ATOM      9  N   UNL     1      43.571   4.629  10.787  0.00  0.00    +0.000 NA
ATOM     10  C   UNL     1      43.675   3.356  10.975  0.00  0.00    +0.000 A 
ATOM     11  N   UNL     1      44.613   2.760  11.776  0.00  0.00    +0.000 N 
ATOM     12  C   UNL     1      45.534   3.473  12.503  0.00  0.00    +0.000 A 
ATOM     13  O   UNL     1      46.295   2.910  13.285  0.00  0.00    +0.000 OA
ATOM     14  C   UNL     1      45.490   4.909  12.293  0.00  0.00    +0.000 A 
ATOM     15  H   UNL     1      44.622   1.759  11.905  0.00  0.00    +0.000 HD
ENDBRANCH   2   5
BRANCH   3  16
ATOM     16  C   UNL     1      48.345   5.496  15.945  0.00  0.00    +0.000 C 
BRANCH  16  17
ATOM     17  C   UNL     1      47.996   4.651  17.187  0.00  0.00    +0.000 C 
ATOM     18  C   UNL     1      49.089   4.512  18.254  0.00  0.00    +0.000 C 
ATOM     19  C   UNL     1      50.198   3.544  17.858  0.00  0.00    +0.000 C 
ATOM     20  C   UNL     1      49.633   2.249  17.287  0.00  0.00    +0.000 C 
ATOM     21  C   UNL     1      48.564   2.524  16.243  0.00  0.00    +0.000 C 
ATOM     22  O   UNL     1      47.532   3.352  16.781  0.00  0.00    +0.000 OA
ENDBRANCH  16  17
ENDBRANCH   3  16
TORSDOF 3
ENDMDL
MODEL 2
REMARK VINA RESULT:    -6.631      1.701      2.104
REMARK INTER + INTRA:          -8.405
REMARK INTER:                  -7.949
REMARK INTRA:                  -0.456
REMARK UNBOUND:                -0.611
REMARK  Name = 
REMARK  3 active torsions:
REMARK  status: ('A' for Active; 'I' for Inactive)
REMARK    1  A    between atoms: C_2  and  C_11
REMARK    2  A    between atoms: N_3  and  C_4
REMARK    3  A    between atoms: C_4  and  C_5
REMARK                            x       y       z     vdW  Elec       q    Type
REMARK                         _______ _______ _______ _____ _____    ______ ____
ROOT
ATOM      1  O   UNL     1      47.267   3.183  13.909  0.00  0.00    +0.000 OA
ATOM      2  C   UNL     1      46.792   4.209  14.393  0.00  0.00    +0.000 C 
ATOM      3  N   UNL     1      46.791   4.456  15.739  0.00  0.00    +0.000 N 
ATOM      4  H   UNL     1      46.272   5.248  16.109  0.00  0.00    +0.000 HD
ENDROOT
BRANCH   2   5
ATOM      5  C   UNL     1      46.241   5.265  13.537  0.00  0.00    +0.000 A 
ATOM      6  C   UNL     1      47.009   6.386  13.254  0.00  0.00    +0.000 A 
ATOM      7  S   UNL     1      46.230   7.507  12.235  0.00  0.00    +0.000 S 
ATOM      8  C   UNL     1      44.851   6.516  12.109  0.00  0.00    +0.000 A 
ATOM      9  N   UNL     1      43.798   6.881  11.330  0.00  0.00    +0.000 NA
ATOM     10  C   UNL     1      42.831   6.026  11.304  0.00  0.00    +0.000 A 
ATOM     11  N   UNL     1      42.816   4.844  11.997  0.00  0.00    +0.000 N 
ATOM     12  C   UNL     1      43.834   4.457  12.833  0.00  0.00    +0.000 A 
ATOM     13  O   UNL     1      43.742   3.438  13.511  0.00  0.00    +0.000 OA
ATOM     14  C   UNL     1      44.968   5.362  12.865  0.00  0.00    +0.000 A 
ATOM     15  H   UNL     1      42.014   4.232  11.957  0.00  0.00    +0.000 HD
ENDBRANCH   2   5
BRANCH   3  16
ATOM     16  C   UNL     1      47.279   3.496  16.697  0.00  0.00    +0.000 C 
BRANCH  16  17
ATOM     17  C   UNL     1      47.925   4.121  17.950  0.00  0.00    +0.000 C 
ATOM     18  C   UNL     1      48.514   5.528  17.791  0.00  0.00    +0.000 C 
ATOM     19  C   UNL     1      49.845   5.545  17.048  0.00  0.00    +0.000 C 
ATOM     20  C   UNL     1      50.788   4.465  17.566  0.00  0.00    +0.000 C 
ATOM     21  C   UNL     1      50.085   3.122  17.675  0.00  0.00    +0.000 C 
ATOM     22  O   UNL     1      48.916   3.227  18.488  0.00  0.00    +0.000 OA
ENDBRANCH  16  17
ENDBRANCH   3  16
TORSDOF 3
ENDMDL
MODEL 3
REMARK VINA RESULT:    -6.549      3.492      6.452
REMARK INTER + INTRA:          -8.309
REMARK INTER:                  -8.180
REMARK INTRA:                  -0.129
REMARK UNBOUND:                -0.611
REMARK  Name = 
REMARK  3 active torsions:
REMARK  status: ('A' for Active; 'I' for Inactive)
REMARK    1  A    between atoms: C_2  and  C_11
REMARK    2  A    between atoms: N_3  and  C_4
REMARK    3  A    between atoms: C_4  and  C_5
REMARK                            x       y       z     vdW  Elec       q    Type
REMARK                         _______ _______ _______ _____ _____    ______ ____
ROOT
ATOM      1  O   UNL     1      45.707   3.993  13.524  0.00  0.00    +0.000 OA
ATOM      2  C   UNL     1      45.660   4.753  12.560  0.00  0.00    +0.000 C 
ATOM      3  N   UNL     1      45.312   4.331  11.305  0.00  0.00    +0.000 N 
ATOM      4  H   UNL     1      45.415   4.958  10.512  0.00  0.00    +0.000 HD
ENDROOT
BRANCH   2   5
ATOM      5  C   UNL     1      45.927   6.188  12.712  0.00  0.00    +0.000 A 
ATOM      6  C   UNL     1      47.054   6.604  13.407  0.00  0.00    +0.000 A 
ATOM      7  S   UNL     1      47.225   8.297  13.477  0.00  0.00    +0.000 S 
ATOM      8  C   UNL     1      45.815   8.532  12.553  0.00  0.00    +0.000 A 
ATOM      9  N   UNL     1      45.406   9.783  12.209  0.00  0.00    +0.000 NA
ATOM     10  C   UNL     1      44.338   9.816  11.485  0.00  0.00    +0.000 A 
ATOM     11  N   UNL     1      43.633   8.712  11.084  0.00  0.00    +0.000 N 
ATOM     12  C   UNL     1      43.979   7.434  11.448  0.00  0.00    +0.000 A 
ATOM     13  O   UNL     1      43.269   6.478  11.150  0.00  0.00    +0.000 OA
ATOM     14  C   UNL     1      45.201   7.336  12.226  0.00  0.00    +0.000 A 
ATOM     15  H   UNL     1      42.786   8.808  10.543  0.00  0.00    +0.000 HD
ENDBRANCH   2   5
BRANCH   3  16
ATOM     16  C   UNL     1      45.047   2.946  11.007  0.00  0.00    +0.000 C 
BRANCH  16  17
ATOM     17  C   UNL     1      44.348   2.710   9.653  0.00  0.00    +0.000 C 
ATOM     18  C   UNL     1      44.886   1.560   8.791  0.00  0.00    +0.000 C 
ATOM     19  C   UNL     1      46.203   1.891   8.098  0.00  0.00    +0.000 C 
ATOM     20  C   UNL     1      46.163   3.269   7.450  0.00  0.00    +0.000 C 
ATOM     21  C   UNL     1      45.614   4.316   8.404  0.00  0.00    +0.000 C 
ATOM     22  O   UNL     1      44.328   3.931   8.892  0.00  0.00    +0.000 OA
ENDBRANCH  16  17
ENDBRANCH   3  16
TORSDOF 3
ENDMDL
MODEL 4
REMARK VINA RESULT:    -6.546      1.337      2.025
REMARK INTER + INTRA:          -8.306
REMARK INTER:                  -7.694
REMARK INTRA:                  -0.612
REMARK UNBOUND:                -0.611
REMARK  Name = 
REMARK  3 active torsions:
REMARK  status: ('A' for Active; 'I' for Inactive)
REMARK    1  A    between atoms: C_2  and  C_11
REMARK    2  A    between atoms: N_3  and  C_4
REMARK    3  A    between atoms: C_4  and  C_5
REMARK                            x       y       z     vdW  Elec       q    Type
REMARK                         _______ _______ _______ _____ _____    ______ ____
ROOT
ATOM      1  O   UNL     1      48.916   6.568  13.353  0.00  0.00    +0.000 OA
ATOM      2  C   UNL     1      47.838   6.224  13.832  0.00  0.00    +0.000 C 
ATOM      3  N   UNL     1      47.670   5.980  15.168  0.00  0.00    +0.000 N 
ATOM      4  H   UNL     1      46.803   5.570  15.504  0.00  0.00    +0.000 HD
ENDROOT
BRANCH   2   5
ATOM      5  C   UNL     1      46.640   6.105  12.994  0.00  0.00    +0.000 A 
ATOM      6  C   UNL     1      46.108   7.239  12.396  0.00  0.00    +0.000 A 
ATOM      7  S   UNL     1      44.731   6.925  11.444  0.00  0.00    +0.000 S 
ATOM      8  C   UNL     1      44.817   5.257  11.772  0.00  0.00    +0.000 A 
ATOM      9  N   UNL     1      43.930   4.390  11.215  0.00  0.00    +0.000 NA
ATOM     10  C   UNL     1      44.126   3.152  11.526  0.00  0.00    +0.000 A 
ATOM     11  N   UNL     1      45.121   2.704  12.354  0.00  0.00    +0.000 N 
ATOM     12  C   UNL     1      46.009   3.546  12.977  0.00  0.00    +0.000 A 
ATOM     13  O   UNL     1      46.825   3.117  13.787  0.00  0.00    +0.000 OA
ATOM     14  C   UNL     1      45.861   4.947  12.626  0.00  0.00    +0.000 A 
ATOM     15  H   UNL     1      45.202   1.724  12.581  0.00  0.00    +0.000 HD
ENDBRANCH   2   5
BRANCH   3  16
ATOM     16  C   UNL     1      48.766   6.037  16.103  0.00  0.00    +0.000 C 
BRANCH  16  17
ATOM     17  C   UNL     1      48.722   4.953  17.199  0.00  0.00    +0.000 C 
ATOM     18  C   UNL     1      47.358   4.683  17.847  0.00  0.00    +0.000 C 
ATOM     19  C   UNL     1      46.939   5.760  18.841  0.00  0.00    +0.000 C 
ATOM     20  C   UNL     1      48.081   6.127  19.781  0.00  0.00    +0.000 C 
ATOM     21  C   UNL     1      49.372   6.370  19.018  0.00  0.00    +0.000 C 
ATOM     22  O   UNL     1      49.703   5.239  18.211  0.00  0.00    +0.000 OA
ENDBRANCH  16  17
ENDBRANCH   3  16
TORSDOF 3
ENDMDL
MODEL 5
REMARK VINA RESULT:    -6.178      2.662      6.440
REMARK INTER + INTRA:          -7.873
REMARK INTER:                  -7.265
REMARK INTRA:                  -0.607
REMARK UNBOUND:                -0.611
REMARK  Name = 
REMARK  3 active torsions:
REMARK  status: ('A' for Active; 'I' for Inactive)
REMARK    1  A    between atoms: C_2  and  C_11
REMARK    2  A    between atoms: N_3  and  C_4
REMARK    3  A    between atoms: C_4  and  C_5
REMARK                            x       y       z     vdW  Elec       q    Type
REMARK                         _______ _______ _______ _____ _____    ______ ____
ROOT
ATOM      1  O   UNL     1      48.769   6.216  13.251  0.00  0.00    +0.000 OA
ATOM      2  C   UNL     1      48.007   6.097  14.207  0.00  0.00    +0.000 C 
ATOM      3  N   UNL     1      46.674   5.825  14.057  0.00  0.00    +0.000 N 
ATOM      4  H   UNL     1      46.054   5.867  14.861  0.00  0.00    +0.000 HD
ENDROOT
BRANCH   2   5
ATOM      5  C   UNL     1      48.500   6.189  15.586  0.00  0.00    +0.000 A 
ATOM      6  C   UNL     1      49.202   7.317  15.988  0.00  0.00    +0.000 A 
ATOM      7  S   UNL     1      49.688   7.271  17.620  0.00  0.00    +0.000 S 
ATOM      8  C   UNL     1      48.949   5.756  17.854  0.00  0.00    +0.000 A 
ATOM      9  N   UNL     1      48.962   5.155  19.074  0.00  0.00    +0.000 NA
ATOM     10  C   UNL     1      48.341   4.023  19.118  0.00  0.00    +0.000 A 
ATOM     11  N   UNL     1      47.721   3.431  18.050  0.00  0.00    +0.000 N 
ATOM     12  C   UNL     1      47.724   3.977  16.790  0.00  0.00    +0.000 A 
ATOM     13  O   UNL     1      47.242   3.371  15.838  0.00  0.00    +0.000 OA
ATOM     14  C   UNL     1      48.371   5.273  16.694  0.00  0.00    +0.000 A 
ATOM     15  H   UNL     1      47.279   2.529  18.144  0.00  0.00    +0.000 HD
ENDBRANCH   2   5
BRANCH   3  16
ATOM     16  C   UNL     1      46.050   5.732  12.761  0.00  0.00    +0.000 C 
BRANCH  16  17
ATOM     17  C   UNL     1      45.363   4.380  12.482  0.00  0.00    +0.000 C 
ATOM     18  C   UNL     1      44.957   4.101  11.029  0.00  0.00    +0.000 C 
ATOM     19  C   UNL     1      43.714   4.868  10.592  0.00  0.00    +0.000 C 
ATOM     20  C   UNL     1      42.609   4.784  11.638  0.00  0.00    +0.000 C 
ATOM     21  C   UNL     1      43.139   5.082  13.031  0.00  0.00    +0.000 C 
ATOM     22  O   UNL     1      44.229   4.218  13.353  0.00  0.00    +0.000 OA
ENDBRANCH  16  17
ENDBRANCH   3  16
TORSDOF 3
ENDMDL
MODEL 6
REMARK VINA RESULT:    -6.059      4.915      7.383
REMARK INTER + INTRA:          -7.733
REMARK INTER:                  -7.311
REMARK INTRA:                  -0.422
REMARK UNBOUND:                -0.611
REMARK  Name = 
REMARK  3 active torsions:
REMARK  status: ('A' for Active; 'I' for Inactive)
REMARK    1  A    between atoms: C_2  and  C_11
REMARK    2  A    between atoms: N_3  and  C_4
REMARK    3  A    between atoms: C_4  and  C_5
REMARK                            x       y       z     vdW  Elec       q    Type
REMARK                         _______ _______ _______ _____ _____    ______ ____
ROOT
ATOM      1  O   UNL     1      46.087   7.333  11.780  0.00  0.00    +0.000 OA
ATOM      2  C   UNL     1      44.932   7.049  11.470  0.00  0.00    +0.000 C 
ATOM      3  N   UNL     1      44.009   7.996  11.119  0.00  0.00    +0.000 N 
ATOM      4  H   UNL     1      43.034   7.735  11.000  0.00  0.00    +0.000 HD
ENDROOT
BRANCH   2   5
ATOM      5  C   UNL     1      44.488   5.652  11.405  0.00  0.00    +0.000 A 
ATOM      6  C   UNL     1      43.710   5.134  12.431  0.00  0.00    +0.000 A 
ATOM      7  S   UNL     1      43.265   3.506  12.194  0.00  0.00    +0.000 S 
ATOM      8  C   UNL     1      44.070   3.448  10.695  0.00  0.00    +0.000 A 
ATOM      9  N   UNL     1      44.045   2.323   9.932  0.00  0.00    +0.000 NA
ATOM     10  C   UNL     1      44.672   2.425   8.809  0.00  0.00    +0.000 A 
ATOM     11  N   UNL     1      45.335   3.546   8.384  0.00  0.00    +0.000 N 
ATOM     12  C   UNL     1      45.429   4.688   9.140  0.00  0.00    +0.000 A 
ATOM     13  O   UNL     1      46.112   5.638   8.769  0.00  0.00    +0.000 OA
ATOM     14  C   UNL     1      44.702   4.643  10.396  0.00  0.00    +0.000 A 
ATOM     15  H   UNL     1      45.833   3.551   7.506  0.00  0.00    +0.000 HD
ENDBRANCH   2   5
BRANCH   3  16
ATOM     16  C   UNL     1      44.302   9.407  11.161  0.00  0.00    +0.000 C 
BRANCH  16  17
ATOM     17  C   UNL     1      43.590  10.236  10.073  0.00  0.00    +0.000 C 
ATOM     18  C   UNL     1      44.115  11.658   9.837  0.00  0.00    +0.000 C 
ATOM     19  C   UNL     1      43.693  12.644  10.921  0.00  0.00    +0.000 C 
ATOM     20  C   UNL     1      42.212  12.510  11.253  0.00  0.00    +0.000 C 
ATOM     21  C   UNL     1      41.820  11.057  11.465  0.00  0.00    +0.000 C 
ATOM     22  O   UNL     1      42.175  10.267  10.329  0.00  0.00    +0.000 OA
ENDBRANCH  16  17
ENDBRANCH   3  16
TORSDOF 3
ENDMDL
MODEL 7
REMARK VINA RESULT:    -6.025      2.847      6.880
REMARK INTER + INTRA:          -7.693
REMARK INTER:                  -7.057
REMARK INTRA:                  -0.636
REMARK UNBOUND:                -0.611
REMARK  Name = 
REMARK  3 active torsions:
REMARK  status: ('A' for Active; 'I' for Inactive)
REMARK    1  A    between atoms: C_2  and  C_11
REMARK    2  A    between atoms: N_3  and  C_4
REMARK    3  A    between atoms: C_4  and  C_5
REMARK                            x       y       z     vdW  Elec       q    Type
REMARK                         _______ _______ _______ _____ _____    ______ ____
ROOT
ATOM      1  O   UNL     1      47.278   3.214  14.093  0.00  0.00    +0.000 OA
ATOM      2  C   UNL     1      47.168   4.264  14.723  0.00  0.00    +0.000 C 
ATOM      3  N   UNL     1      46.527   5.363  14.217  0.00  0.00    +0.000 N 
ATOM      4  H   UNL     1      46.574   6.249  14.710  0.00  0.00    +0.000 HD
ENDROOT
BRANCH   2   5
ATOM      5  C   UNL     1      47.676   4.382  16.094  0.00  0.00    +0.000 A 
ATOM      6  C   UNL     1      47.419   3.370  17.008  0.00  0.00    +0.000 A 
ATOM      7  S   UNL     1      48.093   3.654  18.547  0.00  0.00    +0.000 S 
ATOM      8  C   UNL     1      48.780   5.125  18.034  0.00  0.00    +0.000 A 
ATOM      9  N   UNL     1      49.541   5.872  18.879  0.00  0.00    +0.000 NA
ATOM     10  C   UNL     1      50.022   6.949  18.353  0.00  0.00    +0.000 A 
ATOM     11  N   UNL     1      49.799   7.354  17.064  0.00  0.00    +0.000 N 
ATOM     12  C   UNL     1      48.999   6.659  16.191  0.00  0.00    +0.000 A 
ATOM     13  O   UNL     1      48.745   7.104  15.075  0.00  0.00    +0.000 OA
ATOM     14  C   UNL     1      48.468   5.415  16.717  0.00  0.00    +0.000 A 
ATOM     15  H   UNL     1      50.180   8.225  16.723  0.00  0.00    +0.000 HD
ENDBRANCH   2   5
BRANCH   3  16
ATOM     16  C   UNL     1      46.001   5.394  12.875  0.00  0.00    +0.000 C 
BRANCH  16  17
ATOM     17  C   UNL     1      44.463   5.472  12.799  0.00  0.00    +0.000 C 
ATOM     18  C   UNL     1      43.686   4.236  13.271  0.00  0.00    +0.000 C 
ATOM     19  C   UNL     1      43.717   3.086  12.270  0.00  0.00    +0.000 C 
ATOM     20  C   UNL     1      43.433   3.570  10.853  0.00  0.00    +0.000 C 
ATOM     21  C   UNL     1      44.264   4.795  10.509  0.00  0.00    +0.000 C 
ATOM     22  O   UNL     1      44.055   5.833  11.467  0.00  0.00    +0.000 OA
ENDBRANCH  16  17
ENDBRANCH   3  16
TORSDOF 3
ENDMDL
MODEL 8
REMARK VINA RESULT:    -5.985      3.266      6.459
REMARK INTER + INTRA:          -7.646
REMARK INTER:                  -7.534
REMARK INTRA:                  -0.111
REMARK UNBOUND:                -0.611
REMARK  Name = 
REMARK  3 active torsions:
REMARK  status: ('A' for Active; 'I' for Inactive)
REMARK    1  A    between atoms: C_2  and  C_11
REMARK    2  A    between atoms: N_3  and  C_4
REMARK    3  A    between atoms: C_4  and  C_5
REMARK                            x       y       z     vdW  Elec       q    Type
REMARK                         _______ _______ _______ _____ _____    ______ ____
ROOT
ATOM      1  O   UNL     1      44.025   5.666  13.230  0.00  0.00    +0.000 OA
ATOM      2  C   UNL     1      45.002   5.845  12.507  0.00  0.00    +0.000 C 
ATOM      3  N   UNL     1      45.456   4.895  11.633  0.00  0.00    +0.000 N 
ATOM      4  H   UNL     1      46.341   5.028  11.153  0.00  0.00    +0.000 HD
ENDROOT
BRANCH   2   5
ATOM      5  C   UNL     1      45.715   7.128  12.501  0.00  0.00    +0.000 A 
ATOM      6  C   UNL     1      45.048   8.279  12.105  0.00  0.00    +0.000 A 
ATOM      7  S   UNL     1      46.011   9.682  12.172  0.00  0.00    +0.000 S 
ATOM      8  C   UNL     1      47.344   8.804  12.762  0.00  0.00    +0.000 A 
ATOM      9  N   UNL     1      48.510   9.431  13.074  0.00  0.00    +0.000 NA
ATOM     10  C   UNL     1      49.429   8.651  13.537  0.00  0.00    +0.000 A 
ATOM     11  N   UNL     1      49.293   7.298  13.703  0.00  0.00    +0.000 N 
ATOM     12  C   UNL     1      48.154   6.615  13.357  0.00  0.00    +0.000 A 
ATOM     13  O   UNL     1      48.104   5.391  13.430  0.00  0.00    +0.000 OA
ATOM     14  C   UNL     1      47.071   7.452  12.873  0.00  0.00    +0.000 A 
ATOM     15  H   UNL     1      50.063   6.739  14.042  0.00  0.00    +0.000 HD
ENDBRANCH   2   5
BRANCH   3  16
ATOM     16  C   UNL     1      44.866   3.582  11.552  0.00  0.00    +0.000 C 
BRANCH  16  17
ATOM     17  C   UNL     1      44.047   3.333  10.269  0.00  0.00    +0.000 C 
ATOM     18  C   UNL     1      44.334   2.030   9.511  0.00  0.00    +0.000 C 
ATOM     19  C   UNL     1      45.637   2.068   8.720  0.00  0.00    +0.000 C 
ATOM     20  C   UNL     1      45.773   3.362   7.928  0.00  0.00    +0.000 C 
ATOM     21  C   UNL     1      45.465   4.575   8.790  0.00  0.00    +0.000 C 
ATOM     22  O   UNL     1      44.171   4.459   9.382  0.00  0.00    +0.000 OA
ENDBRANCH  16  17
ENDBRANCH   3  16
TORSDOF 3
ENDMDL
MODEL 9
REMARK VINA RESULT:    -5.972      1.900      3.183
REMARK INTER + INTRA:          -7.630
REMARK INTER:                  -6.930
REMARK INTRA:                  -0.700
REMARK UNBOUND:                -0.611
REMARK  Name = 
REMARK  3 active torsions:
REMARK  status: ('A' for Active; 'I' for Inactive)
REMARK    1  A    between atoms: C_2  and  C_11
REMARK    2  A    between atoms: N_3  and  C_4
REMARK    3  A    between atoms: C_4  and  C_5
REMARK                            x       y       z     vdW  Elec       q    Type
REMARK                         _______ _______ _______ _____ _____    ______ ____
ROOT
ATOM      1  O   UNL     1      47.431   3.365  13.664  0.00  0.00    +0.000 OA
ATOM      2  C   UNL     1      46.729   4.272  14.104  0.00  0.00    +0.000 C 
ATOM      3  N   UNL     1      46.708   4.611  15.430  0.00  0.00    +0.000 N 
ATOM      4  H   UNL     1      46.019   5.273  15.774  0.00  0.00    +0.000 HD
ENDROOT
BRANCH   2   5
ATOM      5  C   UNL     1      45.901   5.091  13.211  0.00  0.00    +0.000 A 
ATOM      6  C   UNL     1      44.837   4.506  12.538  0.00  0.00    +0.000 A 
ATOM      7  S   UNL     1      43.968   5.596  11.558  0.00  0.00    +0.000 S 
ATOM      8  C   UNL     1      44.966   6.894  12.024  0.00  0.00    +0.000 A 
ATOM      9  N   UNL     1      44.734   8.152  11.564  0.00  0.00    +0.000 NA
ATOM     10  C   UNL     1      45.548   9.046  12.017  0.00  0.00    +0.000 A 
ATOM     11  N   UNL     1      46.582   8.793  12.880  0.00  0.00    +0.000 N 
ATOM     12  C   UNL     1      46.884   7.532  13.332  0.00  0.00    +0.000 A 
ATOM     13  O   UNL     1      47.876   7.331  14.027  0.00  0.00    +0.000 OA
ATOM     14  C   UNL     1      45.971   6.495  12.888  0.00  0.00    +0.000 A 
ATOM     15  H   UNL     1      47.203   9.533  13.174  0.00  0.00    +0.000 HD
ENDBRANCH   2   5
BRANCH   3  16
ATOM     16  C   UNL     1      47.454   3.877  16.421  0.00  0.00    +0.000 C 
BRANCH  16  17
ATOM     17  C   UNL     1      47.949   4.733  17.605  0.00  0.00    +0.000 C 
ATOM     18  C   UNL     1      48.559   6.098  17.260  0.00  0.00    +0.000 C 
ATOM     19  C   UNL     1      49.969   6.001  16.688  0.00  0.00    +0.000 C 
ATOM     20  C   UNL     1      50.839   5.052  17.503  0.00  0.00    +0.000 C 
ATOM     21  C   UNL     1      50.123   3.739  17.775  0.00  0.00    +0.000 C 
ATOM     22  O   UNL     1      48.866   3.971  18.411  0.00  0.00    +0.000 OA
ENDBRANCH  16  17
ENDBRANCH   3  16
TORSDOF 3
ENDMDL
