MODEL 1
REMARK VINA RESULT:    -9.044      0.000      0.000
REMARK INTER + INTRA:         -12.876
REMARK INTER:                 -11.687
REMARK INTRA:                  -1.188
REMARK UNBOUND:                -1.188
REMARK  Name = 
REMARK  5 active torsions:
REMARK  status: ('A' for Active; 'I' for Inactive)
REMARK    1  A    between atoms: C_2  and  C_4
REMARK    2  A    between atoms: C_7  and  N_8
REMARK    3  A    between atoms: N_8  and  C_9
REMARK    4  A    between atoms: C_9  and  C_10
REMARK    5  A    between atoms: C_15  and  C_16
REMARK                            x       y       z     vdW  Elec       q    Type
REMARK                         _______ _______ _______ _____ _____    ______ ____
ROOT
ATOM      1  C   UNL     1      43.542   4.538  11.374  0.00  0.00    +0.000 C 
ENDROOT
BRANCH   1   2
ATOM      2  C   UNL     1      44.819   4.861  12.109  0.00  0.00    +0.000 A 
ATOM      3  C   UNL     1      45.451   3.893  12.892  0.00  0.00    +0.000 A 
ATOM      4  C   UNL     1      46.674   4.178  13.480  0.00  0.00    +0.000 A 
ATOM      5  F   UNL     1      47.288   3.232  14.205  0.00  0.00    +0.000 F 
ATOM      6  C   UNL     1      47.300   5.407  13.292  0.00  0.00    +0.000 A 
ATOM      7  C   UNL     1      46.715   6.395  12.483  0.00  0.00    +0.000 A 
ATOM      8  C   UNL     1      45.450   6.108  11.928  0.00  0.00    +0.000 A 
BRANCH   7   9
ATOM      9  C   UNL     1      47.439   7.638  12.123  0.00  0.00    +0.000 A 
ATOM     10  C   UNL     1      46.786   8.885  12.154  0.00  0.00    +0.000 A 
ATOM     11  C   UNL     1      47.479  10.080  11.940  0.00  0.00    +0.000 A 
ATOM     12  C   UNL     1      48.846  10.057  11.691  0.00  0.00    +0.000 A 
ATOM     13  C   UNL     1      49.514   8.838  11.627  0.00  0.00    +0.000 A 
ATOM     14  C   UNL     1      48.815   7.642  11.831  0.00  0.00    +0.000 A 
ENDBRANCH   7   9
ENDBRANCH   1   2
BRANCH   1  15
ATOM     15  N   UNL     1      43.678   4.788   9.950  0.00  0.00    +0.000 N 
ATOM     16  H   UNL     1      42.804   5.011   9.478  0.00  0.00    +0.000 HD
BRANCH  15  20
ATOM     17  C   UNL     1      46.418   2.431   7.758  0.00  0.00    +0.000 A 
ATOM     18  C   UNL     1      45.506   1.810   8.611  0.00  0.00    +0.000 A 
ATOM     19  C   UNL     1      44.578   2.577   9.321  0.00  0.00    +0.000 A 
ATOM     20  C   UNL     1      44.519   3.973   9.183  0.00  0.00    +0.000 A 
ATOM     21  C   UNL     1      45.452   4.578   8.333  0.00  0.00    +0.000 A 
ATOM     22  C   UNL     1      46.400   3.819   7.629  0.00  0.00    +0.000 A 
BRANCH  17  24
ATOM     23  N   UNL     1      48.468   2.355   6.440  0.00  0.00    +0.000 N 
ATOM     24  C   UNL     1      47.447   1.653   7.025  0.00  0.00    +0.000 C 
ATOM     25  O   UNL     1      47.422   0.430   6.974  0.00  0.00    +0.000 OA
ATOM     26  H   UNL     1      49.217   1.808   6.034  0.00  0.00    +0.000 HD
ATOM     27  H   UNL     1      48.664   3.321   6.666  0.00  0.00    +0.000 HD
ENDBRANCH  17  24
ENDBRANCH  15  20
ENDBRANCH   1  15
TORSDOF 5
ENDMDL
MODEL 2
REMARK VINA RESULT:    -8.203      2.077      3.682
REMARK INTER + INTRA:         -11.789
REMARK INTER:                 -10.847
REMARK INTRA:                  -0.942
REMARK UNBOUND:                -1.188
REMARK  Name = 
REMARK  5 active torsions:
REMARK  status: ('A' for Active; 'I' for Inactive)
REMARK    1  A    between atoms: C_2  and  C_4
REMARK    2  A    between atoms: C_7  and  N_8
REMARK    3  A    between atoms: N_8  and  C_9
REMARK    4  A    between atoms: C_9  and  C_10
REMARK    5  A    between atoms: C_15  and  C_16
REMARK                            x       y       z     vdW  Elec       q    Type
REMARK                         _______ _______ _______ _____ _____    ______ ____
ROOT
ATOM      1  C   UNL     1      43.869   4.100  11.619  0.00  0.00    +0.000 C 
ENDROOT
BRANCH   1   2
ATOM      2  C   UNL     1      45.018   4.916  12.157  0.00  0.00    +0.000 A 
ATOM      3  C   UNL     1      45.274   6.195  11.658  0.00  0.00    +0.000 A 
ATOM      4  C   UNL     1      46.272   6.968  12.232  0.00  0.00    +0.000 A 
ATOM      5  F   UNL     1      46.490   8.206  11.767  0.00  0.00    +0.000 F 
ATOM      6  C   UNL     1      47.018   6.503  13.311  0.00  0.00    +0.000 A 
ATOM      7  C   UNL     1      46.768   5.237  13.866  0.00  0.00    +0.000 A 
ATOM      8  C   UNL     1      45.780   4.445  13.244  0.00  0.00    +0.000 A 
BRANCH   7   9
ATOM      9  C   UNL     1      47.422   4.792  15.120  0.00  0.00    +0.000 A 
ATOM     10  C   UNL     1      47.375   3.442  15.516  0.00  0.00    +0.000 A 
ATOM     11  C   UNL     1      48.086   2.978  16.626  0.00  0.00    +0.000 A 
ATOM     12  C   UNL     1      48.866   3.857  17.369  0.00  0.00    +0.000 A 
ATOM     13  C   UNL     1      48.910   5.202  17.019  0.00  0.00    +0.000 A 
ATOM     14  C   UNL     1      48.187   5.666  15.913  0.00  0.00    +0.000 A 
ENDBRANCH   7   9
ENDBRANCH   1   2
BRANCH   1  15
ATOM     15  N   UNL     1      43.700   4.308  10.192  0.00  0.00    +0.000 N 
ATOM     16  H   UNL     1      42.731   4.283   9.876  0.00  0.00    +0.000 HD
BRANCH  15  20
ATOM     17  C   UNL     1      46.558   2.576   7.603  0.00  0.00    +0.000 A 
ATOM     18  C   UNL     1      45.816   1.757   8.455  0.00  0.00    +0.000 A 
ATOM     19  C   UNL     1      44.850   2.316   9.297  0.00  0.00    +0.000 A 
ATOM     20  C   UNL     1      44.581   3.694   9.295  0.00  0.00    +0.000 A 
ATOM     21  C   UNL     1      45.346   4.500   8.443  0.00  0.00    +0.000 A 
ATOM     22  C   UNL     1      46.331   3.953   7.607  0.00  0.00    +0.000 A 
BRANCH  17  24
ATOM     23  N   UNL     1      48.037   2.797   5.679  0.00  0.00    +0.000 N 
ATOM     24  C   UNL     1      47.623   2.025   6.730  0.00  0.00    +0.000 C 
ATOM     25  O   UNL     1      48.150   0.943   6.957  0.00  0.00    +0.000 OA
ATOM     26  H   UNL     1      48.834   2.456   5.155  0.00  0.00    +0.000 HD
ATOM     27  H   UNL     1      47.815   3.781   5.604  0.00  0.00    +0.000 HD
ENDBRANCH  17  24
ENDBRANCH  15  20
ENDBRANCH   1  15
TORSDOF 5
ENDMDL
MODEL 3
REMARK VINA RESULT:    -8.079      1.923      2.603
REMARK INTER + INTRA:         -11.629
REMARK INTER:                 -10.563
REMARK INTRA:                  -1.066
REMARK UNBOUND:                -1.188
REMARK  Name = 
REMARK  5 active torsions:
REMARK  status: ('A' for Active; 'I' for Inactive)
REMARK    1  A    between atoms: C_2  and  C_4
REMARK    2  A    between atoms: C_7  and  N_8
REMARK    3  A    between atoms: N_8  and  C_9
REMARK    4  A    between atoms: C_9  and  C_10
REMARK    5  A    between atoms: C_15  and  C_16
REMARK                            x       y       z     vdW  Elec       q    Type
REMARK                         _______ _______ _______ _____ _____    ______ ____
ROOT
ATOM      1  C   UNL     1      44.174   4.161  11.775  0.00  0.00    +0.000 C 
ENDROOT
BRANCH   1   2
ATOM      2  C   UNL     1      45.031   5.372  12.046  0.00  0.00    +0.000 A 
ATOM      3  C   UNL     1      46.379   5.226  12.381  0.00  0.00    +0.000 A 
ATOM      4  C   UNL     1      47.176   6.352  12.530  0.00  0.00    +0.000 A 
ATOM      5  F   UNL     1      48.475   6.200  12.821  0.00  0.00    +0.000 F 
ATOM      6  C   UNL     1      46.664   7.631  12.335  0.00  0.00    +0.000 A 
ATOM      7  C   UNL     1      45.323   7.821  11.962  0.00  0.00    +0.000 A 
ATOM      8  C   UNL     1      44.515   6.669  11.858  0.00  0.00    +0.000 A 
BRANCH   7   9
ATOM      9  C   UNL     1      44.801   9.154  11.577  0.00  0.00    +0.000 A 
ATOM     10  C   UNL     1      45.491  10.327  11.935  0.00  0.00    +0.000 A 
ATOM     11  C   UNL     1      45.086  11.585  11.478  0.00  0.00    +0.000 A 
ATOM     12  C   UNL     1      43.978  11.699  10.647  0.00  0.00    +0.000 A 
ATOM     13  C   UNL     1      43.259  10.560  10.298  0.00  0.00    +0.000 A 
ATOM     14  C   UNL     1      43.661   9.303  10.767  0.00  0.00    +0.000 A 
ENDBRANCH   7   9
ENDBRANCH   1   2
BRANCH   1  15
ATOM     15  N   UNL     1      43.750   4.118  10.387  0.00  0.00    +0.000 N 
ATOM     16  H   UNL     1      42.785   3.823  10.252  0.00  0.00    +0.000 HD
BRANCH  15  20
ATOM     17  C   UNL     1      46.566   2.683   7.578  0.00  0.00    +0.000 A 
ATOM     18  C   UNL     1      45.863   1.776   8.372  0.00  0.00    +0.000 A 
ATOM     19  C   UNL     1      44.910   2.238   9.286  0.00  0.00    +0.000 A 
ATOM     20  C   UNL     1      44.618   3.605   9.415  0.00  0.00    +0.000 A 
ATOM     21  C   UNL     1      45.344   4.499   8.620  0.00  0.00    +0.000 A 
ATOM     22  C   UNL     1      46.315   4.049   7.713  0.00  0.00    +0.000 A 
BRANCH  17  24
ATOM     23  N   UNL     1      47.732   2.915   5.451  0.00  0.00    +0.000 N 
ATOM     24  C   UNL     1      47.616   2.234   6.632  0.00  0.00    +0.000 C 
ATOM     25  O   UNL     1      48.384   1.320   6.904  0.00  0.00    +0.000 OA
ATOM     26  H   UNL     1      48.517   2.667   4.862  0.00  0.00    +0.000 HD
ATOM     27  H   UNL     1      47.298   3.816   5.296  0.00  0.00    +0.000 HD
ENDBRANCH  17  24
ENDBRANCH  15  20
ENDBRANCH   1  15
TORSDOF 5
ENDMDL
MODEL 4
REMARK VINA RESULT:    -7.703      3.225      6.611
REMARK INTER + INTRA:         -11.143
REMARK INTER:                 -10.156
REMARK INTRA:                  -0.986
REMARK UNBOUND:                -1.188
REMARK  Name = 
REMARK  5 active torsions:
REMARK  status: ('A' for Active; 'I' for Inactive)
REMARK    1  A    between atoms: C_2  and  C_4
REMARK    2  A    between atoms: C_7  and  N_8
REMARK    3  A    between atoms: N_8  and  C_9
REMARK    4  A    between atoms: C_9  and  C_10
REMARK    5  A    between atoms: C_15  and  C_16
REMARK                            x       y       z     vdW  Elec       q    Type
REMARK                         _______ _______ _______ _____ _____    ______ ____
ROOT
ATOM      1  C   UNL     1      43.846   6.543  11.182  0.00  0.00    +0.000 C 
ENDROOT
BRANCH   1   2
ATOM      2  C   UNL     1      44.072   5.074  10.924  0.00  0.00    +0.000 A 
ATOM      3  C   UNL     1      43.361   4.111  11.644  0.00  0.00    +0.000 A 
ATOM      4  C   UNL     1      43.510   2.769  11.325  0.00  0.00    +0.000 A 
ATOM      5  F   UNL     1      42.801   1.854  12.001  0.00  0.00    +0.000 F 
ATOM      6  C   UNL     1      44.341   2.359  10.287  0.00  0.00    +0.000 A 
ATOM      7  C   UNL     1      45.045   3.298   9.515  0.00  0.00    +0.000 A 
ATOM      8  C   UNL     1      44.918   4.655   9.879  0.00  0.00    +0.000 A 
BRANCH   7   9
ATOM      9  C   UNL     1      45.793   2.904   8.297  0.00  0.00    +0.000 A 
ATOM     10  C   UNL     1      46.110   3.854   7.309  0.00  0.00    +0.000 A 
ATOM     11  C   UNL     1      46.919   3.532   6.215  0.00  0.00    +0.000 A 
ATOM     12  C   UNL     1      47.433   2.248   6.085  0.00  0.00    +0.000 A 
ATOM     13  C   UNL     1      47.114   1.279   7.030  0.00  0.00    +0.000 A 
ATOM     14  C   UNL     1      46.294   1.601   8.119  0.00  0.00    +0.000 A 
ENDBRANCH   7   9
ENDBRANCH   1   2
BRANCH   1  15
ATOM     15  N   UNL     1      44.418   6.947  12.454  0.00  0.00    +0.000 N 
ATOM     16  H   UNL     1      43.798   7.512  13.032  0.00  0.00    +0.000 HD
BRANCH  15  20
ATOM     17  C   UNL     1      48.494   8.066  12.422  0.00  0.00    +0.000 A 
ATOM     18  C   UNL     1      47.518   9.017  12.122  0.00  0.00    +0.000 A 
ATOM     19  C   UNL     1      46.165   8.665  12.156  0.00  0.00    +0.000 A 
ATOM     20  C   UNL     1      45.751   7.371  12.509  0.00  0.00    +0.000 A 
ATOM     21  C   UNL     1      46.746   6.428  12.791  0.00  0.00    +0.000 A 
ATOM     22  C   UNL     1      48.108   6.765  12.743  0.00  0.00    +0.000 A 
BRANCH  17  24
ATOM     23  N   UNL     1      50.780   7.709  13.190  0.00  0.00    +0.000 N 
ATOM     24  C   UNL     1      49.940   8.391  12.351  0.00  0.00    +0.000 C 
ATOM     25  O   UNL     1      50.383   9.202  11.548  0.00  0.00    +0.000 OA
ATOM     26  H   UNL     1      51.772   7.864  13.059  0.00  0.00    +0.000 HD
ATOM     27  H   UNL     1      50.498   6.869  13.678  0.00  0.00    +0.000 HD
ENDBRANCH  17  24
ENDBRANCH  15  20
ENDBRANCH   1  15
TORSDOF 5
ENDMDL
MODEL 5
REMARK VINA RESULT:    -7.529      3.908      7.319
REMARK INTER + INTRA:         -10.919
REMARK INTER:                 -10.131
REMARK INTRA:                  -0.788
REMARK UNBOUND:                -1.188
REMARK  Name = 
REMARK  5 active torsions:
REMARK  status: ('A' for Active; 'I' for Inactive)
REMARK    1  A    between atoms: C_2  and  C_4
REMARK    2  A    between atoms: C_7  and  N_8
REMARK    3  A    between atoms: N_8  and  C_9
REMARK    4  A    between atoms: C_9  and  C_10
REMARK    5  A    between atoms: C_15  and  C_16
REMARK                            x       y       z     vdW  Elec       q    Type
REMARK                         _______ _______ _______ _____ _____    ______ ____
ROOT
ATOM      1  C   UNL     1      46.290   7.294  12.391  0.00  0.00    +0.000 C 
ENDROOT
BRANCH   1   2
ATOM      2  C   UNL     1      45.346   6.295  11.769  0.00  0.00    +0.000 A 
ATOM      3  C   UNL     1      43.975   6.360  12.026  0.00  0.00    +0.000 A 
ATOM      4  C   UNL     1      43.112   5.496  11.369  0.00  0.00    +0.000 A 
ATOM      5  F   UNL     1      41.795   5.586  11.599  0.00  0.00    +0.000 F 
ATOM      6  C   UNL     1      43.582   4.571  10.440  0.00  0.00    +0.000 A 
ATOM      7  C   UNL     1      44.949   4.498  10.126  0.00  0.00    +0.000 A 
ATOM      8  C   UNL     1      45.819   5.353  10.835  0.00  0.00    +0.000 A 
BRANCH   7   9
ATOM      9  C   UNL     1      45.450   3.651   9.018  0.00  0.00    +0.000 A 
ATOM     10  C   UNL     1      46.019   4.232   7.869  0.00  0.00    +0.000 A 
ATOM     11  C   UNL     1      46.609   3.453   6.868  0.00  0.00    +0.000 A 
ATOM     12  C   UNL     1      46.646   2.070   6.996  0.00  0.00    +0.000 A 
ATOM     13  C   UNL     1      46.067   1.465   8.106  0.00  0.00    +0.000 A 
ATOM     14  C   UNL     1      45.467   2.247   9.101  0.00  0.00    +0.000 A 
ENDBRANCH   7   9
ENDBRANCH   1   2
BRANCH   1  15
ATOM     15  N   UNL     1      47.538   6.664  12.782  0.00  0.00    +0.000 N 
ATOM     16  H   UNL     1      47.978   6.112  12.047  0.00  0.00    +0.000 HD
BRANCH  15  20
ATOM     17  C   UNL     1      47.988   4.676  16.486  0.00  0.00    +0.000 A 
ATOM     18  C   UNL     1      48.640   5.890  16.274  0.00  0.00    +0.000 A 
ATOM     19  C   UNL     1      48.478   6.570  15.063  0.00  0.00    +0.000 A 
ATOM     20  C   UNL     1      47.648   6.072  14.046  0.00  0.00    +0.000 A 
ATOM     21  C   UNL     1      47.014   4.845  14.272  0.00  0.00    +0.000 A 
ATOM     22  C   UNL     1      47.183   4.145  15.477  0.00  0.00    +0.000 A 
BRANCH  17  24
ATOM     23  N   UNL     1      47.260   2.922  18.014  0.00  0.00    +0.000 N 
ATOM     24  C   UNL     1      48.173   3.904  17.739  0.00  0.00    +0.000 C 
ATOM     25  O   UNL     1      49.126   4.097  18.484  0.00  0.00    +0.000 OA
ATOM     26  H   UNL     1      47.456   2.335  18.816  0.00  0.00    +0.000 HD
ATOM     27  H   UNL     1      46.617   2.565  17.319  0.00  0.00    +0.000 HD
ENDBRANCH  17  24
ENDBRANCH  15  20
ENDBRANCH   1  15
TORSDOF 5
ENDMDL
MODEL 6
REMARK VINA RESULT:    -7.302      4.711      7.817
REMARK INTER + INTRA:         -10.625
REMARK INTER:                 -10.015
REMARK INTRA:                  -0.610
REMARK UNBOUND:                -1.188
REMARK  Name = 
REMARK  5 active torsions:
REMARK  status: ('A' for Active; 'I' for Inactive)
REMARK    1  A    between atoms: C_2  and  C_4
REMARK    2  A    between atoms: C_7  and  N_8
REMARK    3  A    between atoms: N_8  and  C_9
REMARK    4  A    between atoms: C_9  and  C_10
REMARK    5  A    between atoms: C_15  and  C_16
REMARK                            x       y       z     vdW  Elec       q    Type
REMARK                         _______ _______ _______ _____ _____    ______ ____
ROOT
ATOM      1  C   UNL     1      46.249   5.337  13.910  0.00  0.00    +0.000 C 
ENDROOT
BRANCH   1   2
ATOM      2  C   UNL     1      45.262   4.990  12.823  0.00  0.00    +0.000 A 
ATOM      3  C   UNL     1      43.949   5.463  12.881  0.00  0.00    +0.000 A 
ATOM      4  C   UNL     1      43.083   5.216  11.826  0.00  0.00    +0.000 A 
ATOM      5  F   UNL     1      41.834   5.699  11.877  0.00  0.00    +0.000 F 
ATOM      6  C   UNL     1      43.500   4.519  10.695  0.00  0.00    +0.000 A 
ATOM      7  C   UNL     1      44.822   4.059  10.581  0.00  0.00    +0.000 A 
ATOM      8  C   UNL     1      45.678   4.278  11.681  0.00  0.00    +0.000 A 
BRANCH   7   9
ATOM      9  C   UNL     1      45.339   3.474   9.320  0.00  0.00    +0.000 A 
ATOM     10  C   UNL     1      45.796   4.302   8.278  0.00  0.00    +0.000 A 
ATOM     11  C   UNL     1      46.400   3.774   7.133  0.00  0.00    +0.000 A 
ATOM     12  C   UNL     1      46.563   2.400   7.004  0.00  0.00    +0.000 A 
ATOM     13  C   UNL     1      46.097   1.554   8.005  0.00  0.00    +0.000 A 
ATOM     14  C   UNL     1      45.482   2.086   9.146  0.00  0.00    +0.000 A 
ENDBRANCH   7   9
ENDBRANCH   1   2
BRANCH   1  15
ATOM     15  N   UNL     1      46.295   4.303  14.928  0.00  0.00    +0.000 N 
ATOM     16  H   UNL     1      45.393   4.092  15.351  0.00  0.00    +0.000 HD
BRANCH  15  20
ATOM     17  C   UNL     1      49.606   4.108  17.548  0.00  0.00    +0.000 A 
ATOM     18  C   UNL     1      49.225   5.339  17.012  0.00  0.00    +0.000 A 
ATOM     19  C   UNL     1      48.116   5.419  16.165  0.00  0.00    +0.000 A 
ATOM     20  C   UNL     1      47.347   4.287  15.851  0.00  0.00    +0.000 A 
ATOM     21  C   UNL     1      47.754   3.060  16.387  0.00  0.00    +0.000 A 
ATOM     22  C   UNL     1      48.878   2.964  17.223  0.00  0.00    +0.000 A 
BRANCH  17  24
ATOM     23  N   UNL     1      51.645   2.924  18.167  0.00  0.00    +0.000 N 
ATOM     24  C   UNL     1      50.805   3.977  18.412  0.00  0.00    +0.000 C 
ATOM     25  O   UNL     1      51.068   4.796  19.283  0.00  0.00    +0.000 OA
ATOM     26  H   UNL     1      52.510   2.905  18.693  0.00  0.00    +0.000 HD
ATOM     27  H   UNL     1      51.603   2.381  17.314  0.00  0.00    +0.000 HD
ENDBRANCH  17  24
ENDBRANCH  15  20
ENDBRANCH   1  15
TORSDOF 5
ENDMDL
MODEL 7
REMARK VINA RESULT:    -7.038      3.472      6.762
REMARK INTER + INTRA:         -10.283
REMARK INTER:                  -9.348
REMARK INTRA:                  -0.935
REMARK UNBOUND:                -1.188
REMARK  Name = 
REMARK  5 active torsions:
REMARK  status: ('A' for Active; 'I' for Inactive)
REMARK    1  A    between atoms: C_2  and  C_4
REMARK    2  A    between atoms: C_7  and  N_8
REMARK    3  A    between atoms: N_8  and  C_9
REMARK    4  A    between atoms: C_9  and  C_10
REMARK    5  A    between atoms: C_15  and  C_16
REMARK                            x       y       z     vdW  Elec       q    Type
REMARK                         _______ _______ _______ _____ _____    ______ ____
ROOT
ATOM      1  C   UNL     1      46.208   5.022  13.624  0.00  0.00    +0.000 C 
ENDROOT
BRANCH   1   2
ATOM      2  C   UNL     1      45.267   4.696  12.491  0.00  0.00    +0.000 A 
ATOM      3  C   UNL     1      43.955   5.175  12.500  0.00  0.00    +0.000 A 
ATOM      4  C   UNL     1      43.135   4.949  11.404  0.00  0.00    +0.000 A 
ATOM      5  F   UNL     1      41.887   5.439  11.408  0.00  0.00    +0.000 F 
ATOM      6  C   UNL     1      43.597   4.267  10.282  0.00  0.00    +0.000 A 
ATOM      7  C   UNL     1      44.920   3.801  10.218  0.00  0.00    +0.000 A 
ATOM      8  C   UNL     1      45.729   3.999  11.358  0.00  0.00    +0.000 A 
BRANCH   7   9
ATOM      9  C   UNL     1      45.488   3.232   8.972  0.00  0.00    +0.000 A 
ATOM     10  C   UNL     1      45.957   4.074   7.946  0.00  0.00    +0.000 A 
ATOM     11  C   UNL     1      46.607   3.563   6.819  0.00  0.00    +0.000 A 
ATOM     12  C   UNL     1      46.807   2.194   6.692  0.00  0.00    +0.000 A 
ATOM     13  C   UNL     1      46.330   1.334   7.676  0.00  0.00    +0.000 A 
ATOM     14  C   UNL     1      45.668   1.848   8.799  0.00  0.00    +0.000 A 
ENDBRANCH   7   9
ENDBRANCH   1   2
BRANCH   1  15
ATOM     15  N   UNL     1      46.424   6.454  13.732  0.00  0.00    +0.000 N 
ATOM     16  H   UNL     1      45.603   7.019  13.522  0.00  0.00    +0.000 HD
BRANCH  15  20
ATOM     17  C   UNL     1      50.125   7.919  12.309  0.00  0.00    +0.000 A 
ATOM     18  C   UNL     1      49.068   7.738  11.416  0.00  0.00    +0.000 A 
ATOM     19  C   UNL     1      47.832   7.280  11.880  0.00  0.00    +0.000 A 
ATOM     20  C   UNL     1      47.610   7.013  13.240  0.00  0.00    +0.000 A 
ATOM     21  C   UNL     1      48.686   7.186  14.117  0.00  0.00    +0.000 A 
ATOM     22  C   UNL     1      49.938   7.629  13.660  0.00  0.00    +0.000 A 
BRANCH  17  24
ATOM     23  N   UNL     1      52.177   7.490  11.065  0.00  0.00    +0.000 N 
ATOM     24  C   UNL     1      51.464   8.360  11.846  0.00  0.00    +0.000 C 
ATOM     25  O   UNL     1      51.907   9.471  12.108  0.00  0.00    +0.000 OA
ATOM     26  H   UNL     1      53.041   7.842  10.671  0.00  0.00    +0.000 HD
ATOM     27  H   UNL     1      51.755   6.684  10.623  0.00  0.00    +0.000 HD
ENDBRANCH  17  24
ENDBRANCH  15  20
ENDBRANCH   1  15
TORSDOF 5
ENDMDL
MODEL 8
REMARK VINA RESULT:    -6.293      3.770      5.889
REMARK INTER + INTRA:          -9.321
REMARK INTER:                  -8.319
REMARK INTRA:                  -1.002
REMARK UNBOUND:                -1.188
REMARK  Name = 
REMARK  5 active torsions:
REMARK  status: ('A' for Active; 'I' for Inactive)
REMARK    1  A    between atoms: C_2  and  C_4
REMARK    2  A    between atoms: C_7  and  N_8
REMARK    3  A    between atoms: N_8  and  C_9
REMARK    4  A    between atoms: C_9  and  C_10
REMARK    5  A    between atoms: C_15  and  C_16
REMARK                            x       y       z     vdW  Elec       q    Type
REMARK                         _______ _______ _______ _____ _____    ______ ____
ROOT
ATOM      1  C   UNL     1      47.504   8.130  12.764  0.00  0.00    +0.000 C 
ENDROOT
BRANCH   1   2
ATOM      2  C   UNL     1      48.068   8.040  14.160  0.00  0.00    +0.000 A 
ATOM      3  C   UNL     1      48.164   9.181  14.960  0.00  0.00    +0.000 A 
ATOM      4  C   UNL     1      48.592   9.064  16.274  0.00  0.00    +0.000 A 
ATOM      5  F   UNL     1      48.652  10.160  17.043  0.00  0.00    +0.000 F 
ATOM      6  C   UNL     1      48.913   7.825  16.824  0.00  0.00    +0.000 A 
ATOM      7  C   UNL     1      48.795   6.650  16.064  0.00  0.00    +0.000 A 
ATOM      8  C   UNL     1      48.401   6.790  14.717  0.00  0.00    +0.000 A 
BRANCH   7   9
ATOM      9  C   UNL     1      48.957   5.308  16.674  0.00  0.00    +0.000 A 
ATOM     10  C   UNL     1      47.953   4.331  16.540  0.00  0.00    +0.000 A 
ATOM     11  C   UNL     1      48.137   3.023  16.999  0.00  0.00    +0.000 A 
ATOM     12  C   UNL     1      49.334   2.660  17.603  0.00  0.00    +0.000 A 
ATOM     13  C   UNL     1      50.335   3.611  17.775  0.00  0.00    +0.000 A 
ATOM     14  C   UNL     1      50.144   4.923  17.324  0.00  0.00    +0.000 A 
ENDBRANCH   7   9
ENDBRANCH   1   2
BRANCH   1  15
ATOM     15  N   UNL     1      46.086   7.820  12.750  0.00  0.00    +0.000 N 
ATOM     16  H   UNL     1      45.581   8.126  13.580  0.00  0.00    +0.000 HD
BRANCH  15  20
ATOM     17  C   UNL     1      44.546   4.116  11.413  0.00  0.00    +0.000 A 
ATOM     18  C   UNL     1      45.071   5.018  10.486  0.00  0.00    +0.000 A 
ATOM     19  C   UNL     1      45.607   6.234  10.920  0.00  0.00    +0.000 A 
ATOM     20  C   UNL     1      45.655   6.572  12.281  0.00  0.00    +0.000 A 
ATOM     21  C   UNL     1      45.111   5.662  13.193  0.00  0.00    +0.000 A 
ATOM     22  C   UNL     1      44.553   4.445  12.769  0.00  0.00    +0.000 A 
BRANCH  17  24
ATOM     23  N   UNL     1      44.502   2.182   9.931  0.00  0.00    +0.000 N 
ATOM     24  C   UNL     1      43.927   2.837  10.986  0.00  0.00    +0.000 C 
ATOM     25  O   UNL     1      42.968   2.354  11.574  0.00  0.00    +0.000 OA
ATOM     26  H   UNL     1      44.135   1.263   9.717  0.00  0.00    +0.000 HD
ATOM     27  H   UNL     1      45.425   2.409   9.585  0.00  0.00    +0.000 HD
ENDBRANCH  17  24
ENDBRANCH  15  20
ENDBRANCH   1  15
TORSDOF 5
ENDMDL
MODEL 9
REMARK VINA RESULT:    -6.149      5.076      7.826
REMARK INTER + INTRA:          -9.135
REMARK INTER:                  -8.148
REMARK INTRA:                  -0.987
REMARK UNBOUND:                -1.188
REMARK  Name = 
REMARK  5 active torsions:
REMARK  status: ('A' for Active; 'I' for Inactive)
REMARK    1  A    between atoms: C_2  and  C_4
REMARK    2  A    between atoms: C_7  and  N_8
REMARK    3  A    between atoms: N_8  and  C_9
REMARK    4  A    between atoms: C_9  and  C_10
REMARK    5  A    between atoms: C_15  and  C_16
REMARK                            x       y       z     vdW  Elec       q    Type
REMARK                         _______ _______ _______ _____ _____    ______ ____
ROOT
ATOM      1  C   UNL     1      48.816   7.607  15.859  0.00  0.00    +0.000 C 
ENDROOT
BRANCH   1   2
ATOM      2  C   UNL     1      48.512   7.437  14.392  0.00  0.00    +0.000 A 
ATOM      3  C   UNL     1      49.467   7.765  13.427  0.00  0.00    +0.000 A 
ATOM      4  C   UNL     1      49.206   7.510  12.089  0.00  0.00    +0.000 A 
ATOM      5  F   UNL     1      50.141   7.800  11.173  0.00  0.00    +0.000 F 
ATOM      6  C   UNL     1      48.015   6.914  11.684  0.00  0.00    +0.000 A 
ATOM      7  C   UNL     1      47.044   6.535  12.625  0.00  0.00    +0.000 A 
ATOM      8  C   UNL     1      47.304   6.842  13.978  0.00  0.00    +0.000 A 
BRANCH   7   9
ATOM      9  C   UNL     1      45.852   5.743  12.240  0.00  0.00    +0.000 A 
ATOM     10  C   UNL     1      44.957   5.268  13.218  0.00  0.00    +0.000 A 
ATOM     11  C   UNL     1      43.764   4.627  12.871  0.00  0.00    +0.000 A 
ATOM     12  C   UNL     1      43.436   4.445  11.533  0.00  0.00    +0.000 A 
ATOM     13  C   UNL     1      44.313   4.878  10.544  0.00  0.00    +0.000 A 
ATOM     14  C   UNL     1      45.513   5.510  10.895  0.00  0.00    +0.000 A 
ENDBRANCH   7   9
ENDBRANCH   1   2
BRANCH   1  15
ATOM     15  N   UNL     1      48.284   6.502  16.637  0.00  0.00    +0.000 N 
ATOM     16  H   UNL     1      47.659   6.782  17.391  0.00  0.00    +0.000 HD
BRANCH  15  20
ATOM     17  C   UNL     1      50.779   3.192  17.471  0.00  0.00    +0.000 A 
ATOM     18  C   UNL     1      51.326   4.475  17.441  0.00  0.00    +0.000 A 
ATOM     19  C   UNL     1      50.505   5.580  17.192  0.00  0.00    +0.000 A 
ATOM     20  C   UNL     1      49.123   5.439  16.992  0.00  0.00    +0.000 A 
ATOM     21  C   UNL     1      48.596   4.142  17.011  0.00  0.00    +0.000 A 
ATOM     22  C   UNL     1      49.413   3.024  17.242  0.00  0.00    +0.000 A 
BRANCH  17  24
ATOM     23  N   UNL     1      52.640   2.095  18.599  0.00  0.00    +0.000 N 
ATOM     24  C   UNL     1      51.625   1.993  17.686  0.00  0.00    +0.000 C 
ATOM     25  O   UNL     1      51.409   0.936  17.108  0.00  0.00    +0.000 OA
ATOM     26  H   UNL     1      53.143   1.242  18.812  0.00  0.00    +0.000 HD
ATOM     27  H   UNL     1      52.696   2.851  19.270  0.00  0.00    +0.000 HD
ENDBRANCH  17  24
ENDBRANCH  15  20
ENDBRANCH   1  15
TORSDOF 5
ENDMDL
