MODEL 1
REMARK VINA RESULT:    -9.240      0.000      0.000
REMARK INTER + INTRA:         -12.737
REMARK INTER:                 -11.940
REMARK INTRA:                  -0.797
REMARK UNBOUND:                -0.797
REMARK  Name = 
REMARK  6 active torsions:
REMARK  status: ('A' for Active; 'I' for Inactive)
REMARK    1  A    between atoms: C_1  and  C_2
REMARK    2  A    between atoms: C_2  and  N_3
REMARK    3  A    between atoms: C_2  and  C_16
REMARK    4  A    between atoms: C_4  and  C_6
REMARK    5  A    between atoms: C_19  and  C_20
REMARK    6  A    between atoms: C_20  and  C_21
REMARK                            x       y       z     vdW  Elec       q    Type
REMARK                         _______ _______ _______ _____ _____    ______ ____
ROOT
ATOM      1  C   UNL     1      45.388   8.602  12.738  0.00  0.00    +0.000 C 
ATOM      2  C   UNL     1      46.520   7.572  12.644  0.00  0.00    +0.000 C 
ENDROOT
BRANCH   2   3
ATOM      3  C   UNL     1      46.025   6.391  11.817  0.00  0.00    +0.000 A 
ATOM      4  C   UNL     1      46.234   6.380  10.428  0.00  0.00    +0.000 A 
ATOM      5  C   UNL     1      45.719   5.349   9.637  0.00  0.00    +0.000 A 
ATOM      6  C   UNL     1      44.985   4.303  10.212  0.00  0.00    +0.000 A 
ATOM      7  C   UNL     1      44.781   4.308  11.598  0.00  0.00    +0.000 A 
ATOM      8  C   UNL     1      45.282   5.346  12.386  0.00  0.00    +0.000 A 
BRANCH   6   9
ATOM      9  C   UNL     1      44.439   3.176   9.363  0.00  0.00    +0.000 C 
BRANCH   9  10
ATOM     10  C   UNL     1      45.419   2.683   8.324  0.00  0.00    +0.000 A 
ATOM     11  C   UNL     1      45.973   1.398   8.422  0.00  0.00    +0.000 A 
ATOM     12  C   UNL     1      46.938   0.970   7.509  0.00  0.00    +0.000 A 
ATOM     13  C   UNL     1      47.352   1.819   6.484  0.00  0.00    +0.000 A 
ATOM     14  C   UNL     1      46.792   3.089   6.362  0.00  0.00    +0.000 A 
ATOM     15  C   UNL     1      45.830   3.520   7.278  0.00  0.00    +0.000 A 
ENDBRANCH   9  10
ENDBRANCH   6   9
ENDBRANCH   2   3
BRANCH   2  16
ATOM     16  N   UNL     1      47.004   7.145  13.951  0.00  0.00    +0.000 N 
ATOM     17  C   UNL     1      48.265   6.631  14.128  0.00  0.00    +0.000 C 
ATOM     18  O   UNL     1      49.073   6.533  13.211  0.00  0.00    +0.000 OA
ATOM     19  H   UNL     1      46.294   6.887  14.635  0.00  0.00    +0.000 HD
BRANCH  17  20
ATOM     20  C   UNL     1      48.641   6.251  15.493  0.00  0.00    +0.000 A 
ATOM     21  C   UNL     1      49.564   7.026  16.183  0.00  0.00    +0.000 A 
ATOM     22  S   UNL     1      49.932   6.429  17.736  0.00  0.00    +0.000 S 
ATOM     23  C   UNL     1      48.893   5.098  17.526  0.00  0.00    +0.000 A 
ATOM     24  N   UNL     1      48.788   4.137  18.483  0.00  0.00    +0.000 NA
ATOM     25  C   UNL     1      47.989   3.170  18.179  0.00  0.00    +0.000 A 
ATOM     26  N   UNL     1      47.269   3.086  17.014  0.00  0.00    +0.000 N 
ATOM     27  C   UNL     1      47.303   4.059  16.042  0.00  0.00    +0.000 A 
ATOM     28  O   UNL     1      46.583   4.009  15.053  0.00  0.00    +0.000 OA
ATOM     29  C   UNL     1      48.234   5.138  16.311  0.00  0.00    +0.000 A 
ATOM     30  H   UNL     1      46.637   2.316  16.853  0.00  0.00    +0.000 HD
ENDBRANCH  17  20
ENDBRANCH   2  16
TORSDOF 5
ENDMDL
MODEL 2
REMARK VINA RESULT:    -8.432      1.748      2.404
REMARK INTER + INTRA:         -11.693
REMARK INTER:                 -10.638
REMARK INTRA:                  -1.055
REMARK UNBOUND:                -0.797
REMARK  Name = 
REMARK  6 active torsions:
REMARK  status: ('A' for Active; 'I' for Inactive)
REMARK    1  A    between atoms: C_1  and  C_2
REMARK    2  A    between atoms: C_2  and  N_3
REMARK    3  A    between atoms: C_2  and  C_16
REMARK    4  A    between atoms: C_4  and  C_6
REMARK    5  A    between atoms: C_19  and  C_20
REMARK    6  A    between atoms: C_20  and  C_21
REMARK                            x       y       z     vdW  Elec       q    Type
REMARK                         _______ _______ _______ _____ _____    ______ ____
ROOT
ATOM      1  C   UNL     1      46.559   8.232  13.348  0.00  0.00    +0.000 C 
ATOM      2  C   UNL     1      47.207   6.844  13.273  0.00  0.00    +0.000 C 
ENDROOT
BRANCH   2   3
ATOM      3  C   UNL     1      46.419   6.000  12.279  0.00  0.00    +0.000 A 
ATOM      4  C   UNL     1      45.982   4.718  12.651  0.00  0.00    +0.000 A 
ATOM      5  C   UNL     1      45.328   3.893  11.730  0.00  0.00    +0.000 A 
ATOM      6  C   UNL     1      45.093   4.326  10.420  0.00  0.00    +0.000 A 
ATOM      7  C   UNL     1      45.522   5.607  10.049  0.00  0.00    +0.000 A 
ATOM      8  C   UNL     1      46.189   6.426  10.962  0.00  0.00    +0.000 A 
BRANCH   6   9
ATOM      9  C   UNL     1      44.372   3.443   9.425  0.00  0.00    +0.000 C 
BRANCH   9  10
ATOM     10  C   UNL     1      45.298   2.792   8.424  0.00  0.00    +0.000 A 
ATOM     11  C   UNL     1      45.760   1.484   8.628  0.00  0.00    +0.000 A 
ATOM     12  C   UNL     1      46.678   0.910   7.747  0.00  0.00    +0.000 A 
ATOM     13  C   UNL     1      47.137   1.635   6.649  0.00  0.00    +0.000 A 
ATOM     14  C   UNL     1      46.668   2.928   6.423  0.00  0.00    +0.000 A 
ATOM     15  C   UNL     1      45.754   3.505   7.306  0.00  0.00    +0.000 A 
ENDBRANCH   9  10
ENDBRANCH   6   9
ENDBRANCH   2   3
BRANCH   2  16
ATOM     16  N   UNL     1      47.297   6.194  14.575  0.00  0.00    +0.000 N 
ATOM     17  C   UNL     1      48.469   6.155  15.290  0.00  0.00    +0.000 C 
ATOM     18  O   UNL     1      49.499   6.694  14.900  0.00  0.00    +0.000 OA
ATOM     19  H   UNL     1      46.608   5.468  14.767  0.00  0.00    +0.000 HD
BRANCH  17  20
ATOM     20  C   UNL     1      48.429   5.485  16.593  0.00  0.00    +0.000 A 
ATOM     21  C   UNL     1      48.318   4.101  16.642  0.00  0.00    +0.000 A 
ATOM     22  S   UNL     1      48.237   3.477  18.225  0.00  0.00    +0.000 S 
ATOM     23  C   UNL     1      48.317   5.038  18.899  0.00  0.00    +0.000 A 
ATOM     24  N   UNL     1      48.229   5.222  20.244  0.00  0.00    +0.000 NA
ATOM     25  C   UNL     1      48.272   6.458  20.613  0.00  0.00    +0.000 A 
ATOM     26  N   UNL     1      48.416   7.525  19.763  0.00  0.00    +0.000 N 
ATOM     27  C   UNL     1      48.560   7.384  18.402  0.00  0.00    +0.000 A 
ATOM     28  O   UNL     1      48.780   8.342  17.673  0.00  0.00    +0.000 OA
ATOM     29  C   UNL     1      48.458   6.016  17.932  0.00  0.00    +0.000 A 
ATOM     30  H   UNL     1      48.473   8.467  20.123  0.00  0.00    +0.000 HD
ENDBRANCH  17  20
ENDBRANCH   2  16
TORSDOF 5
ENDMDL
MODEL 3
REMARK VINA RESULT:    -8.301      2.727      4.107
REMARK INTER + INTRA:         -11.524
REMARK INTER:                 -10.243
REMARK INTRA:                  -1.281
REMARK UNBOUND:                -0.797
REMARK  Name = 
REMARK  6 active torsions:
REMARK  status: ('A' for Active; 'I' for Inactive)
REMARK    1  A    between atoms: C_1  and  C_2
REMARK    2  A    between atoms: C_2  and  N_3
REMARK    3  A    between atoms: C_2  and  C_16
REMARK    4  A    between atoms: C_4  and  C_6
REMARK    5  A    between atoms: C_19  and  C_20
REMARK    6  A    between atoms: C_20  and  C_21
REMARK                            x       y       z     vdW  Elec       q    Type
REMARK                         _______ _______ _______ _____ _____    ______ ____
ROOT
ATOM      1  C   UNL     1      46.868   4.657  14.712  0.00  0.00    +0.000 C 
ATOM      2  C   UNL     1      46.511   5.756  13.705  0.00  0.00    +0.000 C 
ENDROOT
BRANCH   2   3
ATOM      3  C   UNL     1      45.908   5.095  12.470  0.00  0.00    +0.000 A 
ATOM      4  C   UNL     1      45.439   3.773  12.549  0.00  0.00    +0.000 A 
ATOM      5  C   UNL     1      44.957   3.118  11.412  0.00  0.00    +0.000 A 
ATOM      6  C   UNL     1      44.928   3.765  10.170  0.00  0.00    +0.000 A 
ATOM      7  C   UNL     1      45.389   5.086  10.090  0.00  0.00    +0.000 A 
ATOM      8  C   UNL     1      45.885   5.735  11.222  0.00  0.00    +0.000 A 
BRANCH   6   9
ATOM      9  C   UNL     1      44.393   3.066   8.940  0.00  0.00    +0.000 C 
BRANCH   9  10
ATOM     10  C   UNL     1      45.479   2.612   7.993  0.00  0.00    +0.000 A 
ATOM     11  C   UNL     1      46.133   1.388   8.195  0.00  0.00    +0.000 A 
ATOM     12  C   UNL     1      47.190   1.004   7.368  0.00  0.00    +0.000 A 
ATOM     13  C   UNL     1      47.597   1.834   6.326  0.00  0.00    +0.000 A 
ATOM     14  C   UNL     1      46.939   3.042   6.100  0.00  0.00    +0.000 A 
ATOM     15  C   UNL     1      45.886   3.430   6.929  0.00  0.00    +0.000 A 
ENDBRANCH   9  10
ENDBRANCH   6   9
ENDBRANCH   2   3
BRANCH   2  16
ATOM     16  N   UNL     1      47.651   6.596  13.359  0.00  0.00    +0.000 N 
ATOM     17  C   UNL     1      47.554   7.964  13.299  0.00  0.00    +0.000 C 
ATOM     18  O   UNL     1      46.520   8.566  13.566  0.00  0.00    +0.000 OA
ATOM     19  H   UNL     1      48.390   6.156  12.814  0.00  0.00    +0.000 HD
BRANCH  17  20
ATOM     20  C   UNL     1      48.774   8.701  12.955  0.00  0.00    +0.000 A 
ATOM     21  C   UNL     1      48.713   9.709  12.002  0.00  0.00    +0.000 A 
ATOM     22  S   UNL     1      50.218  10.438  11.679  0.00  0.00    +0.000 S 
ATOM     23  C   UNL     1      51.010   9.410  12.780  0.00  0.00    +0.000 A 
ATOM     24  N   UNL     1      52.359   9.466  12.941  0.00  0.00    +0.000 NA
ATOM     25  C   UNL     1      52.828   8.609  13.784  0.00  0.00    +0.000 A 
ATOM     26  N   UNL     1      52.070   7.714  14.496  0.00  0.00    +0.000 N 
ATOM     27  C   UNL     1      50.699   7.656  14.405  0.00  0.00    +0.000 A 
ATOM     28  O   UNL     1      50.034   6.915  15.117  0.00  0.00    +0.000 OA
ATOM     29  C   UNL     1      50.129   8.560  13.425  0.00  0.00    +0.000 A 
ATOM     30  H   UNL     1      52.500   7.091  15.164  0.00  0.00    +0.000 HD
ENDBRANCH  17  20
ENDBRANCH   2  16
TORSDOF 5
ENDMDL
MODEL 4
REMARK VINA RESULT:    -7.947      2.049      2.682
REMARK INTER + INTRA:         -11.067
REMARK INTER:                 -10.095
REMARK INTRA:                  -0.972
REMARK UNBOUND:                -0.797
REMARK  Name = 
REMARK  6 active torsions:
REMARK  status: ('A' for Active; 'I' for Inactive)
REMARK    1  A    between atoms: C_1  and  C_2
REMARK    2  A    between atoms: C_2  and  N_3
REMARK    3  A    between atoms: C_2  and  C_16
REMARK    4  A    between atoms: C_4  and  C_6
REMARK    5  A    between atoms: C_19  and  C_20
REMARK    6  A    between atoms: C_20  and  C_21
REMARK                            x       y       z     vdW  Elec       q    Type
REMARK                         _______ _______ _______ _____ _____    ______ ____
ROOT
ATOM      1  C   UNL     1      49.113   8.401  13.455  0.00  0.00    +0.000 C 
ATOM      2  C   UNL     1      48.756   7.045  14.075  0.00  0.00    +0.000 C 
ENDROOT
BRANCH   2   3
ATOM      3  C   UNL     1      47.677   6.395  13.216  0.00  0.00    +0.000 A 
ATOM      4  C   UNL     1      47.300   6.996  12.004  0.00  0.00    +0.000 A 
ATOM      5  C   UNL     1      46.259   6.464  11.237  0.00  0.00    +0.000 A 
ATOM      6  C   UNL     1      45.570   5.320  11.660  0.00  0.00    +0.000 A 
ATOM      7  C   UNL     1      45.949   4.715  12.866  0.00  0.00    +0.000 A 
ATOM      8  C   UNL     1      46.978   5.254  13.639  0.00  0.00    +0.000 A 
BRANCH   6   9
ATOM      9  C   UNL     1      44.452   4.731  10.827  0.00  0.00    +0.000 C 
BRANCH   9  10
ATOM     10  C   UNL     1      44.947   3.875   9.685  0.00  0.00    +0.000 A 
ATOM     11  C   UNL     1      44.880   2.476   9.763  0.00  0.00    +0.000 A 
ATOM     12  C   UNL     1      45.409   1.683   8.744  0.00  0.00    +0.000 A 
ATOM     13  C   UNL     1      46.003   2.279   7.633  0.00  0.00    +0.000 A 
ATOM     14  C   UNL     1      46.055   3.668   7.533  0.00  0.00    +0.000 A 
ATOM     15  C   UNL     1      45.531   4.463   8.554  0.00  0.00    +0.000 A 
ENDBRANCH   9  10
ENDBRANCH   6   9
ENDBRANCH   2   3
BRANCH   2  16
ATOM     16  N   UNL     1      48.336   7.156  15.467  0.00  0.00    +0.000 N 
ATOM     17  C   UNL     1      49.106   6.679  16.499  0.00  0.00    +0.000 C 
ATOM     18  O   UNL     1      50.206   6.166  16.321  0.00  0.00    +0.000 OA
ATOM     19  H   UNL     1      47.335   7.243  15.633  0.00  0.00    +0.000 HD
BRANCH  17  20
ATOM     20  C   UNL     1      48.584   6.862  17.857  0.00  0.00    +0.000 A 
ATOM     21  C   UNL     1      48.136   8.117  18.248  0.00  0.00    +0.000 A 
ATOM     22  S   UNL     1      47.604   8.180  19.865  0.00  0.00    +0.000 S 
ATOM     23  C   UNL     1      47.982   6.538  20.107  0.00  0.00    +0.000 A 
ATOM     24  N   UNL     1      47.823   5.958  21.327  0.00  0.00    +0.000 NA
ATOM     25  C   UNL     1      48.179   4.718  21.374  0.00  0.00    +0.000 A 
ATOM     26  N   UNL     1      48.658   4.000  20.308  0.00  0.00    +0.000 N 
ATOM     27  C   UNL     1      48.786   4.529  19.045  0.00  0.00    +0.000 A 
ATOM     28  O   UNL     1      49.128   3.845  18.089  0.00  0.00    +0.000 OA
ATOM     29  C   UNL     1      48.456   5.938  18.954  0.00  0.00    +0.000 A 
ATOM     30  H   UNL     1      48.888   3.022  20.408  0.00  0.00    +0.000 HD
ENDBRANCH  17  20
ENDBRANCH   2  16
TORSDOF 5
ENDMDL
MODEL 5
REMARK VINA RESULT:    -7.887      2.379      3.235
REMARK INTER + INTRA:         -10.989
REMARK INTER:                  -9.634
REMARK INTRA:                  -1.355
REMARK UNBOUND:                -0.797
REMARK  Name = 
REMARK  6 active torsions:
REMARK  status: ('A' for Active; 'I' for Inactive)
REMARK    1  A    between atoms: C_1  and  C_2
REMARK    2  A    between atoms: C_2  and  N_3
REMARK    3  A    between atoms: C_2  and  C_16
REMARK    4  A    between atoms: C_4  and  C_6
REMARK    5  A    between atoms: C_19  and  C_20
REMARK    6  A    between atoms: C_20  and  C_21
REMARK                            x       y       z     vdW  Elec       q    Type
REMARK                         _______ _______ _______ _____ _____    ______ ____
ROOT
ATOM      1  C   UNL     1      48.458   8.699  14.065  0.00  0.00    +0.000 C 
ATOM      2  C   UNL     1      48.435   7.179  14.262  0.00  0.00    +0.000 C 
ENDROOT
BRANCH   2   3
ATOM      3  C   UNL     1      47.341   6.598  13.373  0.00  0.00    +0.000 A 
ATOM      4  C   UNL     1      46.902   5.280  13.586  0.00  0.00    +0.000 A 
ATOM      5  C   UNL     1      45.958   4.697  12.734  0.00  0.00    +0.000 A 
ATOM      6  C   UNL     1      45.428   5.414  11.653  0.00  0.00    +0.000 A 
ATOM      7  C   UNL     1      45.860   6.730  11.444  0.00  0.00    +0.000 A 
ATOM      8  C   UNL     1      46.814   7.307  12.284  0.00  0.00    +0.000 A 
BRANCH   6   9
ATOM      9  C   UNL     1      44.395   4.793  10.738  0.00  0.00    +0.000 C 
BRANCH   9  10
ATOM     10  C   UNL     1      45.001   3.958   9.635  0.00  0.00    +0.000 A 
ATOM     11  C   UNL     1      44.934   2.558   9.682  0.00  0.00    +0.000 A 
ATOM     12  C   UNL     1      45.562   1.784   8.705  0.00  0.00    +0.000 A 
ATOM     13  C   UNL     1      46.256   2.402   7.666  0.00  0.00    +0.000 A 
ATOM     14  C   UNL     1      46.310   3.792   7.595  0.00  0.00    +0.000 A 
ATOM     15  C   UNL     1      45.687   4.568   8.574  0.00  0.00    +0.000 A 
ENDBRANCH   9  10
ENDBRANCH   6   9
ENDBRANCH   2   3
BRANCH   2  16
ATOM     16  N   UNL     1      48.253   6.794  15.656  0.00  0.00    +0.000 N 
ATOM     17  C   UNL     1      49.289   6.316  16.420  0.00  0.00    +0.000 C 
ATOM     18  O   UNL     1      50.434   6.218  15.993  0.00  0.00    +0.000 OA
ATOM     19  H   UNL     1      47.309   6.534  15.935  0.00  0.00    +0.000 HD
BRANCH  17  20
ATOM     20  C   UNL     1      48.985   5.976  17.813  0.00  0.00    +0.000 A 
ATOM     21  C   UNL     1      49.197   4.678  18.258  0.00  0.00    +0.000 A 
ATOM     22  S   UNL     1      48.752   4.430  19.883  0.00  0.00    +0.000 S 
ATOM     23  C   UNL     1      48.231   6.043  20.040  0.00  0.00    +0.000 A 
ATOM     24  N   UNL     1      47.666   6.484  21.195  0.00  0.00    +0.000 NA
ATOM     25  C   UNL     1      47.288   7.718  21.163  0.00  0.00    +0.000 A 
ATOM     26  N   UNL     1      47.445   8.557  20.089  0.00  0.00    +0.000 N 
ATOM     27  C   UNL     1      48.058   8.170  18.920  0.00  0.00    +0.000 A 
ATOM     28  O   UNL     1      48.269   8.960  18.009  0.00  0.00    +0.000 OA
ATOM     29  C   UNL     1      48.445   6.773  18.885  0.00  0.00    +0.000 A 
ATOM     30  H   UNL     1      47.155   9.523  20.142  0.00  0.00    +0.000 HD
ENDBRANCH  17  20
ENDBRANCH   2  16
TORSDOF 5
ENDMDL
MODEL 6
REMARK VINA RESULT:    -7.751      3.381      7.963
REMARK INTER + INTRA:         -10.814
REMARK INTER:                  -9.471
REMARK INTRA:                  -1.343
REMARK UNBOUND:                -0.797
REMARK  Name = 
REMARK  6 active torsions:
REMARK  status: ('A' for Active; 'I' for Inactive)
REMARK    1  A    between atoms: C_1  and  C_2
REMARK    2  A    between atoms: C_2  and  N_3
REMARK    3  A    between atoms: C_2  and  C_16
REMARK    4  A    between atoms: C_4  and  C_6
REMARK    5  A    between atoms: C_19  and  C_20
REMARK    6  A    between atoms: C_20  and  C_21
REMARK                            x       y       z     vdW  Elec       q    Type
REMARK                         _______ _______ _______ _____ _____    ______ ____
ROOT
ATOM      1  C   UNL     1      49.511   7.899  12.623  0.00  0.00    +0.000 C 
ATOM      2  C   UNL     1      48.292   7.345  13.370  0.00  0.00    +0.000 C 
ENDROOT
BRANCH   2   3
ATOM      3  C   UNL     1      48.770   6.749  14.690  0.00  0.00    +0.000 A 
ATOM      4  C   UNL     1      50.042   7.084  15.181  0.00  0.00    +0.000 A 
ATOM      5  C   UNL     1      50.536   6.489  16.347  0.00  0.00    +0.000 A 
ATOM      6  C   UNL     1      49.773   5.548  17.049  0.00  0.00    +0.000 A 
ATOM      7  C   UNL     1      48.501   5.217  16.564  0.00  0.00    +0.000 A 
ATOM      8  C   UNL     1      48.014   5.799  15.392  0.00  0.00    +0.000 A 
BRANCH   6   9
ATOM      9  C   UNL     1      50.296   4.912  18.319  0.00  0.00    +0.000 C 
BRANCH   9  10
ATOM     10  C   UNL     1      51.162   3.700  18.066  0.00  0.00    +0.000 A 
ATOM     11  C   UNL     1      50.614   2.539  17.502  0.00  0.00    +0.000 A 
ATOM     12  C   UNL     1      51.393   1.393  17.341  0.00  0.00    +0.000 A 
ATOM     13  C   UNL     1      52.730   1.397  17.735  0.00  0.00    +0.000 A 
ATOM     14  C   UNL     1      53.293   2.552  18.275  0.00  0.00    +0.000 A 
ATOM     15  C   UNL     1      52.513   3.698  18.441  0.00  0.00    +0.000 A 
ENDBRANCH   9  10
ENDBRANCH   6   9
ENDBRANCH   2   3
BRANCH   2  16
ATOM     16  N   UNL     1      47.543   6.372  12.584  0.00  0.00    +0.000 N 
ATOM     17  C   UNL     1      46.445   6.728  11.840  0.00  0.00    +0.000 C 
ATOM     18  O   UNL     1      46.048   7.885  11.761  0.00  0.00    +0.000 OA
ATOM     19  H   UNL     1      47.611   5.400  12.881  0.00  0.00    +0.000 HD
BRANCH  17  20
ATOM     20  C   UNL     1      45.785   5.662  11.080  0.00  0.00    +0.000 A 
ATOM     21  C   UNL     1      45.844   5.682   9.693  0.00  0.00    +0.000 A 
ATOM     22  S   UNL     1      44.991   4.406   8.954  0.00  0.00    +0.000 S 
ATOM     23  C   UNL     1      44.487   3.801  10.463  0.00  0.00    +0.000 A 
ATOM     24  N   UNL     1      43.655   2.728  10.542  0.00  0.00    +0.000 NA
ATOM     25  C   UNL     1      43.329   2.398  11.747  0.00  0.00    +0.000 A 
ATOM     26  N   UNL     1      43.776   3.029  12.880  0.00  0.00    +0.000 N 
ATOM     27  C   UNL     1      44.659   4.083  12.850  0.00  0.00    +0.000 A 
ATOM     28  O   UNL     1      45.117   4.571  13.875  0.00  0.00    +0.000 OA
ATOM     29  C   UNL     1      45.008   4.531  11.516  0.00  0.00    +0.000 A 
ATOM     30  H   UNL     1      43.506   2.698  13.795  0.00  0.00    +0.000 HD
ENDBRANCH  17  20
ENDBRANCH   2  16
TORSDOF 5
ENDMDL
MODEL 7
REMARK VINA RESULT:    -7.647      3.958      9.634
REMARK INTER + INTRA:         -10.679
REMARK INTER:                  -9.258
REMARK INTRA:                  -1.421
REMARK UNBOUND:                -0.797
REMARK  Name = 
REMARK  6 active torsions:
REMARK  status: ('A' for Active; 'I' for Inactive)
REMARK    1  A    between atoms: C_1  and  C_2
REMARK    2  A    between atoms: C_2  and  N_3
REMARK    3  A    between atoms: C_2  and  C_16
REMARK    4  A    between atoms: C_4  and  C_6
REMARK    5  A    between atoms: C_19  and  C_20
REMARK    6  A    between atoms: C_20  and  C_21
REMARK                            x       y       z     vdW  Elec       q    Type
REMARK                         _______ _______ _______ _____ _____    ______ ____
ROOT
ATOM      1  C   UNL     1      47.717   3.133  16.645  0.00  0.00    +0.000 C 
ATOM      2  C   UNL     1      48.077   4.554  16.192  0.00  0.00    +0.000 C 
ENDROOT
BRANCH   2   3
ATOM      3  C   UNL     1      48.227   5.427  17.433  0.00  0.00    +0.000 A 
ATOM      4  C   UNL     1      47.283   5.331  18.468  0.00  0.00    +0.000 A 
ATOM      5  C   UNL     1      47.353   6.178  19.578  0.00  0.00    +0.000 A 
ATOM      6  C   UNL     1      48.367   7.138  19.684  0.00  0.00    +0.000 A 
ATOM      7  C   UNL     1      49.314   7.231  18.656  0.00  0.00    +0.000 A 
ATOM      8  C   UNL     1      49.235   6.397  17.540  0.00  0.00    +0.000 A 
BRANCH   6   9
ATOM      9  C   UNL     1      48.456   8.047  20.891  0.00  0.00    +0.000 C 
BRANCH   9  10
ATOM     10  C   UNL     1      47.348   9.072  20.949  0.00  0.00    +0.000 A 
ATOM     11  C   UNL     1      47.092   9.905  19.851  0.00  0.00    +0.000 A 
ATOM     12  C   UNL     1      46.123  10.906  19.930  0.00  0.00    +0.000 A 
ATOM     13  C   UNL     1      45.394  11.079  21.106  0.00  0.00    +0.000 A 
ATOM     14  C   UNL     1      45.623  10.242  22.196  0.00  0.00    +0.000 A 
ATOM     15  C   UNL     1      46.596   9.244  22.119  0.00  0.00    +0.000 A 
ENDBRANCH   9  10
ENDBRANCH   6   9
ENDBRANCH   2   3
BRANCH   2  16
ATOM     16  N   UNL     1      47.104   5.111  15.260  0.00  0.00    +0.000 N 
ATOM     17  C   UNL     1      47.487   5.780  14.123  0.00  0.00    +0.000 C 
ATOM     18  O   UNL     1      48.662   5.917  13.802  0.00  0.00    +0.000 OA
ATOM     19  H   UNL     1      46.183   5.324  15.639  0.00  0.00    +0.000 HD
BRANCH  17  20
ATOM     20  C   UNL     1      46.416   6.281  13.257  0.00  0.00    +0.000 A 
ATOM     21  C   UNL     1      46.399   7.626  12.908  0.00  0.00    +0.000 A 
ATOM     22  S   UNL     1      45.069   8.063  11.937  0.00  0.00    +0.000 S 
ATOM     23  C   UNL     1      44.454   6.477  11.975  0.00  0.00    +0.000 A 
ATOM     24  N   UNL     1      43.271   6.173  11.377  0.00  0.00    +0.000 NA
ATOM     25  C   UNL     1      42.910   4.940  11.512  0.00  0.00    +0.000 A 
ATOM     26  N   UNL     1      43.635   3.980  12.171  0.00  0.00    +0.000 N 
ATOM     27  C   UNL     1      44.860   4.229  12.745  0.00  0.00    +0.000 A 
ATOM     28  O   UNL     1      45.531   3.337  13.247  0.00  0.00    +0.000 OA
ATOM     29  C   UNL     1      45.281   5.615  12.673  0.00  0.00    +0.000 A 
ATOM     30  H   UNL     1      43.309   3.025  12.212  0.00  0.00    +0.000 HD
ENDBRANCH  17  20
ENDBRANCH   2  16
TORSDOF 5
ENDMDL
MODEL 8
REMARK VINA RESULT:    -7.112      3.412      5.426
REMARK INTER + INTRA:          -9.988
REMARK INTER:                  -8.525
REMARK INTRA:                  -1.463
REMARK UNBOUND:                -0.797
REMARK  Name = 
REMARK  6 active torsions:
REMARK  status: ('A' for Active; 'I' for Inactive)
REMARK    1  A    between atoms: C_1  and  C_2
REMARK    2  A    between atoms: C_2  and  N_3
REMARK    3  A    between atoms: C_2  and  C_16
REMARK    4  A    between atoms: C_4  and  C_6
REMARK    5  A    between atoms: C_19  and  C_20
REMARK    6  A    between atoms: C_20  and  C_21
REMARK                            x       y       z     vdW  Elec       q    Type
REMARK                         _______ _______ _______ _____ _____    ______ ____
ROOT
ATOM      1  C   UNL     1      48.104   6.686  18.468  0.00  0.00    +0.000 C 
ATOM      2  C   UNL     1      49.098   6.233  17.393  0.00  0.00    +0.000 C 
ENDROOT
BRANCH   2   3
ATOM      3  C   UNL     1      48.311   5.608  16.246  0.00  0.00    +0.000 A 
ATOM      4  C   UNL     1      47.758   4.326  16.401  0.00  0.00    +0.000 A 
ATOM      5  C   UNL     1      47.102   3.699  15.337  0.00  0.00    +0.000 A 
ATOM      6  C   UNL     1      46.979   4.335  14.096  0.00  0.00    +0.000 A 
ATOM      7  C   UNL     1      47.524   5.617  13.941  0.00  0.00    +0.000 A 
ATOM      8  C   UNL     1      48.193   6.237  14.997  0.00  0.00    +0.000 A 
BRANCH   6   9
ATOM      9  C   UNL     1      46.257   3.668  12.946  0.00  0.00    +0.000 C 
BRANCH   9  10
ATOM     10  C   UNL     1      45.060   4.451  12.458  0.00  0.00    +0.000 A 
ATOM     11  C   UNL     1      43.875   4.480  13.207  0.00  0.00    +0.000 A 
ATOM     12  C   UNL     1      42.744   5.136  12.719  0.00  0.00    +0.000 A 
ATOM     13  C   UNL     1      42.789   5.779  11.483  0.00  0.00    +0.000 A 
ATOM     14  C   UNL     1      43.968   5.777  10.741  0.00  0.00    +0.000 A 
ATOM     15  C   UNL     1      45.099   5.116  11.225  0.00  0.00    +0.000 A 
ENDBRANCH   9  10
ENDBRANCH   6   9
ENDBRANCH   2   3
BRANCH   2  16
ATOM     16  N   UNL     1      50.108   5.317  17.909  0.00  0.00    +0.000 N 
ATOM     17  C   UNL     1      51.384   5.281  17.404  0.00  0.00    +0.000 C 
ATOM     18  O   UNL     1      51.765   6.037  16.517  0.00  0.00    +0.000 OA
ATOM     19  H   UNL     1      49.764   4.476  18.370  0.00  0.00    +0.000 HD
BRANCH  17  20
ATOM     20  C   UNL     1      52.314   4.328  18.016  0.00  0.00    +0.000 A 
ATOM     21  C   UNL     1      53.389   4.806  18.753  0.00  0.00    +0.000 A 
ATOM     22  S   UNL     1      54.403   3.579  19.360  0.00  0.00    +0.000 S 
ATOM     23  C   UNL     1      53.455   2.366  18.633  0.00  0.00    +0.000 A 
ATOM     24  N   UNL     1      53.816   1.057  18.713  0.00  0.00    +0.000 NA
ATOM     25  C   UNL     1      53.024   0.251  18.089  0.00  0.00    +0.000 A 
ATOM     26  N   UNL     1      51.894   0.631  17.411  0.00  0.00    +0.000 N 
ATOM     27  C   UNL     1      51.462   1.935  17.348  0.00  0.00    +0.000 A 
ATOM     28  O   UNL     1      50.403   2.240  16.817  0.00  0.00    +0.000 OA
ATOM     29  C   UNL     1      52.352   2.888  17.983  0.00  0.00    +0.000 A 
ATOM     30  H   UNL     1      51.301  -0.058  16.971  0.00  0.00    +0.000 HD
ENDBRANCH  17  20
ENDBRANCH   2  16
TORSDOF 5
ENDMDL
MODEL 9
REMARK VINA RESULT:    -6.945      2.296      3.208
REMARK INTER + INTRA:          -9.772
REMARK INTER:                  -8.843
REMARK INTRA:                  -0.929
REMARK UNBOUND:                -0.797
REMARK  Name = 
REMARK  6 active torsions:
REMARK  status: ('A' for Active; 'I' for Inactive)
REMARK    1  A    between atoms: C_1  and  C_2
REMARK    2  A    between atoms: C_2  and  N_3
REMARK    3  A    between atoms: C_2  and  C_16
REMARK    4  A    between atoms: C_4  and  C_6
REMARK    5  A    between atoms: C_19  and  C_20
REMARK    6  A    between atoms: C_20  and  C_21
REMARK                            x       y       z     vdW  Elec       q    Type
REMARK                         _______ _______ _______ _____ _____    ______ ____
ROOT
ATOM      1  C   UNL     1      44.925   9.519  12.528  0.00  0.00    +0.000 C 
ATOM      2  C   UNL     1      46.074   8.510  12.422  0.00  0.00    +0.000 C 
ENDROOT
BRANCH   2   3
ATOM      3  C   UNL     1      45.530   7.228  11.802  0.00  0.00    +0.000 A 
ATOM      4  C   UNL     1      46.423   6.246  11.342  0.00  0.00    +0.000 A 
ATOM      5  C   UNL     1      45.951   5.099  10.697  0.00  0.00    +0.000 A 
ATOM      6  C   UNL     1      44.579   4.903  10.495  0.00  0.00    +0.000 A 
ATOM      7  C   UNL     1      43.686   5.878  10.959  0.00  0.00    +0.000 A 
ATOM      8  C   UNL     1      44.157   7.031  11.589  0.00  0.00    +0.000 A 
BRANCH   6   9
ATOM      9  C   UNL     1      44.062   3.656   9.811  0.00  0.00    +0.000 C 
BRANCH   9  10
ATOM     10  C   UNL     1      45.019   3.101   8.782  0.00  0.00    +0.000 A 
ATOM     11  C   UNL     1      45.462   1.773   8.866  0.00  0.00    +0.000 A 
ATOM     12  C   UNL     1      46.406   1.282   7.964  0.00  0.00    +0.000 A 
ATOM     13  C   UNL     1      46.911   2.110   6.963  0.00  0.00    +0.000 A 
ATOM     14  C   UNL     1      46.461   3.425   6.854  0.00  0.00    +0.000 A 
ATOM     15  C   UNL     1      45.520   3.919   7.760  0.00  0.00    +0.000 A 
ENDBRANCH   9  10
ENDBRANCH   6   9
ENDBRANCH   2   3
BRANCH   2  16
ATOM     16  N   UNL     1      46.718   8.252  13.705  0.00  0.00    +0.000 N 
ATOM     17  C   UNL     1      48.082   8.165  13.830  0.00  0.00    +0.000 C 
ATOM     18  O   UNL     1      48.844   8.334  12.884  0.00  0.00    +0.000 OA
ATOM     19  H   UNL     1      46.153   7.778  14.408  0.00  0.00    +0.000 HD
BRANCH  17  20
ATOM     20  C   UNL     1      48.611   7.917  15.174  0.00  0.00    +0.000 A 
ATOM     21  C   UNL     1      48.722   6.610  15.630  0.00  0.00    +0.000 A 
ATOM     22  S   UNL     1      49.307   6.489  17.225  0.00  0.00    +0.000 S 
ATOM     23  C   UNL     1      49.403   8.182  17.372  0.00  0.00    +0.000 A 
ATOM     24  N   UNL     1      49.782   8.760  18.544  0.00  0.00    +0.000 NA
ATOM     25  C   UNL     1      49.779  10.051  18.523  0.00  0.00    +0.000 A 
ATOM     26  N   UNL     1      49.454  10.816  17.432  0.00  0.00    +0.000 N 
ATOM     27  C   UNL     1      49.116  10.275  16.213  0.00  0.00    +0.000 A 
ATOM     28  O   UNL     1      48.919  10.975  15.228  0.00  0.00    +0.000 OA
ATOM     29  C   UNL     1      49.046   8.827  16.203  0.00  0.00    +0.000 A 
ATOM     30  H   UNL     1      49.503  11.823  17.476  0.00  0.00    +0.000 HD
ENDBRANCH  17  20
ENDBRANCH   2  16
TORSDOF 5
ENDMDL
