MODEL 1
REMARK VINA RESULT:    -8.991      0.000      0.000
REMARK INTER + INTRA:         -13.811
REMARK INTER:                 -12.670
REMARK INTRA:                  -1.140
REMARK UNBOUND:                -1.140
REMARK  Name = 
REMARK  8 active torsions:
REMARK  status: ('A' for Active; 'I' for Inactive)
REMARK    1  A    between atoms: C_1  and  C_2
REMARK    2  A    between atoms: C_2  and  N_3
REMARK    3  A    between atoms: C_2  and  C_25
REMARK    4  A    between atoms: N_3  and  C_4
REMARK    5  A    between atoms: C_4  and  C_5
REMARK    6  A    between atoms: C_9  and  C_10
REMARK    7  A    between atoms: C_10  and  N_11
REMARK    8  A    between atoms: C_12  and  C_14
REMARK                            x       y       z     vdW  Elec       q    Type
REMARK                         _______ _______ _______ _____ _____    ______ ____
ROOT
ATOM      1  C   UNL     1      46.047   6.013  11.652  0.00  0.00    +0.000 A 
ATOM      2  C   UNL     1      47.143   6.869  11.605  0.00  0.00    +0.000 A 
ATOM      3  N   UNL     1      48.090   6.949  12.568  0.00  0.00    +0.000 NA
ATOM      4  C   UNL     1      47.939   6.139  13.638  0.00  0.00    +0.000 A 
ATOM      5  C   UNL     1      46.878   5.257  13.800  0.00  0.00    +0.000 A 
ATOM      6  C   UNL     1      45.928   5.190  12.776  0.00  0.00    +0.000 A 
ENDROOT
BRANCH   1   7
ATOM      7  C   UNL     1      45.065   5.937  10.511  0.00  0.00    +0.000 C 
BRANCH   7   8
ATOM      8  N   UNL     1      45.663   5.353   9.309  0.00  0.00    +0.000 NA
ATOM      9  H   UNL     1      45.662   6.053   8.567  0.00  0.00    +0.000 HD
BRANCH   8  11
ATOM     10  C   UNL     1      44.294   3.347   9.926  0.00  0.00    +0.000 C 
ATOM     11  C   UNL     1      44.943   4.171   8.807  0.00  0.00    +0.000 C 
BRANCH  11  12
ATOM     12  C   UNL     1      45.870   3.255   8.011  0.00  0.00    +0.000 A 
ATOM     13  C   UNL     1      46.625   3.781   6.948  0.00  0.00    +0.000 A 
ATOM     14  C   UNL     1      47.410   2.950   6.145  0.00  0.00    +0.000 A 
ATOM     15  C   UNL     1      47.460   1.580   6.397  0.00  0.00    +0.000 A 
ATOM     16  C   UNL     1      46.729   1.048   7.456  0.00  0.00    +0.000 A 
ATOM     17 CL   UNL     1      46.796  -0.644   7.770  0.00  0.00    +0.000 Cl
ATOM     18  C   UNL     1      45.934   1.872   8.254  0.00  0.00    +0.000 A 
ENDBRANCH  11  12
ENDBRANCH   8  11
ENDBRANCH   7   8
ENDBRANCH   1   7
BRANCH   5  19
ATOM     19  C   UNL     1      46.793   4.375  15.005  0.00  0.00    +0.000 C 
BRANCH  19  20
ATOM     20  N   UNL     1      48.045   4.339  15.716  0.00  0.00    +0.000 N 
ATOM     21  C   UNL     1      48.119   4.473  17.077  0.00  0.00    +0.000 C 
ATOM     22  O   UNL     1      47.122   4.637  17.776  0.00  0.00    +0.000 OA
ATOM     23  H   UNL     1      48.888   4.452  15.161  0.00  0.00    +0.000 HD
BRANCH  21  24
ATOM     24  C   UNL     1      49.456   4.335  17.668  0.00  0.00    +0.000 A 
ATOM     25  C   UNL     1      49.964   5.357  18.458  0.00  0.00    +0.000 A 
ATOM     26  S   UNL     1      51.505   5.018  19.104  0.00  0.00    +0.000 S 
ATOM     27  C   UNL     1      51.569   3.516  18.310  0.00  0.00    +0.000 A 
ATOM     28  N   UNL     1      52.658   2.711  18.422  0.00  0.00    +0.000 NA
ATOM     29  C   UNL     1      52.587   1.615  17.741  0.00  0.00    +0.000 A 
ATOM     30  N   UNL     1      51.514   1.243  16.967  0.00  0.00    +0.000 N 
ATOM     31  C   UNL     1      50.367   1.995  16.878  0.00  0.00    +0.000 A 
ATOM     32  O   UNL     1      49.386   1.581  16.269  0.00  0.00    +0.000 OA
ATOM     33  C   UNL     1      50.416   3.258  17.588  0.00  0.00    +0.000 A 
ATOM     34  H   UNL     1      51.512   0.360  16.482  0.00  0.00    +0.000 HD
ENDBRANCH  21  24
ENDBRANCH  19  20
ENDBRANCH   5  19
TORSDOF 7
ENDMDL
MODEL 2
REMARK VINA RESULT:    -8.836      2.229      3.061
REMARK INTER + INTRA:         -13.592
REMARK INTER:                 -12.054
REMARK INTRA:                  -1.538
REMARK UNBOUND:                -1.140
REMARK  Name = 
REMARK  8 active torsions:
REMARK  status: ('A' for Active; 'I' for Inactive)
REMARK    1  A    between atoms: C_1  and  C_2
REMARK    2  A    between atoms: C_2  and  N_3
REMARK    3  A    between atoms: C_2  and  C_25
REMARK    4  A    between atoms: N_3  and  C_4
REMARK    5  A    between atoms: C_4  and  C_5
REMARK    6  A    between atoms: C_9  and  C_10
REMARK    7  A    between atoms: C_10  and  N_11
REMARK    8  A    between atoms: C_12  and  C_14
REMARK                            x       y       z     vdW  Elec       q    Type
REMARK                         _______ _______ _______ _____ _____    ______ ____
ROOT
ATOM      1  C   UNL     1      44.724   6.821  11.706  0.00  0.00    +0.000 A 
ATOM      2  C   UNL     1      44.383   8.170  11.678  0.00  0.00    +0.000 A 
ATOM      3  N   UNL     1      45.270   9.184  11.810  0.00  0.00    +0.000 NA
ATOM      4  C   UNL     1      46.565   8.840  11.984  0.00  0.00    +0.000 A 
ATOM      5  C   UNL     1      47.017   7.528  12.045  0.00  0.00    +0.000 A 
ATOM      6  C   UNL     1      46.074   6.508  11.887  0.00  0.00    +0.000 A 
ENDROOT
BRANCH   1   7
ATOM      7  C   UNL     1      43.687   5.748  11.492  0.00  0.00    +0.000 C 
BRANCH   7   8
ATOM      8  N   UNL     1      43.772   5.161  10.154  0.00  0.00    +0.000 NA
ATOM      9  H   UNL     1      42.897   5.335   9.662  0.00  0.00    +0.000 HD
BRANCH   8  11
ATOM     10  C   UNL     1      44.410   3.173  11.539  0.00  0.00    +0.000 C 
ATOM     11  C   UNL     1      43.997   3.706  10.162  0.00  0.00    +0.000 C 
BRANCH  11  12
ATOM     12  C   UNL     1      45.068   3.306   9.150  0.00  0.00    +0.000 A 
ATOM     13  C   UNL     1      45.686   4.294   8.362  0.00  0.00    +0.000 A 
ATOM     14  C   UNL     1      46.602   3.947   7.365  0.00  0.00    +0.000 A 
ATOM     15  C   UNL     1      46.922   2.609   7.146  0.00  0.00    +0.000 A 
ATOM     16  C   UNL     1      46.329   1.622   7.928  0.00  0.00    +0.000 A 
ATOM     17 CL   UNL     1      46.729  -0.031   7.660  0.00  0.00    +0.000 Cl
ATOM     18  C   UNL     1      45.405   1.961   8.918  0.00  0.00    +0.000 A 
ENDBRANCH  11  12
ENDBRANCH   8  11
ENDBRANCH   7   8
ENDBRANCH   1   7
BRANCH   5  19
ATOM     19  C   UNL     1      48.474   7.229  12.217  0.00  0.00    +0.000 C 
BRANCH  19  20
ATOM     20  N   UNL     1      48.730   6.586  13.479  0.00  0.00    +0.000 N 
ATOM     21  C   UNL     1      48.851   7.289  14.648  0.00  0.00    +0.000 C 
ATOM     22  O   UNL     1      48.755   8.513  14.691  0.00  0.00    +0.000 OA
ATOM     23  H   UNL     1      49.054   5.625  13.444  0.00  0.00    +0.000 HD
BRANCH  21  24
ATOM     24  C   UNL     1      49.031   6.491  15.867  0.00  0.00    +0.000 A 
ATOM     25  C   UNL     1      49.983   6.874  16.803  0.00  0.00    +0.000 A 
ATOM     26  S   UNL     1      50.029   5.868  18.178  0.00  0.00    +0.000 S 
ATOM     27  C   UNL     1      48.816   4.857  17.549  0.00  0.00    +0.000 A 
ATOM     28  N   UNL     1      48.394   3.761  18.234  0.00  0.00    +0.000 NA
ATOM     29  C   UNL     1      47.492   3.064  17.626  0.00  0.00    +0.000 A 
ATOM     30  N   UNL     1      46.960   3.374  16.397  0.00  0.00    +0.000 N 
ATOM     31  C   UNL     1      47.310   4.505  15.701  0.00  0.00    +0.000 A 
ATOM     32  O   UNL     1      46.736   4.811  14.661  0.00  0.00    +0.000 OA
ATOM     33  C   UNL     1      48.355   5.297  16.321  0.00  0.00    +0.000 A 
ATOM     34  H   UNL     1      46.238   2.801  15.990  0.00  0.00    +0.000 HD
ENDBRANCH  21  24
ENDBRANCH  19  20
ENDBRANCH   5  19
TORSDOF 7
ENDMDL
MODEL 3
REMARK VINA RESULT:    -8.757      1.648      2.088
REMARK INTER + INTRA:         -13.482
REMARK INTER:                 -12.431
REMARK INTRA:                  -1.051
REMARK UNBOUND:                -1.140
REMARK  Name = 
REMARK  8 active torsions:
REMARK  status: ('A' for Active; 'I' for Inactive)
REMARK    1  A    between atoms: C_1  and  C_2
REMARK    2  A    between atoms: C_2  and  N_3
REMARK    3  A    between atoms: C_2  and  C_25
REMARK    4  A    between atoms: N_3  and  C_4
REMARK    5  A    between atoms: C_4  and  C_5
REMARK    6  A    between atoms: C_9  and  C_10
REMARK    7  A    between atoms: C_10  and  N_11
REMARK    8  A    between atoms: C_12  and  C_14
REMARK                            x       y       z     vdW  Elec       q    Type
REMARK                         _______ _______ _______ _____ _____    ______ ____
ROOT
ATOM      1  C   UNL     1      45.369   5.731  11.957  0.00  0.00    +0.000 A 
ATOM      2  C   UNL     1      46.094   6.919  11.936  0.00  0.00    +0.000 A 
ATOM      3  N   UNL     1      47.128   7.196  12.764  0.00  0.00    +0.000 NA
ATOM      4  C   UNL     1      47.458   6.245  13.664  0.00  0.00    +0.000 A 
ATOM      5  C   UNL     1      46.796   5.031  13.787  0.00  0.00    +0.000 A 
ATOM      6  C   UNL     1      45.744   4.772  12.904  0.00  0.00    +0.000 A 
ENDROOT
BRANCH   1   7
ATOM      7  C   UNL     1      44.267   5.469  10.963  0.00  0.00    +0.000 C 
BRANCH   7   8
ATOM      8  N   UNL     1      44.790   5.068   9.656  0.00  0.00    +0.000 NA
ATOM      9  H   UNL     1      44.450   5.721   8.951  0.00  0.00    +0.000 HD
BRANCH   8  11
ATOM     10  C   UNL     1      43.996   2.823  10.433  0.00  0.00    +0.000 C 
ATOM     11  C   UNL     1      44.378   3.716   9.247  0.00  0.00    +0.000 C 
BRANCH  11  12
ATOM     12  C   UNL     1      45.481   3.018   8.455  0.00  0.00    +0.000 A 
ATOM     13  C   UNL     1      46.311   3.769   7.603  0.00  0.00    +0.000 A 
ATOM     14  C   UNL     1      47.267   3.145   6.798  0.00  0.00    +0.000 A 
ATOM     15  C   UNL     1      47.416   1.760   6.837  0.00  0.00    +0.000 A 
ATOM     16  C   UNL     1      46.612   1.005   7.686  0.00  0.00    +0.000 A 
ATOM     17 CL   UNL     1      46.800  -0.706   7.738  0.00  0.00    +0.000 Cl
ATOM     18  C   UNL     1      45.647   1.622   8.485  0.00  0.00    +0.000 A 
ENDBRANCH  11  12
ENDBRANCH   8  11
ENDBRANCH   7   8
ENDBRANCH   1   7
BRANCH   5  19
ATOM     19  C   UNL     1      47.238   4.018  14.797  0.00  0.00    +0.000 C 
BRANCH  19  20
ATOM     20  N   UNL     1      47.646   4.648  16.025  0.00  0.00    +0.000 N 
ATOM     21  C   UNL     1      47.207   4.218  17.250  0.00  0.00    +0.000 C 
ATOM     22  O   UNL     1      46.434   3.271  17.375  0.00  0.00    +0.000 OA
ATOM     23  H   UNL     1      48.075   5.564  15.948  0.00  0.00    +0.000 HD
BRANCH  21  24
ATOM     24  C   UNL     1      47.772   4.907  18.416  0.00  0.00    +0.000 A 
ATOM     25  C   UNL     1      46.974   5.773  19.153  0.00  0.00    +0.000 A 
ATOM     26  S   UNL     1      47.768   6.451  20.500  0.00  0.00    +0.000 S 
ATOM     27  C   UNL     1      49.220   5.652  20.118  0.00  0.00    +0.000 A 
ATOM     28  N   UNL     1      50.334   5.826  20.876  0.00  0.00    +0.000 NA
ATOM     29  C   UNL     1      51.374   5.186  20.454  0.00  0.00    +0.000 A 
ATOM     30  N   UNL     1      51.396   4.372  19.346  0.00  0.00    +0.000 N 
ATOM     31  C   UNL     1      50.277   4.118  18.591  0.00  0.00    +0.000 A 
ATOM     32  O   UNL     1      50.305   3.300  17.677  0.00  0.00    +0.000 OA
ATOM     33  C   UNL     1      49.094   4.850  18.997  0.00  0.00    +0.000 A 
ATOM     34  H   UNL     1      52.236   3.880  19.087  0.00  0.00    +0.000 HD
ENDBRANCH  21  24
ENDBRANCH  19  20
ENDBRANCH   5  19
TORSDOF 7
ENDMDL
MODEL 4
REMARK VINA RESULT:    -8.262      2.354      2.974
REMARK INTER + INTRA:         -12.783
REMARK INTER:                 -11.472
REMARK INTRA:                  -1.311
REMARK UNBOUND:                -1.140
REMARK  Name = 
REMARK  8 active torsions:
REMARK  status: ('A' for Active; 'I' for Inactive)
REMARK    1  A    between atoms: C_1  and  C_2
REMARK    2  A    between atoms: C_2  and  N_3
REMARK    3  A    between atoms: C_2  and  C_25
REMARK    4  A    between atoms: N_3  and  C_4
REMARK    5  A    between atoms: C_4  and  C_5
REMARK    6  A    between atoms: C_9  and  C_10
REMARK    7  A    between atoms: C_10  and  N_11
REMARK    8  A    between atoms: C_12  and  C_14
REMARK                            x       y       z     vdW  Elec       q    Type
REMARK                         _______ _______ _______ _____ _____    ______ ____
ROOT
ATOM      1  C   UNL     1      44.777   6.520  12.133  0.00  0.00    +0.000 A 
ATOM      2  C   UNL     1      44.743   7.850  11.724  0.00  0.00    +0.000 A 
ATOM      3  N   UNL     1      45.762   8.725  11.889  0.00  0.00    +0.000 NA
ATOM      4  C   UNL     1      46.873   8.256  12.497  0.00  0.00    +0.000 A 
ATOM      5  C   UNL     1      47.013   6.955  12.961  0.00  0.00    +0.000 A 
ATOM      6  C   UNL     1      45.946   6.075  12.758  0.00  0.00    +0.000 A 
ENDROOT
BRANCH   1   7
ATOM      7  C   UNL     1      43.624   5.588  11.860  0.00  0.00    +0.000 C 
BRANCH   7   8
ATOM      8  N   UNL     1      43.600   5.135  10.468  0.00  0.00    +0.000 NA
ATOM      9  H   UNL     1      42.697   5.374  10.060  0.00  0.00    +0.000 HD
BRANCH   8  11
ATOM     10  C   UNL     1      44.127   2.984  11.640  0.00  0.00    +0.000 C 
ATOM     11  C   UNL     1      43.788   3.683  10.318  0.00  0.00    +0.000 C 
BRANCH  11  12
ATOM     12  C   UNL     1      44.891   3.369   9.311  0.00  0.00    +0.000 A 
ATOM     13  C   UNL     1      45.489   4.414   8.583  0.00  0.00    +0.000 A 
ATOM     14  C   UNL     1      46.435   4.147   7.590  0.00  0.00    +0.000 A 
ATOM     15  C   UNL     1      46.806   2.832   7.314  0.00  0.00    +0.000 A 
ATOM     16  C   UNL     1      46.233   1.789   8.037  0.00  0.00    +0.000 A 
ATOM     17 CL   UNL     1      46.697   0.166   7.699  0.00  0.00    +0.000 Cl
ATOM     18  C   UNL     1      45.279   2.049   9.023  0.00  0.00    +0.000 A 
ENDBRANCH  11  12
ENDBRANCH   8  11
ENDBRANCH   7   8
ENDBRANCH   1   7
BRANCH   5  19
ATOM     19  C   UNL     1      48.287   6.505  13.605  0.00  0.00    +0.000 C 
BRANCH  19  20
ATOM     20  N   UNL     1      48.166   6.477  15.039  0.00  0.00    +0.000 N 
ATOM     21  C   UNL     1      49.048   7.126  15.862  0.00  0.00    +0.000 C 
ATOM     22  O   UNL     1      50.001   7.768  15.428  0.00  0.00    +0.000 OA
ATOM     23  H   UNL     1      47.553   5.769  15.432  0.00  0.00    +0.000 HD
BRANCH  21  24
ATOM     24  C   UNL     1      48.750   7.073  17.298  0.00  0.00    +0.000 A 
ATOM     25  C   UNL     1      48.364   8.231  17.961  0.00  0.00    +0.000 A 
ATOM     26  S   UNL     1      48.009   7.986  19.610  0.00  0.00    +0.000 S 
ATOM     27  C   UNL     1      48.406   6.336  19.509  0.00  0.00    +0.000 A 
ATOM     28  N   UNL     1      48.343   5.533  20.604  0.00  0.00    +0.000 NA
ATOM     29  C   UNL     1      48.703   4.310  20.392  0.00  0.00    +0.000 A 
ATOM     30  N   UNL     1      49.108   3.812  19.177  0.00  0.00    +0.000 N 
ATOM     31  C   UNL     1      49.125   4.572  18.032  0.00  0.00    +0.000 A 
ATOM     32  O   UNL     1      49.383   4.070  16.944  0.00  0.00    +0.000 OA
ATOM     33  C   UNL     1      48.773   5.966  18.226  0.00  0.00    +0.000 A 
ATOM     34  H   UNL     1      49.350   2.840  19.074  0.00  0.00    +0.000 HD
ENDBRANCH  21  24
ENDBRANCH  19  20
ENDBRANCH   5  19
TORSDOF 7
ENDMDL
MODEL 5
REMARK VINA RESULT:    -8.048      2.370      3.097
REMARK INTER + INTRA:         -12.482
REMARK INTER:                 -11.676
REMARK INTRA:                  -0.806
REMARK UNBOUND:                -1.140
REMARK  Name = 
REMARK  8 active torsions:
REMARK  status: ('A' for Active; 'I' for Inactive)
REMARK    1  A    between atoms: C_1  and  C_2
REMARK    2  A    between atoms: C_2  and  N_3
REMARK    3  A    between atoms: C_2  and  C_25
REMARK    4  A    between atoms: N_3  and  C_4
REMARK    5  A    between atoms: C_4  and  C_5
REMARK    6  A    between atoms: C_9  and  C_10
REMARK    7  A    between atoms: C_10  and  N_11
REMARK    8  A    between atoms: C_12  and  C_14
REMARK                            x       y       z     vdW  Elec       q    Type
REMARK                         _______ _______ _______ _____ _____    ______ ____
ROOT
ATOM      1  C   UNL     1      45.784   5.406  12.150  0.00  0.00    +0.000 A 
ATOM      2  C   UNL     1      45.661   4.230  12.884  0.00  0.00    +0.000 A 
ATOM      3  N   UNL     1      46.385   3.942  13.990  0.00  0.00    +0.000 NA
ATOM      4  C   UNL     1      47.284   4.869  14.387  0.00  0.00    +0.000 A 
ATOM      5  C   UNL     1      47.505   6.069  13.724  0.00  0.00    +0.000 A 
ATOM      6  C   UNL     1      46.725   6.340  12.595  0.00  0.00    +0.000 A 
ENDROOT
BRANCH   1   7
ATOM      7  C   UNL     1      44.899   5.683  10.962  0.00  0.00    +0.000 C 
BRANCH   7   8
ATOM      8  N   UNL     1      45.429   5.092   9.732  0.00  0.00    +0.000 NA
ATOM      9  H   UNL     1      45.525   5.826   9.030  0.00  0.00    +0.000 HD
BRANCH   8  11
ATOM     10  C   UNL     1      43.797   3.258  10.233  0.00  0.00    +0.000 C 
ATOM     11  C   UNL     1      44.568   4.042   9.164  0.00  0.00    +0.000 C 
BRANCH  11  12
ATOM     12  C   UNL     1      45.378   3.053   8.331  0.00  0.00    +0.000 A 
ATOM     13  C   UNL     1      45.538   1.729   8.781  0.00  0.00    +0.000 A 
ATOM     14  C   UNL     1      46.350   0.829   8.087  0.00  0.00    +0.000 A 
ATOM     15  C   UNL     1      47.009   1.233   6.928  0.00  0.00    +0.000 A 
ATOM     16  C   UNL     1      46.848   2.535   6.463  0.00  0.00    +0.000 A 
ATOM     17 CL   UNL     1      47.658   3.031   5.027  0.00  0.00    +0.000 Cl
ATOM     18  C   UNL     1      46.047   3.443   7.157  0.00  0.00    +0.000 A 
ENDBRANCH  11  12
ENDBRANCH   8  11
ENDBRANCH   7   8
ENDBRANCH   1   7
BRANCH   5  19
ATOM     19  C   UNL     1      48.504   7.056  14.240  0.00  0.00    +0.000 C 
BRANCH  19  20
ATOM     20  N   UNL     1      48.513   7.087  15.679  0.00  0.00    +0.000 N 
ATOM     21  C   UNL     1      49.606   6.708  16.414  0.00  0.00    +0.000 C 
ATOM     22  O   UNL     1      50.644   6.314  15.890  0.00  0.00    +0.000 OA
ATOM     23  H   UNL     1      47.612   7.168  16.139  0.00  0.00    +0.000 HD
BRANCH  21  24
ATOM     24  C   UNL     1      49.493   6.870  17.868  0.00  0.00    +0.000 A 
ATOM     25  C   UNL     1      49.740   8.112  18.440  0.00  0.00    +0.000 A 
ATOM     26  S   UNL     1      49.519   8.139  20.130  0.00  0.00    +0.000 S 
ATOM     27  C   UNL     1      49.136   6.483  20.164  0.00  0.00    +0.000 A 
ATOM     28  N   UNL     1      48.862   5.852  21.336  0.00  0.00    +0.000 NA
ATOM     29  C   UNL     1      48.620   4.588  21.220  0.00  0.00    +0.000 A 
ATOM     30  N   UNL     1      48.613   3.898  20.031  0.00  0.00    +0.000 N 
ATOM     31  C   UNL     1      48.820   4.509  18.818  0.00  0.00    +0.000 A 
ATOM     32  O   UNL     1      48.696   3.888  17.768  0.00  0.00    +0.000 OA
ATOM     33  C   UNL     1      49.142   5.921  18.899  0.00  0.00    +0.000 A 
ATOM     34  H   UNL     1      48.390   2.916  20.008  0.00  0.00    +0.000 HD
ENDBRANCH  21  24
ENDBRANCH  19  20
ENDBRANCH   5  19
TORSDOF 7
ENDMDL
MODEL 6
REMARK VINA RESULT:    -7.341      4.868      9.887
REMARK INTER + INTRA:         -11.485
REMARK INTER:                 -10.020
REMARK INTRA:                  -1.465
REMARK UNBOUND:                -1.140
REMARK  Name = 
REMARK  8 active torsions:
REMARK  status: ('A' for Active; 'I' for Inactive)
REMARK    1  A    between atoms: C_1  and  C_2
REMARK    2  A    between atoms: C_2  and  N_3
REMARK    3  A    between atoms: C_2  and  C_25
REMARK    4  A    between atoms: N_3  and  C_4
REMARK    5  A    between atoms: C_4  and  C_5
REMARK    6  A    between atoms: C_9  and  C_10
REMARK    7  A    between atoms: C_10  and  N_11
REMARK    8  A    between atoms: C_12  and  C_14
REMARK                            x       y       z     vdW  Elec       q    Type
REMARK                         _______ _______ _______ _____ _____    ______ ____
ROOT
ATOM      1  C   UNL     1      50.888   3.753  17.950  0.00  0.00    +0.000 A 
ATOM      2  C   UNL     1      51.311   2.548  17.396  0.00  0.00    +0.000 A 
ATOM      3  N   UNL     1      50.501   1.688  16.735  0.00  0.00    +0.000 NA
ATOM      4  C   UNL     1      49.202   2.040  16.622  0.00  0.00    +0.000 A 
ATOM      5  C   UNL     1      48.667   3.208  17.149  0.00  0.00    +0.000 A 
ATOM      6  C   UNL     1      49.536   4.081  17.810  0.00  0.00    +0.000 A 
ENDROOT
BRANCH   1   7
ATOM      7  C   UNL     1      51.862   4.689  18.620  0.00  0.00    +0.000 C 
BRANCH   7   8
ATOM      8  N   UNL     1      51.599   6.089  18.283  0.00  0.00    +0.000 NA
ATOM      9  H   UNL     1      52.422   6.476  17.822  0.00  0.00    +0.000 HD
BRANCH   8  11
ATOM     10  C   UNL     1      51.485   6.191  20.783  0.00  0.00    +0.000 C 
ATOM     11  C   UNL     1      51.306   6.932  19.453  0.00  0.00    +0.000 C 
BRANCH  11  12
ATOM     12  C   UNL     1      49.883   7.481  19.396  0.00  0.00    +0.000 A 
ATOM     13  C   UNL     1      49.330   7.859  18.159  0.00  0.00    +0.000 A 
ATOM     14  C   UNL     1      48.066   8.450  18.088  0.00  0.00    +0.000 A 
ATOM     15  C   UNL     1      47.329   8.665  19.251  0.00  0.00    +0.000 A 
ATOM     16  C   UNL     1      47.857   8.282  20.481  0.00  0.00    +0.000 A 
ATOM     17 CL   UNL     1      46.944   8.543  21.917  0.00  0.00    +0.000 Cl
ATOM     18  C   UNL     1      49.125   7.702  20.560  0.00  0.00    +0.000 A 
ENDBRANCH  11  12
ENDBRANCH   8  11
ENDBRANCH   7   8
ENDBRANCH   1   7
BRANCH   5  19
ATOM     19  C   UNL     1      47.219   3.538  16.961  0.00  0.00    +0.000 C 
BRANCH  19  20
ATOM     20  N   UNL     1      47.040   4.549  15.952  0.00  0.00    +0.000 N 
ATOM     21  C   UNL     1      47.054   4.258  14.614  0.00  0.00    +0.000 C 
ATOM     22  O   UNL     1      47.225   3.118  14.191  0.00  0.00    +0.000 OA
ATOM     23  H   UNL     1      47.142   5.514  16.250  0.00  0.00    +0.000 HD
BRANCH  21  24
ATOM     24  C   UNL     1      46.777   5.379  13.707  0.00  0.00    +0.000 A 
ATOM     25  C   UNL     1      47.778   6.303  13.436  0.00  0.00    +0.000 A 
ATOM     26  S   UNL     1      47.307   7.511  12.328  0.00  0.00    +0.000 S 
ATOM     27  C   UNL     1      45.737   6.872  12.211  0.00  0.00    +0.000 A 
ATOM     28  N   UNL     1      44.796   7.464  11.429  0.00  0.00    +0.000 NA
ATOM     29  C   UNL     1      43.638   6.893  11.458  0.00  0.00    +0.000 A 
ATOM     30  N   UNL     1      43.337   5.769  12.191  0.00  0.00    +0.000 N 
ATOM     31  C   UNL     1      44.273   5.102  12.943  0.00  0.00    +0.000 A 
ATOM     32  O   UNL     1      44.001   4.041  13.494  0.00  0.00    +0.000 OA
ATOM     33  C   UNL     1      45.579   5.731  12.980  0.00  0.00    +0.000 A 
ATOM     34  H   UNL     1      42.419   5.359  12.148  0.00  0.00    +0.000 HD
ENDBRANCH  21  24
ENDBRANCH  19  20
ENDBRANCH   5  19
TORSDOF 7
ENDMDL
MODEL 7
REMARK VINA RESULT:    -7.335      4.595      9.610
REMARK INTER + INTRA:         -11.478
REMARK INTER:                  -9.284
REMARK INTRA:                  -2.194
REMARK UNBOUND:                -1.140
REMARK  Name = 
REMARK  8 active torsions:
REMARK  status: ('A' for Active; 'I' for Inactive)
REMARK    1  A    between atoms: C_1  and  C_2
REMARK    2  A    between atoms: C_2  and  N_3
REMARK    3  A    between atoms: C_2  and  C_25
REMARK    4  A    between atoms: N_3  and  C_4
REMARK    5  A    between atoms: C_4  and  C_5
REMARK    6  A    between atoms: C_9  and  C_10
REMARK    7  A    between atoms: C_10  and  N_11
REMARK    8  A    between atoms: C_12  and  C_14
REMARK                            x       y       z     vdW  Elec       q    Type
REMARK                         _______ _______ _______ _____ _____    ______ ____
ROOT
ATOM      1  C   UNL     1      50.823   3.588  18.040  0.00  0.00    +0.000 A 
ATOM      2  C   UNL     1      51.235   2.411  17.421  0.00  0.00    +0.000 A 
ATOM      3  N   UNL     1      50.436   1.634  16.652  0.00  0.00    +0.000 NA
ATOM      4  C   UNL     1      49.160   2.044  16.493  0.00  0.00    +0.000 A 
ATOM      5  C   UNL     1      48.635   3.191  17.075  0.00  0.00    +0.000 A 
ATOM      6  C   UNL     1      49.494   3.978  17.848  0.00  0.00    +0.000 A 
ENDROOT
BRANCH   1   7
ATOM      7  C   UNL     1      51.787   4.433  18.832  0.00  0.00    +0.000 C 
BRANCH   7   8
ATOM      8  N   UNL     1      51.344   4.624  20.214  0.00  0.00    +0.000 NA
ATOM      9  H   UNL     1      50.434   4.180  20.332  0.00  0.00    +0.000 HD
BRANCH   8  11
ATOM     10  C   UNL     1      51.315   6.262  22.110  0.00  0.00    +0.000 C 
ATOM     11  C   UNL     1      51.203   6.038  20.597  0.00  0.00    +0.000 C 
BRANCH  11  12
ATOM     12  C   UNL     1      49.868   6.609  20.124  0.00  0.00    +0.000 A 
ATOM     13  C   UNL     1      48.671   6.164  20.714  0.00  0.00    +0.000 A 
ATOM     14  C   UNL     1      47.432   6.600  20.239  0.00  0.00    +0.000 A 
ATOM     15  C   UNL     1      47.368   7.494  19.172  0.00  0.00    +0.000 A 
ATOM     16  C   UNL     1      48.545   7.953  18.588  0.00  0.00    +0.000 A 
ATOM     17 CL   UNL     1      48.465   9.062  17.273  0.00  0.00    +0.000 Cl
ATOM     18  C   UNL     1      49.786   7.513  19.051  0.00  0.00    +0.000 A 
ENDBRANCH  11  12
ENDBRANCH   8  11
ENDBRANCH   7   8
ENDBRANCH   1   7
BRANCH   5  19
ATOM     19  C   UNL     1      47.214   3.591  16.831  0.00  0.00    +0.000 C 
BRANCH  19  20
ATOM     20  N   UNL     1      47.126   4.628  15.836  0.00  0.00    +0.000 N 
ATOM     21  C   UNL     1      47.065   4.354  14.496  0.00  0.00    +0.000 C 
ATOM     22  O   UNL     1      47.086   3.206  14.059  0.00  0.00    +0.000 OA
ATOM     23  H   UNL     1      47.350   5.571  16.139  0.00  0.00    +0.000 HD
BRANCH  21  24
ATOM     24  C   UNL     1      46.896   5.511  13.608  0.00  0.00    +0.000 A 
ATOM     25  C   UNL     1      45.822   5.548  12.728  0.00  0.00    +0.000 A 
ATOM     26  S   UNL     1      45.747   6.979  11.805  0.00  0.00    +0.000 S 
ATOM     27  C   UNL     1      47.174   7.577  12.511  0.00  0.00    +0.000 A 
ATOM     28  N   UNL     1      47.692   8.776  12.135  0.00  0.00    +0.000 NA
ATOM     29  C   UNL     1      48.795   9.092  12.728  0.00  0.00    +0.000 A 
ATOM     30  N   UNL     1      49.423   8.321  13.677  0.00  0.00    +0.000 N 
ATOM     31  C   UNL     1      48.901   7.134  14.132  0.00  0.00    +0.000 A 
ATOM     32  O   UNL     1      49.427   6.527  15.059  0.00  0.00    +0.000 OA
ATOM     33  C   UNL     1      47.685   6.712  13.464  0.00  0.00    +0.000 A 
ATOM     34  H   UNL     1      50.269   8.639  14.120  0.00  0.00    +0.000 HD
ENDBRANCH  21  24
ENDBRANCH  19  20
ENDBRANCH   5  19
TORSDOF 7
ENDMDL
MODEL 8
REMARK VINA RESULT:    -7.326      4.259      8.700
REMARK INTER + INTRA:         -11.464
REMARK INTER:                  -9.951
REMARK INTRA:                  -1.514
REMARK UNBOUND:                -1.140
REMARK  Name = 
REMARK  8 active torsions:
REMARK  status: ('A' for Active; 'I' for Inactive)
REMARK    1  A    between atoms: C_1  and  C_2
REMARK    2  A    between atoms: C_2  and  N_3
REMARK    3  A    between atoms: C_2  and  C_25
REMARK    4  A    between atoms: N_3  and  C_4
REMARK    5  A    between atoms: C_4  and  C_5
REMARK    6  A    between atoms: C_9  and  C_10
REMARK    7  A    between atoms: C_10  and  N_11
REMARK    8  A    between atoms: C_12  and  C_14
REMARK                            x       y       z     vdW  Elec       q    Type
REMARK                         _______ _______ _______ _____ _____    ______ ____
ROOT
ATOM      1  C   UNL     1      49.284   8.178  15.402  0.00  0.00    +0.000 A 
ATOM      2  C   UNL     1      50.605   8.046  14.985  0.00  0.00    +0.000 A 
ATOM      3  N   UNL     1      50.990   7.929  13.693  0.00  0.00    +0.000 NA
ATOM      4  C   UNL     1      50.010   7.940  12.764  0.00  0.00    +0.000 A 
ATOM      5  C   UNL     1      48.658   8.050  13.064  0.00  0.00    +0.000 A 
ATOM      6  C   UNL     1      48.300   8.186  14.408  0.00  0.00    +0.000 A 
ENDROOT
BRANCH   1   7
ATOM      7  C   UNL     1      48.938   8.364  16.857  0.00  0.00    +0.000 C 
BRANCH   7   8
ATOM      8  N   UNL     1      48.062   7.302  17.354  0.00  0.00    +0.000 NA
ATOM      9  H   UNL     1      47.307   7.723  17.894  0.00  0.00    +0.000 HD
BRANCH   8  11
ATOM     10  C   UNL     1      50.178   6.758  18.582  0.00  0.00    +0.000 C 
ATOM     11  C   UNL     1      48.748   6.334  18.226  0.00  0.00    +0.000 C 
BRANCH  11  12
ATOM     12  C   UNL     1      48.802   4.951  17.582  0.00  0.00    +0.000 A 
ATOM     13  C   UNL     1      47.704   4.484  16.838  0.00  0.00    +0.000 A 
ATOM     14  C   UNL     1      47.689   3.189  16.315  0.00  0.00    +0.000 A 
ATOM     15  C   UNL     1      48.775   2.341  16.521  0.00  0.00    +0.000 A 
ATOM     16  C   UNL     1      49.876   2.794  17.244  0.00  0.00    +0.000 A 
ATOM     17 CL   UNL     1      51.220   1.747  17.493  0.00  0.00    +0.000 Cl
ATOM     18  C   UNL     1      49.892   4.084  17.778  0.00  0.00    +0.000 A 
ENDBRANCH  11  12
ENDBRANCH   8  11
ENDBRANCH   7   8
ENDBRANCH   1   7
BRANCH   5  19
ATOM     19  C   UNL     1      47.632   8.078  11.974  0.00  0.00    +0.000 C 
BRANCH  19  20
ATOM     20  N   UNL     1      46.899   6.840  11.914  0.00  0.00    +0.000 N 
ATOM     21  C   UNL     1      45.532   6.801  11.850  0.00  0.00    +0.000 C 
ATOM     22  O   UNL     1      44.845   7.820  11.844  0.00  0.00    +0.000 OA
ATOM     23  H   UNL     1      47.407   5.997  12.162  0.00  0.00    +0.000 HD
BRANCH  21  24
ATOM     24  C   UNL     1      44.930   5.469  11.713  0.00  0.00    +0.000 A 
ATOM     25  C   UNL     1      44.219   4.926  12.775  0.00  0.00    +0.000 A 
ATOM     26  S   UNL     1      43.547   3.398  12.434  0.00  0.00    +0.000 S 
ATOM     27  C   UNL     1      44.222   3.385  10.874  0.00  0.00    +0.000 A 
ATOM     28  N   UNL     1      44.046   2.324  10.044  0.00  0.00    +0.000 NA
ATOM     29  C   UNL     1      44.641   2.432   8.902  0.00  0.00    +0.000 A 
ATOM     30  N   UNL     1      45.386   3.518   8.508  0.00  0.00    +0.000 N 
ATOM     31  C   UNL     1      45.535   4.638   9.289  0.00  0.00    +0.000 A 
ATOM     32  O   UNL     1      46.112   5.633   8.864  0.00  0.00    +0.000 OA
ATOM     33  C   UNL     1      44.925   4.546  10.601  0.00  0.00    +0.000 A 
ATOM     34  H   UNL     1      45.802   3.550   7.591  0.00  0.00    +0.000 HD
ENDBRANCH  21  24
ENDBRANCH  19  20
ENDBRANCH   5  19
TORSDOF 7
ENDMDL
MODEL 9
REMARK VINA RESULT:    -7.250      4.415      6.103
REMARK INTER + INTRA:         -11.358
REMARK INTER:                  -9.611
REMARK INTRA:                  -1.747
REMARK UNBOUND:                -1.140
REMARK  Name = 
REMARK  8 active torsions:
REMARK  status: ('A' for Active; 'I' for Inactive)
REMARK    1  A    between atoms: C_1  and  C_2
REMARK    2  A    between atoms: C_2  and  N_3
REMARK    3  A    between atoms: C_2  and  C_25
REMARK    4  A    between atoms: N_3  and  C_4
REMARK    5  A    between atoms: C_4  and  C_5
REMARK    6  A    between atoms: C_9  and  C_10
REMARK    7  A    between atoms: C_10  and  N_11
REMARK    8  A    between atoms: C_12  and  C_14
REMARK                            x       y       z     vdW  Elec       q    Type
REMARK                         _______ _______ _______ _____ _____    ______ ____
ROOT
ATOM      1  C   UNL     1      44.389   6.131  11.607  0.00  0.00    +0.000 A 
ATOM      2  C   UNL     1      43.448   5.295  11.012  0.00  0.00    +0.000 A 
ATOM      3  N   UNL     1      43.433   3.948  11.143  0.00  0.00    +0.000 NA
ATOM      4  C   UNL     1      44.407   3.400  11.900  0.00  0.00    +0.000 A 
ATOM      5  C   UNL     1      45.407   4.132  12.527  0.00  0.00    +0.000 A 
ATOM      6  C   UNL     1      45.380   5.523  12.383  0.00  0.00    +0.000 A 
ENDROOT
BRANCH   1   7
ATOM      7  C   UNL     1      44.306   7.628  11.465  0.00  0.00    +0.000 C 
BRANCH   7   8
ATOM      8  N   UNL     1      44.920   8.324  12.598  0.00  0.00    +0.000 NA
ATOM      9  H   UNL     1      44.257   8.341  13.372  0.00  0.00    +0.000 HD
BRANCH   8  11
ATOM     10  C   UNL     1      44.453  10.336  11.180  0.00  0.00    +0.000 C 
ATOM     11  C   UNL     1      45.296   9.715  12.301  0.00  0.00    +0.000 C 
BRANCH  11  12
ATOM     12  C   UNL     1      46.768   9.819  11.910  0.00  0.00    +0.000 A 
ATOM     13  C   UNL     1      47.639   8.749  12.181  0.00  0.00    +0.000 A 
ATOM     14  C   UNL     1      49.007   8.852  11.919  0.00  0.00    +0.000 A 
ATOM     15  C   UNL     1      49.527  10.024  11.373  0.00  0.00    +0.000 A 
ATOM     16  C   UNL     1      48.674  11.087  11.086  0.00  0.00    +0.000 A 
ATOM     17 CL   UNL     1      49.316  12.532  10.406  0.00  0.00    +0.000 Cl
ATOM     18  C   UNL     1      47.308  10.993  11.356  0.00  0.00    +0.000 A 
ENDBRANCH  11  12
ENDBRANCH   8  11
ENDBRANCH   7   8
ENDBRANCH   1   7
BRANCH   5  19
ATOM     19  C   UNL     1      46.440   3.452  13.369  0.00  0.00    +0.000 C 
BRANCH  19  20
ATOM     20  N   UNL     1      46.749   4.225  14.544  0.00  0.00    +0.000 N 
ATOM     21  C   UNL     1      47.605   3.774  15.513  0.00  0.00    +0.000 C 
ATOM     22  O   UNL     1      48.158   2.679  15.444  0.00  0.00    +0.000 OA
ATOM     23  H   UNL     1      46.135   5.005  14.751  0.00  0.00    +0.000 HD
BRANCH  21  24
ATOM     24  C   UNL     1      47.885   4.706  16.612  0.00  0.00    +0.000 A 
ATOM     25  C   UNL     1      47.518   4.368  17.908  0.00  0.00    +0.000 A 
ATOM     26  S   UNL     1      47.958   5.537  19.068  0.00  0.00    +0.000 S 
ATOM     27  C   UNL     1      48.608   6.559  17.875  0.00  0.00    +0.000 A 
ATOM     28  N   UNL     1      49.137   7.767  18.200  0.00  0.00    +0.000 NA
ATOM     29  C   UNL     1      49.565   8.454  17.193  0.00  0.00    +0.000 A 
ATOM     30  N   UNL     1      49.524   8.034  15.885  0.00  0.00    +0.000 N 
ATOM     31  C   UNL     1      49.057   6.795  15.519  0.00  0.00    +0.000 A 
ATOM     32  O   UNL     1      49.138   6.407  14.358  0.00  0.00    +0.000 OA
ATOM     33  C   UNL     1      48.522   6.003  16.609  0.00  0.00    +0.000 A 
ATOM     34  H   UNL     1      49.899   8.609  15.149  0.00  0.00    +0.000 HD
ENDBRANCH  21  24
ENDBRANCH  19  20
ENDBRANCH   5  19
TORSDOF 7
ENDMDL
