MODEL 1
REMARK VINA RESULT:    -7.018      0.000      0.000
REMARK INTER + INTRA:          -9.082
REMARK INTER:                  -8.659
REMARK INTRA:                  -0.423
REMARK UNBOUND:                -0.423
REMARK  Name = 
REMARK  4 active torsions:
REMARK  status: ('A' for Active; 'I' for Inactive)
REMARK    1  A    between atoms: C_2  and  C_4
REMARK    2  A    between atoms: C_7  and  C_8
REMARK    3  A    between atoms: C_9  and  C_10
REMARK    4  A    between atoms: C_14  and  N_15
REMARK                            x       y       z     vdW  Elec       q    Type
REMARK                         _______ _______ _______ _____ _____    ______ ____
ROOT
ATOM      1  C   UNL     1      46.840   4.595  14.798  0.00  0.00    +0.000 C 
ATOM      2  C   UNL     1      46.093   4.588  13.856  0.00  0.00    +0.000 C 
ENDROOT
BRANCH   1   6
ATOM      3  C   UNL     1      49.137   4.651  18.348  0.00  0.00    +0.000 A 
ATOM      4  C   UNL     1      49.153   5.755  17.487  0.00  0.00    +0.000 A 
ATOM      5  C   UNL     1      48.412   5.730  16.302  0.00  0.00    +0.000 A 
ATOM      6  C   UNL     1      47.654   4.603  15.974  0.00  0.00    +0.000 A 
ATOM      7  C   UNL     1      47.662   3.488  16.817  0.00  0.00    +0.000 A 
ATOM      8  C   UNL     1      48.407   3.508  17.999  0.00  0.00    +0.000 A 
BRANCH   3  10
ATOM      9  N   UNL     1      49.171   4.270  20.750  0.00  0.00    +0.000 N 
ATOM     10  C   UNL     1      49.871   4.652  19.639  0.00  0.00    +0.000 C 
ATOM     11  O   UNL     1      51.062   4.930  19.705  0.00  0.00    +0.000 OA
ATOM     12  H   UNL     1      49.711   4.143  21.597  0.00  0.00    +0.000 HD
ATOM     13  H   UNL     1      48.286   3.786  20.686  0.00  0.00    +0.000 HD
ENDBRANCH   3  10
ENDBRANCH   1   6
BRANCH   2  14
ATOM     14  C   UNL     1      45.136   4.574  12.795  0.00  0.00    +0.000 A 
ATOM     15  C   UNL     1      43.898   5.173  12.967  0.00  0.00    +0.000 A 
ATOM     16  N   UNL     1      42.948   5.214  12.010  0.00  0.00    +0.000 NA
ATOM     17  C   UNL     1      43.266   4.624  10.830  0.00  0.00    +0.000 A 
ATOM     18  C   UNL     1      44.477   3.987  10.523  0.00  0.00    +0.000 A 
ATOM     19  C   UNL     1      45.418   3.980  11.562  0.00  0.00    +0.000 A 
BRANCH  18  20
ATOM     20  N   UNL     1      44.731   3.422   9.291  0.00  0.00    +0.000 N 
ATOM     21  C   UNL     1      44.710   1.973   9.049  0.00  0.00    +0.000 C 
ATOM     22  C   UNL     1      46.035   1.516   8.400  0.00  0.00    +0.000 C 
ATOM     23  N   UNL     1      46.383   2.271   7.176  0.00  0.00    +0.000 NA
ATOM     24  C   UNL     1      46.410   3.714   7.498  0.00  0.00    +0.000 C 
ATOM     25  C   UNL     1      45.095   4.242   8.124  0.00  0.00    +0.000 C 
ATOM     26  H   UNL     1      45.645   2.116   6.489  0.00  0.00    +0.000 HD
ENDBRANCH  18  20
ENDBRANCH   2  14
TORSDOF 4
ENDMDL
MODEL 2
REMARK VINA RESULT:    -5.969      3.344      9.748
REMARK INTER + INTRA:          -7.788
REMARK INTER:                  -7.346
REMARK INTRA:                  -0.442
REMARK UNBOUND:                -0.423
REMARK  Name = 
REMARK  4 active torsions:
REMARK  status: ('A' for Active; 'I' for Inactive)
REMARK    1  A    between atoms: C_2  and  C_4
REMARK    2  A    between atoms: C_7  and  C_8
REMARK    3  A    between atoms: C_9  and  C_10
REMARK    4  A    between atoms: C_14  and  N_15
REMARK                            x       y       z     vdW  Elec       q    Type
REMARK                         _______ _______ _______ _____ _____    ______ ____
ROOT
ATOM      1  C   UNL     1      47.579   6.063  13.986  0.00  0.00    +0.000 C 
ATOM      2  C   UNL     1      48.289   6.446  14.878  0.00  0.00    +0.000 C 
ENDROOT
BRANCH   1   6
ATOM      3  C   UNL     1      45.061   4.466  10.987  0.00  0.00    +0.000 A 
ATOM      4  C   UNL     1      45.713   5.688  10.776  0.00  0.00    +0.000 A 
ATOM      5  C   UNL     1      46.529   6.228  11.774  0.00  0.00    +0.000 A 
ATOM      6  C   UNL     1      46.694   5.551  12.985  0.00  0.00    +0.000 A 
ATOM      7  C   UNL     1      46.020   4.348  13.210  0.00  0.00    +0.000 A 
ATOM      8  C   UNL     1      45.199   3.809  12.216  0.00  0.00    +0.000 A 
BRANCH   3  10
ATOM      9  N   UNL     1      44.146   4.479   8.735  0.00  0.00    +0.000 N 
ATOM     10  C   UNL     1      44.223   3.833   9.938  0.00  0.00    +0.000 C 
ATOM     11  O   UNL     1      43.669   2.756  10.115  0.00  0.00    +0.000 OA
ATOM     12  H   UNL     1      43.687   3.975   7.986  0.00  0.00    +0.000 HD
ATOM     13  H   UNL     1      44.795   5.209   8.475  0.00  0.00    +0.000 HD
ENDBRANCH   3  10
ENDBRANCH   1   6
BRANCH   2  14
ATOM     14  C   UNL     1      49.082   6.849  15.995  0.00  0.00    +0.000 A 
ATOM     15  C   UNL     1      50.157   7.705  15.813  0.00  0.00    +0.000 A 
ATOM     16  N   UNL     1      50.944   8.142  16.818  0.00  0.00    +0.000 NA
ATOM     17  C   UNL     1      50.627   7.694  18.059  0.00  0.00    +0.000 A 
ATOM     18  C   UNL     1      49.570   6.833  18.384  0.00  0.00    +0.000 A 
ATOM     19  C   UNL     1      48.794   6.416  17.292  0.00  0.00    +0.000 A 
BRANCH  18  20
ATOM     20  N   UNL     1      49.302   6.434  19.677  0.00  0.00    +0.000 N 
ATOM     21  C   UNL     1      49.909   5.247  20.296  0.00  0.00    +0.000 C 
ATOM     22  C   UNL     1      48.814   4.316  20.861  0.00  0.00    +0.000 C 
ATOM     23  N   UNL     1      47.877   4.997  21.782  0.00  0.00    +0.000 NA
ATOM     24  C   UNL     1      47.289   6.162  21.087  0.00  0.00    +0.000 C 
ATOM     25  C   UNL     1      48.338   7.153  20.524  0.00  0.00    +0.000 C 
ATOM     26  H   UNL     1      48.414   5.344  22.577  0.00  0.00    +0.000 HD
ENDBRANCH  18  20
ENDBRANCH   2  14
TORSDOF 4
ENDMDL
MODEL 3
REMARK VINA RESULT:    -5.912      5.961      7.986
REMARK INTER + INTRA:          -7.717
REMARK INTER:                  -7.276
REMARK INTRA:                  -0.441
REMARK UNBOUND:                -0.423
REMARK  Name = 
REMARK  4 active torsions:
REMARK  status: ('A' for Active; 'I' for Inactive)
REMARK    1  A    between atoms: C_2  and  C_4
REMARK    2  A    between atoms: C_7  and  C_8
REMARK    3  A    between atoms: C_9  and  C_10
REMARK    4  A    between atoms: C_14  and  N_15
REMARK                            x       y       z     vdW  Elec       q    Type
REMARK                         _______ _______ _______ _____ _____    ______ ____
ROOT
ATOM      1  C   UNL     1      44.453   8.227  11.401  0.00  0.00    +0.000 C 
ATOM      2  C   UNL     1      43.846   9.103  10.843  0.00  0.00    +0.000 C 
ENDROOT
BRANCH   1   6
ATOM      3  C   UNL     1      46.348   5.211  13.679  0.00  0.00    +0.000 A 
ATOM      4  C   UNL     1      47.070   6.343  13.280  0.00  0.00    +0.000 A 
ATOM      5  C   UNL     1      46.451   7.332  12.508  0.00  0.00    +0.000 A 
ATOM      6  C   UNL     1      45.113   7.190  12.133  0.00  0.00    +0.000 A 
ATOM      7  C   UNL     1      44.401   6.046  12.504  0.00  0.00    +0.000 A 
ATOM      8  C   UNL     1      45.019   5.054  13.270  0.00  0.00    +0.000 A 
BRANCH   3  10
ATOM      9  N   UNL     1      46.930   4.377  15.888  0.00  0.00    +0.000 N 
ATOM     10  C   UNL     1      46.951   4.160  14.538  0.00  0.00    +0.000 C 
ATOM     11  O   UNL     1      47.400   3.122  14.070  0.00  0.00    +0.000 OA
ATOM     12  H   UNL     1      47.218   3.600  16.470  0.00  0.00    +0.000 HD
ATOM     13  H   UNL     1      46.337   5.079  16.309  0.00  0.00    +0.000 HD
ENDBRANCH   3  10
ENDBRANCH   1   6
BRANCH   2  14
ATOM     14  C   UNL     1      43.064  10.140  10.249  0.00  0.00    +0.000 A 
ATOM     15  C   UNL     1      43.627  10.981   9.302  0.00  0.00    +0.000 A 
ATOM     16  N   UNL     1      42.951  11.972   8.685  0.00  0.00    +0.000 NA
ATOM     17  C   UNL     1      41.649  12.116   9.043  0.00  0.00    +0.000 A 
ATOM     18  C   UNL     1      40.957  11.337   9.980  0.00  0.00    +0.000 A 
ATOM     19  C   UNL     1      41.720  10.327  10.583  0.00  0.00    +0.000 A 
BRANCH  18  20
ATOM     20  N   UNL     1      39.625  11.537  10.279  0.00  0.00    +0.000 N 
ATOM     21  C   UNL     1      39.033  11.204  11.581  0.00  0.00    +0.000 C 
ATOM     22  C   UNL     1      37.806  10.284  11.396  0.00  0.00    +0.000 C 
ATOM     23  N   UNL     1      36.798  10.827  10.459  0.00  0.00    +0.000 NA
ATOM     24  C   UNL     1      37.457  11.115   9.166  0.00  0.00    +0.000 C 
ATOM     25  C   UNL     1      38.679  12.060   9.281  0.00  0.00    +0.000 C 
ATOM     26  H   UNL     1      36.456  11.709  10.840  0.00  0.00    +0.000 HD
ENDBRANCH  18  20
ENDBRANCH   2  14
TORSDOF 4
ENDMDL
MODEL 4
REMARK VINA RESULT:    -5.847      6.355      8.351
REMARK INTER + INTRA:          -7.637
REMARK INTER:                  -7.191
REMARK INTRA:                  -0.445
REMARK UNBOUND:                -0.423
REMARK  Name = 
REMARK  4 active torsions:
REMARK  status: ('A' for Active; 'I' for Inactive)
REMARK    1  A    between atoms: C_2  and  C_4
REMARK    2  A    between atoms: C_7  and  C_8
REMARK    3  A    between atoms: C_9  and  C_10
REMARK    4  A    between atoms: C_14  and  N_15
REMARK                            x       y       z     vdW  Elec       q    Type
REMARK                         _______ _______ _______ _____ _____    ______ ____
ROOT
ATOM      1  C   UNL     1      48.437   7.301  12.013  0.00  0.00    +0.000 C 
ATOM      2  C   UNL     1      49.587   7.587  11.809  0.00  0.00    +0.000 C 
ENDROOT
BRANCH   1   6
ATOM      3  C   UNL     1      44.426   6.023  12.425  0.00  0.00    +0.000 A 
ATOM      4  C   UNL     1      44.722   7.169  11.674  0.00  0.00    +0.000 A 
ATOM      5  C   UNL     1      46.045   7.605  11.554  0.00  0.00    +0.000 A 
ATOM      6  C   UNL     1      47.074   6.900  12.185  0.00  0.00    +0.000 A 
ATOM      7  C   UNL     1      46.777   5.776  12.960  0.00  0.00    +0.000 A 
ATOM      8  C   UNL     1      45.455   5.342  13.086  0.00  0.00    +0.000 A 
BRANCH   3  10
ATOM      9  N   UNL     1      42.094   6.072  11.740  0.00  0.00    +0.000 N 
ATOM     10  C   UNL     1      43.043   5.497  12.540  0.00  0.00    +0.000 C 
ATOM     11  O   UNL     1      42.767   4.558  13.275  0.00  0.00    +0.000 OA
ATOM     12  H   UNL     1      41.188   5.620  11.725  0.00  0.00    +0.000 HD
ATOM     13  H   UNL     1      42.339   6.650  10.947  0.00  0.00    +0.000 HD
ENDBRANCH   3  10
ENDBRANCH   1   6
BRANCH   2  14
ATOM     14  C   UNL     1      50.955   7.861  11.503  0.00  0.00    +0.000 A 
ATOM     15  C   UNL     1      51.732   8.596  12.384  0.00  0.00    +0.000 A 
ATOM     16  N   UNL     1      53.032   8.884  12.174  0.00  0.00    +0.000 NA
ATOM     17  C   UNL     1      53.569   8.406  11.022  0.00  0.00    +0.000 A 
ATOM     18  C   UNL     1      52.901   7.650  10.049  0.00  0.00    +0.000 A 
ATOM     19  C   UNL     1      51.552   7.389  10.331  0.00  0.00    +0.000 A 
BRANCH  18  20
ATOM     20  N   UNL     1      53.521   7.185   8.908  0.00  0.00    +0.000 N 
ATOM     21  C   UNL     1      53.930   8.059   7.800  0.00  0.00    +0.000 C 
ATOM     22  C   UNL     1      53.343   7.548   6.466  0.00  0.00    +0.000 C 
ATOM     23  N   UNL     1      53.657   6.128   6.189  0.00  0.00    +0.000 NA
ATOM     24  C   UNL     1      53.198   5.308   7.331  0.00  0.00    +0.000 C 
ATOM     25  C   UNL     1      53.779   5.752   8.697  0.00  0.00    +0.000 C 
ATOM     26  H   UNL     1      54.671   6.037   6.125  0.00  0.00    +0.000 HD
ENDBRANCH  18  20
ENDBRANCH   2  14
TORSDOF 4
ENDMDL
MODEL 5
REMARK VINA RESULT:    -5.823      1.632      2.135
REMARK INTER + INTRA:          -7.607
REMARK INTER:                  -7.171
REMARK INTRA:                  -0.437
REMARK UNBOUND:                -0.423
REMARK  Name = 
REMARK  4 active torsions:
REMARK  status: ('A' for Active; 'I' for Inactive)
REMARK    1  A    between atoms: C_2  and  C_4
REMARK    2  A    between atoms: C_7  and  C_8
REMARK    3  A    between atoms: C_9  and  C_10
REMARK    4  A    between atoms: C_14  and  N_15
REMARK                            x       y       z     vdW  Elec       q    Type
REMARK                         _______ _______ _______ _____ _____    ______ ____
ROOT
ATOM      1  C   UNL     1      47.111   5.486  14.404  0.00  0.00    +0.000 C 
ATOM      2  C   UNL     1      46.207   5.158  13.682  0.00  0.00    +0.000 C 
ENDROOT
BRANCH   1   6
ATOM      3  C   UNL     1      50.521   6.598  16.644  0.00  0.00    +0.000 A 
ATOM      4  C   UNL     1      49.636   5.636  17.148  0.00  0.00    +0.000 A 
ATOM      5  C   UNL     1      48.496   5.283  16.419  0.00  0.00    +0.000 A 
ATOM      6  C   UNL     1      48.238   5.890  15.188  0.00  0.00    +0.000 A 
ATOM      7  C   UNL     1      49.103   6.872  14.698  0.00  0.00    +0.000 A 
ATOM      8  C   UNL     1      50.239   7.232  15.428  0.00  0.00    +0.000 A 
BRANCH   3  10
ATOM      9  N   UNL     1      51.821   6.679  18.697  0.00  0.00    +0.000 N 
ATOM     10  C   UNL     1      51.766   6.970  17.362  0.00  0.00    +0.000 C 
ATOM     11  O   UNL     1      52.724   7.465  16.782  0.00  0.00    +0.000 OA
ATOM     12  H   UNL     1      52.719   6.810  19.146  0.00  0.00    +0.000 HD
ATOM     13  H   UNL     1      51.171   6.040  19.134  0.00  0.00    +0.000 HD
ENDBRANCH   3  10
ENDBRANCH   1   6
BRANCH   2  14
ATOM     14  C   UNL     1      45.186   4.790  12.753  0.00  0.00    +0.000 A 
ATOM     15  C   UNL     1      43.851   4.974  13.075  0.00  0.00    +0.000 A 
ATOM     16  N   UNL     1      42.832   4.666  12.248  0.00  0.00    +0.000 NA
ATOM     17  C   UNL     1      43.180   4.150  11.042  0.00  0.00    +0.000 A 
ATOM     18  C   UNL     1      44.486   3.915  10.588  0.00  0.00    +0.000 A 
ATOM     19  C   UNL     1      45.495   4.256  11.499  0.00  0.00    +0.000 A 
BRANCH  18  20
ATOM     20  N   UNL     1      44.760   3.400   9.338  0.00  0.00    +0.000 N 
ATOM     21  C   UNL     1      44.720   1.963   9.032  0.00  0.00    +0.000 C 
ATOM     22  C   UNL     1      46.053   1.512   8.394  0.00  0.00    +0.000 C 
ATOM     23  N   UNL     1      46.443   2.313   7.213  0.00  0.00    +0.000 NA
ATOM     24  C   UNL     1      46.486   3.740   7.599  0.00  0.00    +0.000 C 
ATOM     25  C   UNL     1      45.165   4.263   8.217  0.00  0.00    +0.000 C 
ATOM     26  H   UNL     1      45.719   2.202   6.503  0.00  0.00    +0.000 HD
ENDBRANCH  18  20
ENDBRANCH   2  14
TORSDOF 4
ENDMDL
MODEL 6
REMARK VINA RESULT:    -5.737      4.299      5.027
REMARK INTER + INTRA:          -7.502
REMARK INTER:                  -7.066
REMARK INTRA:                  -0.436
REMARK UNBOUND:                -0.423
REMARK  Name = 
REMARK  4 active torsions:
REMARK  status: ('A' for Active; 'I' for Inactive)
REMARK    1  A    between atoms: C_2  and  C_4
REMARK    2  A    between atoms: C_7  and  C_8
REMARK    3  A    between atoms: C_9  and  C_10
REMARK    4  A    between atoms: C_14  and  N_15
REMARK                            x       y       z     vdW  Elec       q    Type
REMARK                         _______ _______ _______ _____ _____    ______ ____
ROOT
ATOM      1  C   UNL     1      46.639   7.680  13.079  0.00  0.00    +0.000 C 
ATOM      2  C   UNL     1      45.974   6.747  12.714  0.00  0.00    +0.000 C 
ENDROOT
BRANCH   1   6
ATOM      3  C   UNL     1      48.969  11.060  14.093  0.00  0.00    +0.000 A 
ATOM      4  C   UNL     1      48.817  10.013  15.012  0.00  0.00    +0.000 A 
ATOM      5  C   UNL     1      48.030   8.905  14.687  0.00  0.00    +0.000 A 
ATOM      6  C   UNL     1      47.392   8.840  13.446  0.00  0.00    +0.000 A 
ATOM      7  C   UNL     1      47.516   9.897  12.541  0.00  0.00    +0.000 A 
ATOM      8  C   UNL     1      48.298  11.009  12.866  0.00  0.00    +0.000 A 
BRANCH   3  10
ATOM      9  N   UNL     1      50.641  12.667  13.363  0.00  0.00    +0.000 N 
ATOM     10  C   UNL     1      49.833  12.233  14.378  0.00  0.00    +0.000 C 
ATOM     11  O   UNL     1      49.790  12.823  15.450  0.00  0.00    +0.000 OA
ATOM     12  H   UNL     1      51.123  13.544  13.520  0.00  0.00    +0.000 HD
ATOM     13  H   UNL     1      50.502  12.377  12.405  0.00  0.00    +0.000 HD
ENDBRANCH   3  10
ENDBRANCH   1   6
BRANCH   2  14
ATOM     14  C   UNL     1      45.144   5.695  12.220  0.00  0.00    +0.000 A 
ATOM     15  C   UNL     1      44.045   5.273  12.952  0.00  0.00    +0.000 A 
ATOM     16  N   UNL     1      43.206   4.298  12.546  0.00  0.00    +0.000 NA
ATOM     17  C   UNL     1      43.492   3.727  11.348  0.00  0.00    +0.000 A 
ATOM     18  C   UNL     1      44.564   4.058  10.509  0.00  0.00    +0.000 A 
ATOM     19  C   UNL     1      45.396   5.078  10.992  0.00  0.00    +0.000 A 
BRANCH  18  20
ATOM     20  N   UNL     1      44.779   3.440   9.294  0.00  0.00    +0.000 N 
ATOM     21  C   UNL     1      44.730   1.983   9.112  0.00  0.00    +0.000 C 
ATOM     22  C   UNL     1      46.031   1.478   8.450  0.00  0.00    +0.000 C 
ATOM     23  N   UNL     1      46.361   2.178   7.189  0.00  0.00    +0.000 NA
ATOM     24  C   UNL     1      46.418   3.632   7.452  0.00  0.00    +0.000 C 
ATOM     25  C   UNL     1      45.127   4.206   8.087  0.00  0.00    +0.000 C 
ATOM     26  H   UNL     1      45.604   2.009   6.527  0.00  0.00    +0.000 HD
ENDBRANCH  18  20
ENDBRANCH   2  14
TORSDOF 4
ENDMDL
MODEL 7
REMARK VINA RESULT:    -5.589      2.197      3.448
REMARK INTER + INTRA:          -7.318
REMARK INTER:                  -6.880
REMARK INTRA:                  -0.439
REMARK UNBOUND:                -0.423
REMARK  Name = 
REMARK  4 active torsions:
REMARK  status: ('A' for Active; 'I' for Inactive)
REMARK    1  A    between atoms: C_2  and  C_4
REMARK    2  A    between atoms: C_7  and  C_8
REMARK    3  A    between atoms: C_9  and  C_10
REMARK    4  A    between atoms: C_14  and  N_15
REMARK                            x       y       z     vdW  Elec       q    Type
REMARK                         _______ _______ _______ _____ _____    ______ ____
ROOT
ATOM      1  C   UNL     1      48.761   5.825  16.255  0.00  0.00    +0.000 C 
ATOM      2  C   UNL     1      48.209   5.982  15.198  0.00  0.00    +0.000 C 
ENDROOT
BRANCH   1   6
ATOM      3  C   UNL     1      50.898   5.049  19.821  0.00  0.00    +0.000 A 
ATOM      4  C   UNL     1      49.562   5.465  19.883  0.00  0.00    +0.000 A 
ATOM      5  C   UNL     1      48.860   5.743  18.706  0.00  0.00    +0.000 A 
ATOM      6  C   UNL     1      49.491   5.608  17.466  0.00  0.00    +0.000 A 
ATOM      7  C   UNL     1      50.833   5.223  17.404  0.00  0.00    +0.000 A 
ATOM      8  C   UNL     1      51.538   4.951  18.580  0.00  0.00    +0.000 A 
BRANCH   3  10
ATOM      9  N   UNL     1      52.807   3.963  20.865  0.00  0.00    +0.000 N 
ATOM     10  C   UNL     1      51.667   4.698  21.041  0.00  0.00    +0.000 C 
ATOM     11  O   UNL     1      51.331   5.089  22.152  0.00  0.00    +0.000 OA
ATOM     12  H   UNL     1      53.394   3.846  21.682  0.00  0.00    +0.000 HD
ATOM     13  H   UNL     1      53.245   3.861  19.959  0.00  0.00    +0.000 HD
ENDBRANCH   3  10
ENDBRANCH   1   6
BRANCH   2  14
ATOM     14  C   UNL     1      47.632   6.144  13.901  0.00  0.00    +0.000 A 
ATOM     15  C   UNL     1      48.199   7.022  12.992  0.00  0.00    +0.000 A 
ATOM     16  N   UNL     1      47.723   7.219  11.745  0.00  0.00    +0.000 NA
ATOM     17  C   UNL     1      46.627   6.494  11.406  0.00  0.00    +0.000 A 
ATOM     18  C   UNL     1      45.958   5.573  12.224  0.00  0.00    +0.000 A 
ATOM     19  C   UNL     1      46.505   5.419  13.506  0.00  0.00    +0.000 A 
BRANCH  18  20
ATOM     20  N   UNL     1      44.855   4.862  11.800  0.00  0.00    +0.000 N 
ATOM     21  C   UNL     1      43.819   4.361  12.714  0.00  0.00    +0.000 C 
ATOM     22  C   UNL     1      43.610   2.844  12.513  0.00  0.00    +0.000 C 
ATOM     23  N   UNL     1      43.331   2.468  11.109  0.00  0.00    +0.000 NA
ATOM     24  C   UNL     1      44.423   2.981  10.253  0.00  0.00    +0.000 C 
ATOM     25  C   UNL     1      44.661   4.506  10.385  0.00  0.00    +0.000 C 
ATOM     26  H   UNL     1      42.467   2.929  10.825  0.00  0.00    +0.000 HD
ENDBRANCH  18  20
ENDBRANCH   2  14
TORSDOF 4
ENDMDL
MODEL 8
REMARK VINA RESULT:    -5.588      3.570      9.664
REMARK INTER + INTRA:          -7.317
REMARK INTER:                  -6.878
REMARK INTRA:                  -0.439
REMARK UNBOUND:                -0.423
REMARK  Name = 
REMARK  4 active torsions:
REMARK  status: ('A' for Active; 'I' for Inactive)
REMARK    1  A    between atoms: C_2  and  C_4
REMARK    2  A    between atoms: C_7  and  C_8
REMARK    3  A    between atoms: C_9  and  C_10
REMARK    4  A    between atoms: C_14  and  N_15
REMARK                            x       y       z     vdW  Elec       q    Type
REMARK                         _______ _______ _______ _____ _____    ______ ____
ROOT
ATOM      1  C   UNL     1      47.797   6.187  13.946  0.00  0.00    +0.000 C 
ATOM      2  C   UNL     1      48.544   6.636  14.775  0.00  0.00    +0.000 C 
ENDROOT
BRANCH   1   6
ATOM      3  C   UNL     1      45.072   4.537  11.166  0.00  0.00    +0.000 A 
ATOM      4  C   UNL     1      45.653   5.787  10.918  0.00  0.00    +0.000 A 
ATOM      5  C   UNL     1      46.538   6.344  11.846  0.00  0.00    +0.000 A 
ATOM      6  C   UNL     1      46.842   5.656  13.023  0.00  0.00    +0.000 A 
ATOM      7  C   UNL     1      46.239   4.423  13.286  0.00  0.00    +0.000 A 
ATOM      8  C   UNL     1      45.350   3.867  12.363  0.00  0.00    +0.000 A 
BRANCH   3  10
ATOM      9  N   UNL     1      44.094   4.447   8.941  0.00  0.00    +0.000 N 
ATOM     10  C   UNL     1      44.164   3.887  10.187  0.00  0.00    +0.000 C 
ATOM     11  O   UNL     1      43.545   2.866  10.458  0.00  0.00    +0.000 OA
ATOM     12  H   UNL     1      43.582   3.922   8.243  0.00  0.00    +0.000 HD
ATOM     13  H   UNL     1      44.782   5.110   8.612  0.00  0.00    +0.000 HD
ENDBRANCH   3  10
ENDBRANCH   1   6
BRANCH   2  14
ATOM     14  C   UNL     1      49.359   7.176  15.817  0.00  0.00    +0.000 A 
ATOM     15  C   UNL     1      49.313   8.530  16.105  0.00  0.00    +0.000 A 
ATOM     16  N   UNL     1      50.039   9.112  17.082  0.00  0.00    +0.000 NA
ATOM     17  C   UNL     1      50.846   8.286  17.796  0.00  0.00    +0.000 A 
ATOM     18  C   UNL     1      50.985   6.904  17.612  0.00  0.00    +0.000 A 
ATOM     19  C   UNL     1      50.203   6.365  16.581  0.00  0.00    +0.000 A 
BRANCH  18  20
ATOM     20  N   UNL     1      51.817   6.127  18.392  0.00  0.00    +0.000 N 
ATOM     21  C   UNL     1      52.637   5.033  17.854  0.00  0.00    +0.000 C 
ATOM     22  C   UNL     1      52.366   3.725  18.629  0.00  0.00    +0.000 C 
ATOM     23  N   UNL     1      52.528   3.863  20.094  0.00  0.00    +0.000 NA
ATOM     24  C   UNL     1      51.659   4.961  20.568  0.00  0.00    +0.000 C 
ATOM     25  C   UNL     1      51.905   6.311  19.850  0.00  0.00    +0.000 C 
ATOM     26  H   UNL     1      53.496   4.126  20.280  0.00  0.00    +0.000 HD
ENDBRANCH  18  20
ENDBRANCH   2  14
TORSDOF 4
ENDMDL
MODEL 9
REMARK VINA RESULT:    -5.372      3.751      9.888
REMARK INTER + INTRA:          -7.051
REMARK INTER:                  -6.615
REMARK INTRA:                  -0.436
REMARK UNBOUND:                -0.423
REMARK  Name = 
REMARK  4 active torsions:
REMARK  status: ('A' for Active; 'I' for Inactive)
REMARK    1  A    between atoms: C_2  and  C_4
REMARK    2  A    between atoms: C_7  and  C_8
REMARK    3  A    between atoms: C_9  and  C_10
REMARK    4  A    between atoms: C_14  and  N_15
REMARK                            x       y       z     vdW  Elec       q    Type
REMARK                         _______ _______ _______ _____ _____    ______ ____
ROOT
ATOM      1  C   UNL     1      47.469   6.326  13.789  0.00  0.00    +0.000 C 
ATOM      2  C   UNL     1      48.248   6.769  14.591  0.00  0.00    +0.000 C 
ENDROOT
BRANCH   1   6
ATOM      3  C   UNL     1      44.940   4.443  10.971  0.00  0.00    +0.000 A 
ATOM      4  C   UNL     1      45.481   5.704  10.692  0.00  0.00    +0.000 A 
ATOM      5  C   UNL     1      46.300   6.338  11.632  0.00  0.00    +0.000 A 
ATOM      6  C   UNL     1      46.578   5.715  12.851  0.00  0.00    +0.000 A 
ATOM      7  C   UNL     1      46.014   4.470  13.143  0.00  0.00    +0.000 A 
ATOM      8  C   UNL     1      45.190   3.838  12.208  0.00  0.00    +0.000 A 
BRANCH   3  10
ATOM      9  N   UNL     1      43.973   4.279   8.745  0.00  0.00    +0.000 N 
ATOM     10  C   UNL     1      44.105   3.713   9.984  0.00  0.00    +0.000 C 
ATOM     11  O   UNL     1      43.598   2.629  10.242  0.00  0.00    +0.000 OA
ATOM     12  H   UNL     1      43.518   3.712   8.041  0.00  0.00    +0.000 HD
ATOM     13  H   UNL     1      44.586   5.016   8.425  0.00  0.00    +0.000 HD
ENDBRANCH   3  10
ENDBRANCH   1   6
BRANCH   2  14
ATOM     14  C   UNL     1      49.202   7.209  15.559  0.00  0.00    +0.000 A 
ATOM     15  C   UNL     1      50.462   7.622  15.156  0.00  0.00    +0.000 A 
ATOM     16  N   UNL     1      51.411   8.065  16.006  0.00  0.00    +0.000 NA
ATOM     17  C   UNL     1      51.069   8.091  17.319  0.00  0.00    +0.000 A 
ATOM     18  C   UNL     1      49.834   7.706  17.860  0.00  0.00    +0.000 A 
ATOM     19  C   UNL     1      48.895   7.255  16.921  0.00  0.00    +0.000 A 
BRANCH  18  20
ATOM     20  N   UNL     1      49.556   7.777  19.209  0.00  0.00    +0.000 N 
ATOM     21  C   UNL     1      49.586   6.609  20.100  0.00  0.00    +0.000 C 
ATOM     22  C   UNL     1      48.250   6.481  20.866  0.00  0.00    +0.000 C 
ATOM     23  N   UNL     1      47.865   7.712  21.589  0.00  0.00    +0.000 NA
ATOM     24  C   UNL     1      47.831   8.837  20.630  0.00  0.00    +0.000 C 
ATOM     25  C   UNL     1      49.155   9.039  19.852  0.00  0.00    +0.000 C 
ATOM     26  H   UNL     1      48.588   7.911  22.281  0.00  0.00    +0.000 HD
ENDBRANCH  18  20
ENDBRANCH   2  14
TORSDOF 4
ENDMDL
