MODEL 1
REMARK VINA RESULT:    -7.659      0.000      0.000
REMARK INTER + INTRA:         -11.047
REMARK INTER:                 -10.345
REMARK INTRA:                  -0.701
REMARK UNBOUND:                -0.701
REMARK  Name = 
REMARK  6 active torsions:
REMARK  status: ('A' for Active; 'I' for Inactive)
REMARK    1  A    between atoms: C_2  and  C_20
REMARK    2  A    between atoms: N_3  and  C_4
REMARK    3  A    between atoms: C_4  and  C_5
REMARK    4  A    between atoms: C_8  and  C_9
REMARK    5  A    between atoms: C_10  and  C_11
REMARK    6  A    between atoms: C_11  and  N_12
REMARK                            x       y       z     vdW  Elec       q    Type
REMARK                         _______ _______ _______ _____ _____    ______ ____
ROOT
ATOM      1  C   UNL     1      48.635   7.406  15.294  0.00  0.00    +0.000 C 
ENDROOT
BRANCH   1   2
ATOM      2  C   UNL     1      47.893   6.879  14.099  0.00  0.00    +0.000 A 
ATOM      3  C   UNL     1      47.076   5.747  14.213  0.00  0.00    +0.000 A 
ATOM      4  C   UNL     1      46.391   5.255  13.100  0.00  0.00    +0.000 A 
ATOM      5  C   UNL     1      46.524   5.880  11.859  0.00  0.00    +0.000 A 
ATOM      6  C   UNL     1      47.326   7.015  11.736  0.00  0.00    +0.000 A 
ATOM      7  C   UNL     1      48.011   7.510  12.851  0.00  0.00    +0.000 A 
BRANCH   5   8
ATOM      8  C   UNL     1      45.822   5.353  10.732  0.00  0.00    +0.000 C 
ATOM      9  C   UNL     1      45.179   4.836   9.854  0.00  0.00    +0.000 C 
BRANCH   9  10
ATOM     10  C   UNL     1      44.302   4.141   8.899  0.00  0.00    +0.000 C 
BRANCH  10  11
ATOM     11  N   UNL     1      45.077   3.207   8.062  0.00  0.00    +0.000 NA
ATOM     12  C   UNL     1      46.186   3.895   7.381  0.00  0.00    +0.000 C 
ATOM     13  C   UNL     1      46.930   2.945   6.445  0.00  0.00    +0.000 C 
ATOM     14  C   UNL     1      47.445   1.725   7.195  0.00  0.00    +0.000 C 
ATOM     15  C   UNL     1      46.317   1.068   7.982  0.00  0.00    +0.000 C 
ATOM     16  C   UNL     1      45.581   2.082   8.863  0.00  0.00    +0.000 C 
ENDBRANCH  10  11
ENDBRANCH   9  10
ENDBRANCH   5   8
ENDBRANCH   1   2
BRANCH   1  19
ATOM     17  O   UNL     1      50.459   5.663  16.388  0.00  0.00    +0.000 OA
ATOM     18  C   UNL     1      49.381   5.800  16.962  0.00  0.00    +0.000 C 
ATOM     19  N   UNL     1      48.394   6.631  16.483  0.00  0.00    +0.000 N 
ATOM     20  H   UNL     1      47.562   6.755  17.049  0.00  0.00    +0.000 HD
BRANCH  18  21
ATOM     21  C   UNL     1      49.063   5.102  18.217  0.00  0.00    +0.000 A 
ATOM     22  N   UNL     1      49.144   3.759  18.357  0.00  0.00    +0.000 NA
ATOM     23  N   UNL     1      48.791   3.557  19.649  0.00  0.00    +0.000 N 
ATOM     24  C   UNL     1      48.454   4.695  20.322  0.00  0.00    +0.000 A 
ATOM     25  N   UNL     1      48.037   4.780  21.599  0.00  0.00    +0.000 NA
ATOM     26  C   UNL     1      47.763   6.055  21.972  0.00  0.00    +0.000 A 
ATOM     27  C   UNL     1      47.897   7.185  21.172  0.00  0.00    +0.000 A 
ATOM     28  C   UNL     1      48.348   7.032  19.861  0.00  0.00    +0.000 A 
ATOM     29  C   UNL     1      48.628   5.730  19.421  0.00  0.00    +0.000 A 
ATOM     30  H   UNL     1      48.790   2.617  20.025  0.00  0.00    +0.000 HD
ENDBRANCH  18  21
ENDBRANCH   1  19
TORSDOF 6
ENDMDL
MODEL 2
REMARK VINA RESULT:    -7.421      2.955      3.784
REMARK INTER + INTRA:         -10.725
REMARK INTER:                 -10.011
REMARK INTRA:                  -0.714
REMARK UNBOUND:                -0.701
REMARK  Name = 
REMARK  6 active torsions:
REMARK  status: ('A' for Active; 'I' for Inactive)
REMARK    1  A    between atoms: C_2  and  C_20
REMARK    2  A    between atoms: N_3  and  C_4
REMARK    3  A    between atoms: C_4  and  C_5
REMARK    4  A    between atoms: C_8  and  C_9
REMARK    5  A    between atoms: C_10  and  C_11
REMARK    6  A    between atoms: C_11  and  N_12
REMARK                            x       y       z     vdW  Elec       q    Type
REMARK                         _______ _______ _______ _____ _____    ______ ____
ROOT
ATOM      1  C   UNL     1      49.035   5.685  16.903  0.00  0.00    +0.000 C 
ENDROOT
BRANCH   1   2
ATOM      2  C   UNL     1      48.188   5.605  15.665  0.00  0.00    +0.000 A 
ATOM      3  C   UNL     1      47.296   4.541  15.484  0.00  0.00    +0.000 A 
ATOM      4  C   UNL     1      46.513   4.464  14.330  0.00  0.00    +0.000 A 
ATOM      5  C   UNL     1      46.623   5.441  13.339  0.00  0.00    +0.000 A 
ATOM      6  C   UNL     1      47.500   6.511  13.514  0.00  0.00    +0.000 A 
ATOM      7  C   UNL     1      48.283   6.590  14.671  0.00  0.00    +0.000 A 
BRANCH   5   8
ATOM      8  C   UNL     1      45.819   5.336  12.162  0.00  0.00    +0.000 C 
ATOM      9  C   UNL     1      45.064   5.197  11.235  0.00  0.00    +0.000 C 
BRANCH   9  10
ATOM     10  C   UNL     1      44.025   4.997  10.212  0.00  0.00    +0.000 C 
BRANCH  10  11
ATOM     11  N   UNL     1      44.458   3.999   9.217  0.00  0.00    +0.000 NA
ATOM     12  C   UNL     1      45.660   4.449   8.497  0.00  0.00    +0.000 C 
ATOM     13  C   UNL     1      46.051   3.456   7.405  0.00  0.00    +0.000 C 
ATOM     14  C   UNL     1      46.269   2.064   7.981  0.00  0.00    +0.000 C 
ATOM     15  C   UNL     1      45.064   1.636   8.809  0.00  0.00    +0.000 C 
ATOM     16  C   UNL     1      44.694   2.694   9.853  0.00  0.00    +0.000 C 
ENDBRANCH  10  11
ENDBRANCH   9  10
ENDBRANCH   5   8
ENDBRANCH   1   2
BRANCH   1  19
ATOM     17  O   UNL     1      48.797   3.344  18.326  0.00  0.00    +0.000 OA
ATOM     18  C   UNL     1      49.825   3.518  17.676  0.00  0.00    +0.000 C 
ATOM     19  N   UNL     1      50.050   4.666  16.949  0.00  0.00    +0.000 N 
ATOM     20  H   UNL     1      50.884   4.707  16.374  0.00  0.00    +0.000 HD
BRANCH  18  21
ATOM     21  C   UNL     1      50.893   2.509  17.606  0.00  0.00    +0.000 A 
ATOM     22  N   UNL     1      50.746   1.320  16.977  0.00  0.00    +0.000 NA
ATOM     23  N   UNL     1      51.954   0.729  17.139  0.00  0.00    +0.000 N 
ATOM     24  C   UNL     1      52.843   1.463  17.869  0.00  0.00    +0.000 A 
ATOM     25  N   UNL     1      54.096   1.103  18.207  0.00  0.00    +0.000 NA
ATOM     26  C   UNL     1      54.723   2.046  18.953  0.00  0.00    +0.000 A 
ATOM     27  C   UNL     1      54.186   3.270  19.340  0.00  0.00    +0.000 A 
ATOM     28  C   UNL     1      52.887   3.590  18.945  0.00  0.00    +0.000 A 
ATOM     29  C   UNL     1      52.189   2.639  18.186  0.00  0.00    +0.000 A 
ATOM     30  H   UNL     1      52.121  -0.184  16.734  0.00  0.00    +0.000 HD
ENDBRANCH  18  21
ENDBRANCH   1  19
TORSDOF 6
ENDMDL
MODEL 3
REMARK VINA RESULT:    -7.153      2.407      2.949
REMARK INTER + INTRA:         -10.363
REMARK INTER:                  -9.550
REMARK INTRA:                  -0.813
REMARK UNBOUND:                -0.701
REMARK  Name = 
REMARK  6 active torsions:
REMARK  status: ('A' for Active; 'I' for Inactive)
REMARK    1  A    between atoms: C_2  and  C_20
REMARK    2  A    between atoms: N_3  and  C_4
REMARK    3  A    between atoms: C_4  and  C_5
REMARK    4  A    between atoms: C_8  and  C_9
REMARK    5  A    between atoms: C_10  and  C_11
REMARK    6  A    between atoms: C_11  and  N_12
REMARK                            x       y       z     vdW  Elec       q    Type
REMARK                         _______ _______ _______ _____ _____    ______ ____
ROOT
ATOM      1  C   UNL     1      48.491   7.760  15.146  0.00  0.00    +0.000 C 
ENDROOT
BRANCH   1   2
ATOM      2  C   UNL     1      47.755   7.141  13.992  0.00  0.00    +0.000 A 
ATOM      3  C   UNL     1      47.308   5.815  14.066  0.00  0.00    +0.000 A 
ATOM      4  C   UNL     1      46.629   5.238  12.990  0.00  0.00    +0.000 A 
ATOM      5  C   UNL     1      46.400   5.974  11.826  0.00  0.00    +0.000 A 
ATOM      6  C   UNL     1      46.830   7.298  11.747  0.00  0.00    +0.000 A 
ATOM      7  C   UNL     1      47.510   7.878  12.824  0.00  0.00    +0.000 A 
BRANCH   5   8
ATOM      8  C   UNL     1      45.712   5.360  10.735  0.00  0.00    +0.000 C 
ATOM      9  C   UNL     1      45.099   4.761   9.888  0.00  0.00    +0.000 C 
BRANCH   9  10
ATOM     10  C   UNL     1      44.278   3.951   8.976  0.00  0.00    +0.000 C 
BRANCH  10  11
ATOM     11  N   UNL     1      45.130   3.146   8.082  0.00  0.00    +0.000 NA
ATOM     12  C   UNL     1      46.256   3.939   7.561  0.00  0.00    +0.000 C 
ATOM     13  C   UNL     1      47.084   3.130   6.565  0.00  0.00    +0.000 C 
ATOM     14  C   UNL     1      47.591   1.839   7.192  0.00  0.00    +0.000 C 
ATOM     15  C   UNL     1      46.439   1.063   7.819  0.00  0.00    +0.000 C 
ATOM     16  C   UNL     1      45.621   1.942   8.770  0.00  0.00    +0.000 C 
ENDBRANCH  10  11
ENDBRANCH   9  10
ENDBRANCH   5   8
ENDBRANCH   1   2
BRANCH   1  19
ATOM     17  O   UNL     1      48.852   6.993  17.761  0.00  0.00    +0.000 OA
ATOM     18  C   UNL     1      49.670   6.603  16.932  0.00  0.00    +0.000 C 
ATOM     19  N   UNL     1      49.590   6.950  15.602  0.00  0.00    +0.000 N 
ATOM     20  H   UNL     1      50.253   6.528  14.961  0.00  0.00    +0.000 HD
BRANCH  18  21
ATOM     21  C   UNL     1      50.791   5.719  17.286  0.00  0.00    +0.000 A 
ATOM     22  N   UNL     1      52.021   6.180  17.610  0.00  0.00    +0.000 NA
ATOM     23  N   UNL     1      52.718   5.050  17.878  0.00  0.00    +0.000 N 
ATOM     24  C   UNL     1      52.007   3.899  17.704  0.00  0.00    +0.000 A 
ATOM     25  N   UNL     1      52.460   2.642  17.868  0.00  0.00    +0.000 NA
ATOM     26  C   UNL     1      51.511   1.710  17.602  0.00  0.00    +0.000 A 
ATOM     27  C   UNL     1      50.200   1.968  17.217  0.00  0.00    +0.000 A 
ATOM     28  C   UNL     1      49.787   3.293  17.079  0.00  0.00    +0.000 A 
ATOM     29  C   UNL     1      50.737   4.295  17.325  0.00  0.00    +0.000 A 
ATOM     30  H   UNL     1      53.685   5.118  18.173  0.00  0.00    +0.000 HD
ENDBRANCH  18  21
ENDBRANCH   1  19
TORSDOF 6
ENDMDL
MODEL 4
REMARK VINA RESULT:    -6.973      4.866      6.410
REMARK INTER + INTRA:         -10.121
REMARK INTER:                  -9.410
REMARK INTRA:                  -0.711
REMARK UNBOUND:                -0.701
REMARK  Name = 
REMARK  6 active torsions:
REMARK  status: ('A' for Active; 'I' for Inactive)
REMARK    1  A    between atoms: C_2  and  C_20
REMARK    2  A    between atoms: N_3  and  C_4
REMARK    3  A    between atoms: C_4  and  C_5
REMARK    4  A    between atoms: C_8  and  C_9
REMARK    5  A    between atoms: C_10  and  C_11
REMARK    6  A    between atoms: C_11  and  N_12
REMARK                            x       y       z     vdW  Elec       q    Type
REMARK                         _______ _______ _______ _____ _____    ______ ____
ROOT
ATOM      1  C   UNL     1      46.564   5.445  12.925  0.00  0.00    +0.000 C 
ENDROOT
BRANCH   1   2
ATOM      2  C   UNL     1      45.898   6.732  12.532  0.00  0.00    +0.000 A 
ATOM      3  C   UNL     1      44.774   6.722  11.697  0.00  0.00    +0.000 A 
ATOM      4  C   UNL     1      44.158   7.921  11.328  0.00  0.00    +0.000 A 
ATOM      5  C   UNL     1      44.665   9.140  11.778  0.00  0.00    +0.000 A 
ATOM      6  C   UNL     1      45.777   9.161  12.620  0.00  0.00    +0.000 A 
ATOM      7  C   UNL     1      46.394   7.961  12.992  0.00  0.00    +0.000 A 
BRANCH   5   8
ATOM      8  C   UNL     1      44.025  10.354  11.380  0.00  0.00    +0.000 C 
ATOM      9  C   UNL     1      43.395  11.343  11.105  0.00  0.00    +0.000 C 
BRANCH   9  10
ATOM     10  C   UNL     1      42.527  12.512  10.893  0.00  0.00    +0.000 C 
BRANCH  10  11
ATOM     11  N   UNL     1      41.109  12.149  11.067  0.00  0.00    +0.000 NA
ATOM     12  C   UNL     1      40.713  11.082  10.132  0.00  0.00    +0.000 C 
ATOM     13  C   UNL     1      39.223  10.772  10.251  0.00  0.00    +0.000 C 
ATOM     14  C   UNL     1      38.853  10.391  11.677  0.00  0.00    +0.000 C 
ATOM     15  C   UNL     1      39.350  11.447  12.657  0.00  0.00    +0.000 C 
ATOM     16  C   UNL     1      40.838  11.746  12.455  0.00  0.00    +0.000 C 
ENDBRANCH  10  11
ENDBRANCH   9  10
ENDBRANCH   5   8
ENDBRANCH   1   2
BRANCH   1  19
ATOM     17  O   UNL     1      47.362   3.140  14.195  0.00  0.00    +0.000 OA
ATOM     18  C   UNL     1      47.200   4.146  14.882  0.00  0.00    +0.000 C 
ATOM     19  N   UNL     1      46.781   5.342  14.344  0.00  0.00    +0.000 N 
ATOM     20  H   UNL     1      46.746   6.151  14.956  0.00  0.00    +0.000 HD
BRANCH  18  21
ATOM     21  C   UNL     1      47.458   4.161  16.330  0.00  0.00    +0.000 A 
ATOM     22  N   UNL     1      46.784   3.385  17.209  0.00  0.00    +0.000 NA
ATOM     23  N   UNL     1      47.346   3.700  18.400  0.00  0.00    +0.000 N 
ATOM     24  C   UNL     1      48.311   4.661  18.327  0.00  0.00    +0.000 A 
ATOM     25  N   UNL     1      49.005   5.183  19.356  0.00  0.00    +0.000 NA
ATOM     26  C   UNL     1      49.885   6.135  18.958  0.00  0.00    +0.000 A 
ATOM     27  C   UNL     1      50.098   6.552  17.648  0.00  0.00    +0.000 A 
ATOM     28  C   UNL     1      49.358   5.962  16.625  0.00  0.00    +0.000 A 
ATOM     29  C   UNL     1      48.420   4.983  16.986  0.00  0.00    +0.000 A 
ATOM     30  H   UNL     1      47.029   3.232  19.241  0.00  0.00    +0.000 HD
ENDBRANCH  18  21
ENDBRANCH   1  19
TORSDOF 6
ENDMDL
MODEL 5
REMARK VINA RESULT:    -6.940      2.083      2.839
REMARK INTER + INTRA:         -10.076
REMARK INTER:                  -9.380
REMARK INTRA:                  -0.696
REMARK UNBOUND:                -0.701
REMARK  Name = 
REMARK  6 active torsions:
REMARK  status: ('A' for Active; 'I' for Inactive)
REMARK    1  A    between atoms: C_2  and  C_20
REMARK    2  A    between atoms: N_3  and  C_4
REMARK    3  A    between atoms: C_4  and  C_5
REMARK    4  A    between atoms: C_8  and  C_9
REMARK    5  A    between atoms: C_10  and  C_11
REMARK    6  A    between atoms: C_11  and  N_12
REMARK                            x       y       z     vdW  Elec       q    Type
REMARK                         _______ _______ _______ _____ _____    ______ ____
ROOT
ATOM      1  C   UNL     1      47.969   9.273  14.445  0.00  0.00    +0.000 C 
ENDROOT
BRANCH   1   2
ATOM      2  C   UNL     1      47.275   8.225  13.621  0.00  0.00    +0.000 A 
ATOM      3  C   UNL     1      47.781   6.920  13.563  0.00  0.00    +0.000 A 
ATOM      4  C   UNL     1      47.138   5.948  12.792  0.00  0.00    +0.000 A 
ATOM      5  C   UNL     1      45.993   6.273  12.063  0.00  0.00    +0.000 A 
ATOM      6  C   UNL     1      45.474   7.566  12.124  0.00  0.00    +0.000 A 
ATOM      7  C   UNL     1      46.116   8.540  12.897  0.00  0.00    +0.000 A 
BRANCH   5   8
ATOM      8  C   UNL     1      45.357   5.264  11.274  0.00  0.00    +0.000 C 
ATOM      9  C   UNL     1      44.926   4.386  10.572  0.00  0.00    +0.000 C 
BRANCH   9  10
ATOM     10  C   UNL     1      44.551   3.259   9.705  0.00  0.00    +0.000 C 
BRANCH  10  11
ATOM     11  N   UNL     1      45.675   2.876   8.831  0.00  0.00    +0.000 NA
ATOM     12  C   UNL     1      45.629   1.443   8.498  0.00  0.00    +0.000 C 
ATOM     13  C   UNL     1      46.843   1.031   7.669  0.00  0.00    +0.000 C 
ATOM     14  C   UNL     1      46.952   1.865   6.401  0.00  0.00    +0.000 C 
ATOM     15  C   UNL     1      46.901   3.352   6.736  0.00  0.00    +0.000 C 
ATOM     16  C   UNL     1      45.688   3.691   7.606  0.00  0.00    +0.000 C 
ENDBRANCH  10  11
ENDBRANCH   9  10
ENDBRANCH   5   8
ENDBRANCH   1   2
BRANCH   1  19
ATOM     17  O   UNL     1      49.840   9.500  16.447  0.00  0.00    +0.000 OA
ATOM     18  C   UNL     1      48.670   9.318  16.774  0.00  0.00    +0.000 C 
ATOM     19  N   UNL     1      47.663   9.169  15.848  0.00  0.00    +0.000 N 
ATOM     20  H   UNL     1      46.711   9.101  16.189  0.00  0.00    +0.000 HD
BRANCH  18  21
ATOM     21  C   UNL     1      48.246   9.261  18.181  0.00  0.00    +0.000 A 
ATOM     22  N   UNL     1      48.072  10.364  18.946  0.00  0.00    +0.000 NA
ATOM     23  N   UNL     1      47.668   9.859  20.136  0.00  0.00    +0.000 N 
ATOM     24  C   UNL     1      47.616   8.497  20.177  0.00  0.00    +0.000 A 
ATOM     25  N   UNL     1      47.282   7.737  21.237  0.00  0.00    +0.000 NA
ATOM     26  C   UNL     1      47.341   6.410  20.964  0.00  0.00    +0.000 A 
ATOM     27  C   UNL     1      47.686   5.844  19.741  0.00  0.00    +0.000 A 
ATOM     28  C   UNL     1      48.008   6.685  18.677  0.00  0.00    +0.000 A 
ATOM     29  C   UNL     1      47.979   8.068  18.913  0.00  0.00    +0.000 A 
ATOM     30  H   UNL     1      47.445  10.490  20.896  0.00  0.00    +0.000 HD
ENDBRANCH  18  21
ENDBRANCH   1  19
TORSDOF 6
ENDMDL
MODEL 6
REMARK VINA RESULT:    -6.790      5.388      8.567
REMARK INTER + INTRA:          -9.873
REMARK INTER:                  -9.011
REMARK INTRA:                  -0.862
REMARK UNBOUND:                -0.701
REMARK  Name = 
REMARK  6 active torsions:
REMARK  status: ('A' for Active; 'I' for Inactive)
REMARK    1  A    between atoms: C_2  and  C_20
REMARK    2  A    between atoms: N_3  and  C_4
REMARK    3  A    between atoms: C_4  and  C_5
REMARK    4  A    between atoms: C_8  and  C_9
REMARK    5  A    between atoms: C_10  and  C_11
REMARK    6  A    between atoms: C_11  and  N_12
REMARK                            x       y       z     vdW  Elec       q    Type
REMARK                         _______ _______ _______ _____ _____    ______ ____
ROOT
ATOM      1  C   UNL     1      45.910   8.369  12.870  0.00  0.00    +0.000 C 
ENDROOT
BRANCH   1   2
ATOM      2  C   UNL     1      47.325   8.554  12.399  0.00  0.00    +0.000 A 
ATOM      3  C   UNL     1      47.834   9.839  12.173  0.00  0.00    +0.000 A 
ATOM      4  C   UNL     1      49.148  10.010  11.730  0.00  0.00    +0.000 A 
ATOM      5  C   UNL     1      49.961   8.899  11.496  0.00  0.00    +0.000 A 
ATOM      6  C   UNL     1      49.467   7.616  11.730  0.00  0.00    +0.000 A 
ATOM      7  C   UNL     1      48.152   7.444  12.175  0.00  0.00    +0.000 A 
BRANCH   5   8
ATOM      8  C   UNL     1      51.299   9.098  11.033  0.00  0.00    +0.000 C 
ATOM      9  C   UNL     1      52.432   9.152  10.630  0.00  0.00    +0.000 C 
BRANCH   9  10
ATOM     10  C   UNL     1      53.795   9.066  10.082  0.00  0.00    +0.000 C 
BRANCH  10  11
ATOM     11  N   UNL     1      53.874   8.030   9.037  0.00  0.00    +0.000 NA
ATOM     12  C   UNL     1      53.563   6.698   9.581  0.00  0.00    +0.000 C 
ATOM     13  C   UNL     1      53.735   5.615   8.517  0.00  0.00    +0.000 C 
ATOM     14  C   UNL     1      52.873   5.903   7.297  0.00  0.00    +0.000 C 
ATOM     15  C   UNL     1      53.122   7.319   6.790  0.00  0.00    +0.000 C 
ATOM     16  C   UNL     1      52.980   8.350   7.913  0.00  0.00    +0.000 C 
ENDBRANCH  10  11
ENDBRANCH   9  10
ENDBRANCH   5   8
ENDBRANCH   1   2
BRANCH   1  19
ATOM     17  O   UNL     1      43.950   7.744  11.046  0.00  0.00    +0.000 OA
ATOM     18  C   UNL     1      44.448   6.824  11.690  0.00  0.00    +0.000 C 
ATOM     19  N   UNL     1      45.419   7.035  12.643  0.00  0.00    +0.000 N 
ATOM     20  H   UNL     1      45.841   6.223  13.079  0.00  0.00    +0.000 HD
BRANCH  18  21
ATOM     21  C   UNL     1      44.061   5.420  11.486  0.00  0.00    +0.000 A 
ATOM     22  N   UNL     1      43.252   4.745  12.335  0.00  0.00    +0.000 NA
ATOM     23  N   UNL     1      43.148   3.522  11.762  0.00  0.00    +0.000 N 
ATOM     24  C   UNL     1      43.879   3.374  10.620  0.00  0.00    +0.000 A 
ATOM     25  N   UNL     1      43.984   2.261   9.871  0.00  0.00    +0.000 NA
ATOM     26  C   UNL     1      44.801   2.429   8.802  0.00  0.00    +0.000 A 
ATOM     27  C   UNL     1      45.468   3.602   8.463  0.00  0.00    +0.000 A 
ATOM     28  C   UNL     1      45.307   4.726   9.271  0.00  0.00    +0.000 A 
ATOM     29  C   UNL     1      44.484   4.598  10.400  0.00  0.00    +0.000 A 
ATOM     30  H   UNL     1      42.567   2.815  12.197  0.00  0.00    +0.000 HD
ENDBRANCH  18  21
ENDBRANCH   1  19
TORSDOF 6
ENDMDL
MODEL 7
REMARK VINA RESULT:    -6.580      4.330      5.792
REMARK INTER + INTRA:          -9.590
REMARK INTER:                  -8.746
REMARK INTRA:                  -0.844
REMARK UNBOUND:                -0.701
REMARK  Name = 
REMARK  6 active torsions:
REMARK  status: ('A' for Active; 'I' for Inactive)
REMARK    1  A    between atoms: C_2  and  C_20
REMARK    2  A    between atoms: N_3  and  C_4
REMARK    3  A    between atoms: C_4  and  C_5
REMARK    4  A    between atoms: C_8  and  C_9
REMARK    5  A    between atoms: C_10  and  C_11
REMARK    6  A    between atoms: C_11  and  N_12
REMARK                            x       y       z     vdW  Elec       q    Type
REMARK                         _______ _______ _______ _____ _____    ______ ____
ROOT
ATOM      1  C   UNL     1      45.573   4.937  13.092  0.00  0.00    +0.000 C 
ENDROOT
BRANCH   1   2
ATOM      2  C   UNL     1      45.492   6.379  12.681  0.00  0.00    +0.000 A 
ATOM      3  C   UNL     1      46.353   7.328  13.249  0.00  0.00    +0.000 A 
ATOM      4  C   UNL     1      46.273   8.670  12.870  0.00  0.00    +0.000 A 
ATOM      5  C   UNL     1      45.325   9.080  11.931  0.00  0.00    +0.000 A 
ATOM      6  C   UNL     1      44.472   8.142  11.350  0.00  0.00    +0.000 A 
ATOM      7  C   UNL     1      44.552   6.797  11.728  0.00  0.00    +0.000 A 
BRANCH   5   8
ATOM      8  C   UNL     1      45.255  10.460  11.565  0.00  0.00    +0.000 C 
ATOM      9  C   UNL     1      45.173  11.588  11.152  0.00  0.00    +0.000 C 
BRANCH   9  10
ATOM     10  C   UNL     1      44.999  12.903  10.516  0.00  0.00    +0.000 C 
BRANCH  10  11
ATOM     11  N   UNL     1      44.664  12.753   9.088  0.00  0.00    +0.000 NA
ATOM     12  C   UNL     1      45.775  12.141   8.341  0.00  0.00    +0.000 C 
ATOM     13  C   UNL     1      45.462  12.071   6.848  0.00  0.00    +0.000 C 
ATOM     14  C   UNL     1      44.169  11.309   6.593  0.00  0.00    +0.000 C 
ATOM     15  C   UNL     1      43.038  11.880   7.441  0.00  0.00    +0.000 C 
ATOM     16  C   UNL     1      43.433  11.968   8.918  0.00  0.00    +0.000 C 
ENDBRANCH  10  11
ENDBRANCH   9  10
ENDBRANCH   5   8
ENDBRANCH   1   2
BRANCH   1  19
ATOM     17  O   UNL     1      47.720   3.467  13.982  0.00  0.00    +0.000 OA
ATOM     18  C   UNL     1      47.025   4.033  14.822  0.00  0.00    +0.000 C 
ATOM     19  N   UNL     1      45.916   4.774  14.480  0.00  0.00    +0.000 N 
ATOM     20  H   UNL     1      45.437   5.278  15.218  0.00  0.00    +0.000 HD
BRANCH  18  21
ATOM     21  C   UNL     1      47.330   3.981  16.260  0.00  0.00    +0.000 A 
ATOM     22  N   UNL     1      46.719   3.129  17.115  0.00  0.00    +0.000 NA
ATOM     23  N   UNL     1      47.306   3.403  18.304  0.00  0.00    +0.000 N 
ATOM     24  C   UNL     1      48.226   4.409  18.255  0.00  0.00    +0.000 A 
ATOM     25  N   UNL     1      48.932   4.905  19.289  0.00  0.00    +0.000 NA
ATOM     26  C   UNL     1      49.757   5.915  18.918  0.00  0.00    +0.000 A 
ATOM     27  C   UNL     1      49.909   6.411  17.628  0.00  0.00    +0.000 A 
ATOM     28  C   UNL     1      49.161   5.845  16.596  0.00  0.00    +0.000 A 
ATOM     29  C   UNL     1      48.278   4.808  16.931  0.00  0.00    +0.000 A 
ATOM     30  H   UNL     1      47.038   2.877  19.127  0.00  0.00    +0.000 HD
ENDBRANCH  18  21
ENDBRANCH   1  19
TORSDOF 6
ENDMDL
MODEL 8
REMARK VINA RESULT:    -6.222      2.251      2.661
REMARK INTER + INTRA:          -9.106
REMARK INTER:                  -8.343
REMARK INTRA:                  -0.762
REMARK UNBOUND:                -0.701
REMARK  Name = 
REMARK  6 active torsions:
REMARK  status: ('A' for Active; 'I' for Inactive)
REMARK    1  A    between atoms: C_2  and  C_20
REMARK    2  A    between atoms: N_3  and  C_4
REMARK    3  A    between atoms: C_4  and  C_5
REMARK    4  A    between atoms: C_8  and  C_9
REMARK    5  A    between atoms: C_10  and  C_11
REMARK    6  A    between atoms: C_11  and  N_12
REMARK                            x       y       z     vdW  Elec       q    Type
REMARK                         _______ _______ _______ _____ _____    ______ ____
ROOT
ATOM      1  C   UNL     1      50.173   7.797  14.518  0.00  0.00    +0.000 C 
ENDROOT
BRANCH   1   2
ATOM      2  C   UNL     1      49.009   7.212  13.771  0.00  0.00    +0.000 A 
ATOM      3  C   UNL     1      48.205   6.232  14.367  0.00  0.00    +0.000 A 
ATOM      4  C   UNL     1      47.125   5.685  13.669  0.00  0.00    +0.000 A 
ATOM      5  C   UNL     1      46.846   6.101  12.366  0.00  0.00    +0.000 A 
ATOM      6  C   UNL     1      47.633   7.085  11.768  0.00  0.00    +0.000 A 
ATOM      7  C   UNL     1      48.714   7.635  12.466  0.00  0.00    +0.000 A 
BRANCH   5   8
ATOM      8  C   UNL     1      45.742   5.520  11.668  0.00  0.00    +0.000 C 
ATOM      9  C   UNL     1      44.837   5.101  10.993  0.00  0.00    +0.000 C 
BRANCH   9  10
ATOM     10  C   UNL     1      43.805   4.659  10.043  0.00  0.00    +0.000 C 
BRANCH  10  11
ATOM     11  N   UNL     1      44.370   3.718   9.058  0.00  0.00    +0.000 NA
ATOM     12  C   UNL     1      45.470   4.335   8.300  0.00  0.00    +0.000 C 
ATOM     13  C   UNL     1      45.992   3.390   7.219  0.00  0.00    +0.000 C 
ATOM     14  C   UNL     1      46.440   2.065   7.819  0.00  0.00    +0.000 C 
ATOM     15  C   UNL     1      45.336   1.472   8.685  0.00  0.00    +0.000 C 
ATOM     16  C   UNL     1      44.825   2.483   9.715  0.00  0.00    +0.000 C 
ENDBRANCH  10  11
ENDBRANCH   9  10
ENDBRANCH   5   8
ENDBRANCH   1   2
BRANCH   1  19
ATOM     17  O   UNL     1      50.492   6.849  17.080  0.00  0.00    +0.000 OA
ATOM     18  C   UNL     1      49.993   7.963  16.939  0.00  0.00    +0.000 C 
ATOM     19  N   UNL     1      49.771   8.517  15.698  0.00  0.00    +0.000 N 
ATOM     20  H   UNL     1      49.430   9.471  15.658  0.00  0.00    +0.000 HD
BRANCH  18  21
ATOM     21  C   UNL     1      49.608   8.804  18.082  0.00  0.00    +0.000 A 
ATOM     22  N   UNL     1      49.994  10.095  18.213  0.00  0.00    +0.000 NA
ATOM     23  N   UNL     1      49.409  10.479  19.373  0.00  0.00    +0.000 N 
ATOM     24  C   UNL     1      48.709   9.492  20.001  0.00  0.00    +0.000 A 
ATOM     25  N   UNL     1      48.061   9.589  21.178  0.00  0.00    +0.000 NA
ATOM     26  C   UNL     1      47.472   8.424  21.544  0.00  0.00    +0.000 A 
ATOM     27  C   UNL     1      47.489   7.238  20.817  0.00  0.00    +0.000 A 
ATOM     28  C   UNL     1      48.165   7.205  19.598  0.00  0.00    +0.000 A 
ATOM     29  C   UNL     1      48.807   8.381  19.183  0.00  0.00    +0.000 A 
ATOM     30  H   UNL     1      49.525  11.431  19.699  0.00  0.00    +0.000 HD
ENDBRANCH  18  21
ENDBRANCH   1  19
TORSDOF 6
ENDMDL
MODEL 9
REMARK VINA RESULT:    -6.185      2.550     10.120
REMARK INTER + INTRA:          -9.056
REMARK INTER:                  -8.253
REMARK INTRA:                  -0.803
REMARK UNBOUND:                -0.701
REMARK  Name = 
REMARK  6 active torsions:
REMARK  status: ('A' for Active; 'I' for Inactive)
REMARK    1  A    between atoms: C_2  and  C_20
REMARK    2  A    between atoms: N_3  and  C_4
REMARK    3  A    between atoms: C_4  and  C_5
REMARK    4  A    between atoms: C_8  and  C_9
REMARK    5  A    between atoms: C_10  and  C_11
REMARK    6  A    between atoms: C_11  and  N_12
REMARK                            x       y       z     vdW  Elec       q    Type
REMARK                         _______ _______ _______ _____ _____    ______ ____
ROOT
ATOM      1  C   UNL     1      47.953   7.745  12.476  0.00  0.00    +0.000 C 
ENDROOT
BRANCH   1   2
ATOM      2  C   UNL     1      48.483   7.906  13.872  0.00  0.00    +0.000 A 
ATOM      3  C   UNL     1      49.608   7.184  14.291  0.00  0.00    +0.000 A 
ATOM      4  C   UNL     1      50.097   7.330  15.592  0.00  0.00    +0.000 A 
ATOM      5  C   UNL     1      49.461   8.188  16.490  0.00  0.00    +0.000 A 
ATOM      6  C   UNL     1      48.347   8.921  16.079  0.00  0.00    +0.000 A 
ATOM      7  C   UNL     1      47.858   8.777  14.777  0.00  0.00    +0.000 A 
BRANCH   5   8
ATOM      8  C   UNL     1      49.972   8.315  17.818  0.00  0.00    +0.000 C 
ATOM      9  C   UNL     1      50.342   8.329  18.964  0.00  0.00    +0.000 C 
BRANCH   9  10
ATOM     10  C   UNL     1      50.737   8.194  20.375  0.00  0.00    +0.000 C 
BRANCH  10  11
ATOM     11  N   UNL     1      49.743   7.404  21.123  0.00  0.00    +0.000 NA
ATOM     12  C   UNL     1      48.413   8.034  21.074  0.00  0.00    +0.000 C 
ATOM     13  C   UNL     1      47.407   7.263  21.925  0.00  0.00    +0.000 C 
ATOM     14  C   UNL     1      47.320   5.807  21.489  0.00  0.00    +0.000 C 
ATOM     15  C   UNL     1      48.709   5.181  21.445  0.00  0.00    +0.000 C 
ATOM     16  C   UNL     1      49.681   6.025  20.616  0.00  0.00    +0.000 C 
ENDBRANCH  10  11
ENDBRANCH   9  10
ENDBRANCH   5   8
ENDBRANCH   1   2
BRANCH   1  19
ATOM     17  O   UNL     1      45.257   7.287  12.764  0.00  0.00    +0.000 OA
ATOM     18  C   UNL     1      45.964   6.345  12.415  0.00  0.00    +0.000 C 
ATOM     19  N   UNL     1      47.327   6.466  12.264  0.00  0.00    +0.000 N 
ATOM     20  H   UNL     1      47.837   5.669  11.897  0.00  0.00    +0.000 HD
BRANCH  18  21
ATOM     21  C   UNL     1      45.412   5.016  12.111  0.00  0.00    +0.000 A 
ATOM     22  N   UNL     1      45.042   4.134  13.068  0.00  0.00    +0.000 NA
ATOM     23  N   UNL     1      44.581   3.077  12.357  0.00  0.00    +0.000 N 
ATOM     24  C   UNL     1      44.676   3.227  11.005  0.00  0.00    +0.000 A 
ATOM     25  N   UNL     1      44.325   2.325  10.069  0.00  0.00    +0.000 NA
ATOM     26  C   UNL     1      44.556   2.768   8.808  0.00  0.00    +0.000 A 
ATOM     27  C   UNL     1      45.081   4.010   8.464  0.00  0.00    +0.000 A 
ATOM     28  C   UNL     1      45.412   4.906   9.479  0.00  0.00    +0.000 A 
ATOM     29  C   UNL     1      45.207   4.489  10.803  0.00  0.00    +0.000 A 
ATOM     30  H   UNL     1      44.216   2.268  12.846  0.00  0.00    +0.000 HD
ENDBRANCH  18  21
ENDBRANCH   1  19
TORSDOF 6
ENDMDL
