MODEL 1
REMARK VINA RESULT:    -7.714      0.000      0.000
REMARK INTER + INTRA:         -10.533
REMARK INTER:                  -9.969
REMARK INTRA:                  -0.564
REMARK UNBOUND:                -0.564
REMARK  Name = 
REMARK  5 active torsions:
REMARK  status: ('A' for Active; 'I' for Inactive)
REMARK    1  A    between atoms: C_2  and  C_4
REMARK    2  A    between atoms: C_8  and  C_9
REMARK    3  A    between atoms: C_9  and  O_10
REMARK    4  A    between atoms: O_10  and  C_11
REMARK    5  A    between atoms: C_16  and  C_17
REMARK                            x       y       z     vdW  Elec       q    Type
REMARK                         _______ _______ _______ _____ _____    ______ ____
ROOT
ATOM      1  C   UNL     1      45.474   5.002  11.964  0.00  0.00    +0.000 A 
ATOM      2  C   UNL     1      45.836   4.028  12.883  0.00  0.00    +0.000 A 
ATOM      3  C   UNL     1      46.830   4.321  13.811  0.00  0.00    +0.000 A 
ATOM      4  F   UNL     1      47.189   3.390  14.706  0.00  0.00    +0.000 F 
ATOM      5  C   UNL     1      47.449   5.573  13.847  0.00  0.00    +0.000 A 
ATOM      6  C   UNL     1      47.089   6.568  12.929  0.00  0.00    +0.000 A 
ATOM      7  C   UNL     1      46.143   6.227  11.960  0.00  0.00    +0.000 A 
ENDROOT
BRANCH   6   8
ATOM      8  C   UNL     1      47.713   7.959  12.982  0.00  0.00    +0.000 C 
ATOM      9  C   UNL     1      48.543   8.273  11.724  0.00  0.00    +0.000 C 
ATOM     10  C   UNL     1      49.913   7.592  11.733  0.00  0.00    +0.000 C 
ATOM     11  N   UNL     1      50.696   7.907  12.927  0.00  0.00    +0.000 NA
ATOM     12  C   UNL     1      49.978   7.612  14.163  0.00  0.00    +0.000 C 
ATOM     13  C   UNL     1      48.589   8.264  14.220  0.00  0.00    +0.000 C 
ATOM     14  H   UNL     1      50.942   8.899  12.914  0.00  0.00    +0.000 HD
ENDBRANCH   6   8
BRANCH   1  15
ATOM     15  O   UNL     1      44.455   4.716  11.093  0.00  0.00    +0.000 OA
BRANCH  15  16
ATOM     16  C   UNL     1      44.768   5.024   9.730  0.00  0.00    +0.000 C 
BRANCH  16  21
ATOM     17  C   UNL     1      46.548   2.725   7.301  0.00  0.00    +0.000 A 
ATOM     18  C   UNL     1      46.142   1.509   7.834  0.00  0.00    +0.000 A 
ATOM     19  N   UNL     1      45.364   1.389   8.938  0.00  0.00    +0.000 NA
ATOM     20  C   UNL     1      44.946   2.536   9.513  0.00  0.00    +0.000 A 
ATOM     21  C   UNL     1      45.272   3.801   9.038  0.00  0.00    +0.000 A 
ATOM     22  C   UNL     1      46.095   3.892   7.911  0.00  0.00    +0.000 A 
BRANCH  17  24
ATOM     23  N   UNL     1      48.760   2.511   6.319  0.00  0.00    +0.000 N 
ATOM     24  C   UNL     1      47.423   2.734   6.114  0.00  0.00    +0.000 C 
ATOM     25  O   UNL     1      46.972   2.896   4.988  0.00  0.00    +0.000 OA
ATOM     26  H   UNL     1      49.322   2.414   5.486  0.00  0.00    +0.000 HD
ATOM     27  H   UNL     1      49.121   2.128   7.181  0.00  0.00    +0.000 HD
ENDBRANCH  17  24
ENDBRANCH  16  21
ENDBRANCH  15  16
ENDBRANCH   1  15
TORSDOF 5
ENDMDL
MODEL 2
REMARK VINA RESULT:    -7.315      1.178      1.706
REMARK INTER + INTRA:         -10.018
REMARK INTER:                  -9.380
REMARK INTRA:                  -0.638
REMARK UNBOUND:                -0.564
REMARK  Name = 
REMARK  5 active torsions:
REMARK  status: ('A' for Active; 'I' for Inactive)
REMARK    1  A    between atoms: C_2  and  C_4
REMARK    2  A    between atoms: C_8  and  C_9
REMARK    3  A    between atoms: C_9  and  O_10
REMARK    4  A    between atoms: O_10  and  C_11
REMARK    5  A    between atoms: C_16  and  C_17
REMARK                            x       y       z     vdW  Elec       q    Type
REMARK                         _______ _______ _______ _____ _____    ______ ____
ROOT
ATOM      1  C   UNL     1      45.966   5.800  11.019  0.00  0.00    +0.000 A 
ATOM      2  C   UNL     1      45.484   5.050  12.082  0.00  0.00    +0.000 A 
ATOM      3  C   UNL     1      46.135   5.132  13.308  0.00  0.00    +0.000 A 
ATOM      4  F   UNL     1      45.680   4.414  14.343  0.00  0.00    +0.000 F 
ATOM      5  C   UNL     1      47.242   5.965  13.492  0.00  0.00    +0.000 A 
ATOM      6  C   UNL     1      47.736   6.733  12.429  0.00  0.00    +0.000 A 
ATOM      7  C   UNL     1      47.112   6.578  11.189  0.00  0.00    +0.000 A 
ENDROOT
BRANCH   6   8
ATOM      8  C   UNL     1      48.909   7.688  12.620  0.00  0.00    +0.000 C 
ATOM      9  C   UNL     1      49.121   8.061  14.098  0.00  0.00    +0.000 C 
ATOM     10  C   UNL     1      48.117   9.101  14.597  0.00  0.00    +0.000 C 
ATOM     11  N   UNL     1      48.104  10.315  13.783  0.00  0.00    +0.000 NA
ATOM     12  C   UNL     1      47.884  10.040  12.367  0.00  0.00    +0.000 C 
ATOM     13  C   UNL     1      48.860   8.999  11.800  0.00  0.00    +0.000 C 
ATOM     14  H   UNL     1      48.998  10.801  13.893  0.00  0.00    +0.000 HD
ENDBRANCH   6   8
BRANCH   1  15
ATOM     15  O   UNL     1      45.279   5.750   9.833  0.00  0.00    +0.000 OA
BRANCH  15  16
ATOM     16  C   UNL     1      44.391   4.632   9.737  0.00  0.00    +0.000 C 
BRANCH  16  21
ATOM     17  C   UNL     1      46.509   2.667   7.286  0.00  0.00    +0.000 A 
ATOM     18  C   UNL     1      46.260   1.391   7.775  0.00  0.00    +0.000 A 
ATOM     19  N   UNL     1      45.485   1.134   8.858  0.00  0.00    +0.000 NA
ATOM     20  C   UNL     1      44.906   2.197   9.454  0.00  0.00    +0.000 A 
ATOM     21  C   UNL     1      45.067   3.508   9.023  0.00  0.00    +0.000 A 
ATOM     22  C   UNL     1      45.892   3.743   7.917  0.00  0.00    +0.000 A 
BRANCH  17  24
ATOM     23  N   UNL     1      48.736   2.611   6.317  0.00  0.00    +0.000 N 
ATOM     24  C   UNL     1      47.398   2.829   6.120  0.00  0.00    +0.000 C 
ATOM     25  O   UNL     1      46.956   3.109   5.014  0.00  0.00    +0.000 OA
ATOM     26  H   UNL     1      49.310   2.622   5.486  0.00  0.00    +0.000 HD
ATOM     27  H   UNL     1      49.096   2.140   7.135  0.00  0.00    +0.000 HD
ENDBRANCH  17  24
ENDBRANCH  16  21
ENDBRANCH  15  16
ENDBRANCH   1  15
TORSDOF 5
ENDMDL
MODEL 3
REMARK VINA RESULT:    -7.106      4.144      8.101
REMARK INTER + INTRA:          -9.747
REMARK INTER:                  -9.510
REMARK INTRA:                  -0.236
REMARK UNBOUND:                -0.564
REMARK  Name = 
REMARK  5 active torsions:
REMARK  status: ('A' for Active; 'I' for Inactive)
REMARK    1  A    between atoms: C_2  and  C_4
REMARK    2  A    between atoms: C_8  and  C_9
REMARK    3  A    between atoms: C_9  and  O_10
REMARK    4  A    between atoms: O_10  and  C_11
REMARK    5  A    between atoms: C_16  and  C_17
REMARK                            x       y       z     vdW  Elec       q    Type
REMARK                         _______ _______ _______ _____ _____    ______ ____
ROOT
ATOM      1  C   UNL     1      46.957   4.592  13.676  0.00  0.00    +0.000 A 
ATOM      2  C   UNL     1      47.691   5.759  13.529  0.00  0.00    +0.000 A 
ATOM      3  C   UNL     1      47.317   6.666  12.544  0.00  0.00    +0.000 A 
ATOM      4  F   UNL     1      48.016   7.798  12.391  0.00  0.00    +0.000 F 
ATOM      5  C   UNL     1      46.211   6.434  11.722  0.00  0.00    +0.000 A 
ATOM      6  C   UNL     1      45.456   5.262  11.863  0.00  0.00    +0.000 A 
ATOM      7  C   UNL     1      45.896   4.333  12.808  0.00  0.00    +0.000 A 
ENDROOT
BRANCH   6   8
ATOM      8  C   UNL     1      44.215   5.012  11.012  0.00  0.00    +0.000 C 
ATOM      9  C   UNL     1      43.123   4.253  11.787  0.00  0.00    +0.000 C 
ATOM     10  C   UNL     1      43.415   2.756  11.908  0.00  0.00    +0.000 C 
ATOM     11  N   UNL     1      43.634   2.113  10.613  0.00  0.00    +0.000 NA
ATOM     12  C   UNL     1      44.676   2.768   9.830  0.00  0.00    +0.000 C 
ATOM     13  C   UNL     1      44.447   4.278   9.670  0.00  0.00    +0.000 C 
ATOM     14  H   UNL     1      42.760   2.125  10.081  0.00  0.00    +0.000 HD
ENDBRANCH   6   8
BRANCH   1  15
ATOM     15  O   UNL     1      47.307   3.736  14.688  0.00  0.00    +0.000 OA
BRANCH  15  16
ATOM     16  C   UNL     1      47.017   4.247  15.993  0.00  0.00    +0.000 C 
BRANCH  16  21
ATOM     17  C   UNL     1      50.260   3.119  17.593  0.00  0.00    +0.000 A 
ATOM     18  C   UNL     1      50.474   4.214  18.421  0.00  0.00    +0.000 A 
ATOM     19  N   UNL     1      49.658   5.297  18.467  0.00  0.00    +0.000 NA
ATOM     20  C   UNL     1      48.565   5.267  17.677  0.00  0.00    +0.000 A 
ATOM     21  C   UNL     1      48.248   4.206  16.837  0.00  0.00    +0.000 A 
ATOM     22  C   UNL     1      49.120   3.113  16.795  0.00  0.00    +0.000 A 
BRANCH  17  24
ATOM     23  N   UNL     1      52.317   2.135  18.433  0.00  0.00    +0.000 N 
ATOM     24  C   UNL     1      51.234   2.011  17.603  0.00  0.00    +0.000 C 
ATOM     25  O   UNL     1      51.064   1.006  16.926  0.00  0.00    +0.000 OA
ATOM     26  H   UNL     1      52.911   1.322  18.504  0.00  0.00    +0.000 HD
ATOM     27  H   UNL     1      52.356   2.817  19.178  0.00  0.00    +0.000 HD
ENDBRANCH  17  24
ENDBRANCH  16  21
ENDBRANCH  15  16
ENDBRANCH   1  15
TORSDOF 5
ENDMDL
MODEL 4
REMARK VINA RESULT:    -6.995      4.100      7.899
REMARK INTER + INTRA:          -9.604
REMARK INTER:                  -8.849
REMARK INTRA:                  -0.756
REMARK UNBOUND:                -0.564
REMARK  Name = 
REMARK  5 active torsions:
REMARK  status: ('A' for Active; 'I' for Inactive)
REMARK    1  A    between atoms: C_2  and  C_4
REMARK    2  A    between atoms: C_8  and  C_9
REMARK    3  A    between atoms: C_9  and  O_10
REMARK    4  A    between atoms: O_10  and  C_11
REMARK    5  A    between atoms: C_16  and  C_17
REMARK                            x       y       z     vdW  Elec       q    Type
REMARK                         _______ _______ _______ _____ _____    ______ ____
ROOT
ATOM      1  C   UNL     1      47.313   7.227  12.882  0.00  0.00    +0.000 A 
ATOM      2  C   UNL     1      46.826   8.521  12.989  0.00  0.00    +0.000 A 
ATOM      3  C   UNL     1      45.594   8.821  12.417  0.00  0.00    +0.000 A 
ATOM      4  F   UNL     1      45.111  10.067  12.514  0.00  0.00    +0.000 F 
ATOM      5  C   UNL     1      44.837   7.848  11.762  0.00  0.00    +0.000 A 
ATOM      6  C   UNL     1      45.314   6.534  11.652  0.00  0.00    +0.000 A 
ATOM      7  C   UNL     1      46.585   6.274  12.168  0.00  0.00    +0.000 A 
ENDROOT
BRANCH   6   8
ATOM      8  C   UNL     1      44.482   5.442  10.987  0.00  0.00    +0.000 C 
ATOM      9  C   UNL     1      43.066   5.346  11.583  0.00  0.00    +0.000 C 
ATOM     10  C   UNL     1      43.039   4.628  12.934  0.00  0.00    +0.000 C 
ATOM     11  N   UNL     1      43.639   3.296  12.881  0.00  0.00    +0.000 NA
ATOM     12  C   UNL     1      44.997   3.313  12.345  0.00  0.00    +0.000 C 
ATOM     13  C   UNL     1      45.097   4.023  10.988  0.00  0.00    +0.000 C 
ATOM     14  H   UNL     1      43.059   2.690  12.296  0.00  0.00    +0.000 HD
ENDBRANCH   6   8
BRANCH   1  15
ATOM     15  O   UNL     1      48.502   6.935  13.498  0.00  0.00    +0.000 OA
BRANCH  15  16
ATOM     16  C   UNL     1      48.628   7.518  14.800  0.00  0.00    +0.000 C 
BRANCH  16  21
ATOM     17  C   UNL     1      48.643   4.581  17.194  0.00  0.00    +0.000 A 
ATOM     18  C   UNL     1      49.981   4.623  17.564  0.00  0.00    +0.000 A 
ATOM     19  N   UNL     1      50.875   5.513  17.066  0.00  0.00    +0.000 NA
ATOM     20  C   UNL     1      50.402   6.421  16.186  0.00  0.00    +0.000 A 
ATOM     21  C   UNL     1      49.075   6.480  15.777  0.00  0.00    +0.000 A 
ATOM     22  C   UNL     1      48.181   5.534  16.291  0.00  0.00    +0.000 A 
BRANCH  17  24
ATOM     23  N   UNL     1      48.211   2.919  18.913  0.00  0.00    +0.000 N 
ATOM     24  C   UNL     1      47.769   3.546  17.777  0.00  0.00    +0.000 C 
ATOM     25  O   UNL     1      46.678   3.282  17.290  0.00  0.00    +0.000 OA
ATOM     26  H   UNL     1      47.552   2.294  19.355  0.00  0.00    +0.000 HD
ATOM     27  H   UNL     1      48.969   3.282  19.475  0.00  0.00    +0.000 HD
ENDBRANCH  17  24
ENDBRANCH  16  21
ENDBRANCH  15  16
ENDBRANCH   1  15
TORSDOF 5
ENDMDL
MODEL 5
REMARK VINA RESULT:    -6.620      4.692      8.129
REMARK INTER + INTRA:          -9.119
REMARK INTER:                  -8.921
REMARK INTRA:                  -0.199
REMARK UNBOUND:                -0.564
REMARK  Name = 
REMARK  5 active torsions:
REMARK  status: ('A' for Active; 'I' for Inactive)
REMARK    1  A    between atoms: C_2  and  C_4
REMARK    2  A    between atoms: C_8  and  C_9
REMARK    3  A    between atoms: C_9  and  O_10
REMARK    4  A    between atoms: O_10  and  C_11
REMARK    5  A    between atoms: C_16  and  C_17
REMARK                            x       y       z     vdW  Elec       q    Type
REMARK                         _______ _______ _______ _____ _____    ______ ____
ROOT
ATOM      1  C   UNL     1      47.771   5.877  14.468  0.00  0.00    +0.000 A 
ATOM      2  C   UNL     1      48.245   6.766  13.515  0.00  0.00    +0.000 A 
ATOM      3  C   UNL     1      47.594   6.844  12.290  0.00  0.00    +0.000 A 
ATOM      4  F   UNL     1      48.041   7.700  11.360  0.00  0.00    +0.000 F 
ATOM      5  C   UNL     1      46.468   6.066  12.011  0.00  0.00    +0.000 A 
ATOM      6  C   UNL     1      45.973   5.167  12.966  0.00  0.00    +0.000 A 
ATOM      7  C   UNL     1      46.688   5.053  14.161  0.00  0.00    +0.000 A 
ENDROOT
BRANCH   6   8
ATOM      8  C   UNL     1      44.715   4.345  12.704  0.00  0.00    +0.000 C 
ATOM      9  C   UNL     1      44.790   3.575  11.374  0.00  0.00    +0.000 C 
ATOM     10  C   UNL     1      44.533   4.466  10.158  0.00  0.00    +0.000 C 
ATOM     11  N   UNL     1      43.261   5.183  10.238  0.00  0.00    +0.000 NA
ATOM     12  C   UNL     1      43.129   5.957  11.467  0.00  0.00    +0.000 C 
ATOM     13  C   UNL     1      43.378   5.122  12.732  0.00  0.00    +0.000 C 
ATOM     14  H   UNL     1      42.494   4.509  10.184  0.00  0.00    +0.000 HD
ENDBRANCH   6   8
BRANCH   1  15
ATOM     15  O   UNL     1      48.391   5.853  15.690  0.00  0.00    +0.000 OA
BRANCH  15  16
ATOM     16  C   UNL     1      47.898   4.828  16.559  0.00  0.00    +0.000 C 
BRANCH  16  21
ATOM     17  C   UNL     1      51.046   3.095  17.758  0.00  0.00    +0.000 A 
ATOM     18  C   UNL     1      50.854   1.866  17.139  0.00  0.00    +0.000 A 
ATOM     19  N   UNL     1      49.764   1.558  16.393  0.00  0.00    +0.000 NA
ATOM     20  C   UNL     1      48.844   2.532  16.233  0.00  0.00    +0.000 A 
ATOM     21  C   UNL     1      48.960   3.802  16.785  0.00  0.00    +0.000 A 
ATOM     22  C   UNL     1      50.085   4.082  17.568  0.00  0.00    +0.000 A 
BRANCH  17  24
ATOM     23  N   UNL     1      52.145   4.139  19.657  0.00  0.00    +0.000 N 
ATOM     24  C   UNL     1      52.257   3.306  18.574  0.00  0.00    +0.000 C 
ATOM     25  O   UNL     1      53.308   2.734  18.319  0.00  0.00    +0.000 OA
ATOM     26  H   UNL     1      52.953   4.185  20.261  0.00  0.00    +0.000 HD
ATOM     27  H   UNL     1      51.252   4.419  20.038  0.00  0.00    +0.000 HD
ENDBRANCH  17  24
ENDBRANCH  16  21
ENDBRANCH  15  16
ENDBRANCH   1  15
TORSDOF 5
ENDMDL
MODEL 6
REMARK VINA RESULT:    -6.585      3.490      7.315
REMARK INTER + INTRA:          -9.074
REMARK INTER:                  -8.816
REMARK INTRA:                  -0.258
REMARK UNBOUND:                -0.564
REMARK  Name = 
REMARK  5 active torsions:
REMARK  status: ('A' for Active; 'I' for Inactive)
REMARK    1  A    between atoms: C_2  and  C_4
REMARK    2  A    between atoms: C_8  and  C_9
REMARK    3  A    between atoms: C_9  and  O_10
REMARK    4  A    between atoms: O_10  and  C_11
REMARK    5  A    between atoms: C_16  and  C_17
REMARK                            x       y       z     vdW  Elec       q    Type
REMARK                         _______ _______ _______ _____ _____    ______ ____
ROOT
ATOM      1  C   UNL     1      47.301   6.783  12.222  0.00  0.00    +0.000 A 
ATOM      2  C   UNL     1      47.518   6.031  13.368  0.00  0.00    +0.000 A 
ATOM      3  C   UNL     1      46.663   4.970  13.643  0.00  0.00    +0.000 A 
ATOM      4  F   UNL     1      46.861   4.234  14.745  0.00  0.00    +0.000 F 
ATOM      5  C   UNL     1      45.612   4.637  12.784  0.00  0.00    +0.000 A 
ATOM      6  C   UNL     1      45.385   5.384  11.620  0.00  0.00    +0.000 A 
ATOM      7  C   UNL     1      46.210   6.490  11.403  0.00  0.00    +0.000 A 
ENDROOT
BRANCH   6   8
ATOM      8  C   UNL     1      44.277   5.008  10.641  0.00  0.00    +0.000 C 
ATOM      9  C   UNL     1      43.106   4.290  11.336  0.00  0.00    +0.000 C 
ATOM     10  C   UNL     1      43.412   2.823  11.647  0.00  0.00    +0.000 C 
ATOM     11  N   UNL     1      43.819   2.065  10.465  0.00  0.00    +0.000 NA
ATOM     12  C   UNL     1      44.944   2.677   9.766  0.00  0.00    +0.000 C 
ATOM     13  C   UNL     1      44.706   4.155   9.424  0.00  0.00    +0.000 C 
ATOM     14  H   UNL     1      43.027   1.994   9.823  0.00  0.00    +0.000 HD
ENDBRANCH   6   8
BRANCH   1  15
ATOM     15  O   UNL     1      48.186   7.790  11.938  0.00  0.00    +0.000 OA
BRANCH  15  16
ATOM     16  C   UNL     1      47.990   8.963  12.736  0.00  0.00    +0.000 C 
BRANCH  16  21
ATOM     17  C   UNL     1      44.885  10.709  11.445  0.00  0.00    +0.000 A 
ATOM     18  C   UNL     1      45.503  11.693  10.684  0.00  0.00    +0.000 A 
ATOM     19  N   UNL     1      46.848  11.844  10.592  0.00  0.00    +0.000 NA
ATOM     20  C   UNL     1      47.606  10.951  11.262  0.00  0.00    +0.000 A 
ATOM     21  C   UNL     1      47.084   9.913  12.024  0.00  0.00    +0.000 A 
ATOM     22  C   UNL     1      45.693   9.797  12.119  0.00  0.00    +0.000 A 
BRANCH  17  24
ATOM     23  N   UNL     1      42.799   9.576  10.926  0.00  0.00    +0.000 N 
ATOM     24  C   UNL     1      43.412  10.661  11.498  0.00  0.00    +0.000 C 
ATOM     25  O   UNL     1      42.764  11.533  12.060  0.00  0.00    +0.000 OA
ATOM     26  H   UNL     1      41.802   9.510  11.068  0.00  0.00    +0.000 HD
ATOM     27  H   UNL     1      43.300   8.732  10.686  0.00  0.00    +0.000 HD
ENDBRANCH  17  24
ENDBRANCH  16  21
ENDBRANCH  15  16
ENDBRANCH   1  15
TORSDOF 5
ENDMDL
MODEL 7
REMARK VINA RESULT:    -6.490      4.550      8.855
REMARK INTER + INTRA:          -8.952
REMARK INTER:                  -8.345
REMARK INTRA:                  -0.606
REMARK UNBOUND:                -0.564
REMARK  Name = 
REMARK  5 active torsions:
REMARK  status: ('A' for Active; 'I' for Inactive)
REMARK    1  A    between atoms: C_2  and  C_4
REMARK    2  A    between atoms: C_8  and  C_9
REMARK    3  A    between atoms: C_9  and  O_10
REMARK    4  A    between atoms: O_10  and  C_11
REMARK    5  A    between atoms: C_16  and  C_17
REMARK                            x       y       z     vdW  Elec       q    Type
REMARK                         _______ _______ _______ _____ _____    ______ ____
ROOT
ATOM      1  C   UNL     1      47.432   5.576  13.999  0.00  0.00    +0.000 A 
ATOM      2  C   UNL     1      48.132   6.357  13.091  0.00  0.00    +0.000 A 
ATOM      3  C   UNL     1      47.461   6.854  11.979  0.00  0.00    +0.000 A 
ATOM      4  F   UNL     1      48.124   7.611  11.095  0.00  0.00    +0.000 F 
ATOM      5  C   UNL     1      46.103   6.599  11.772  0.00  0.00    +0.000 A 
ATOM      6  C   UNL     1      45.382   5.817  12.684  0.00  0.00    +0.000 A 
ATOM      7  C   UNL     1      46.094   5.268  13.753  0.00  0.00    +0.000 A 
ENDROOT
BRANCH   6   8
ATOM      8  C   UNL     1      43.887   5.570  12.507  0.00  0.00    +0.000 C 
ATOM      9  C   UNL     1      43.436   4.249  13.155  0.00  0.00    +0.000 C 
ATOM     10  C   UNL     1      43.799   3.023  12.315  0.00  0.00    +0.000 C 
ATOM     11  N   UNL     1      43.286   3.098  10.948  0.00  0.00    +0.000 NA
ATOM     12  C   UNL     1      43.695   4.319  10.262  0.00  0.00    +0.000 C 
ATOM     13  C   UNL     1      43.361   5.592  11.052  0.00  0.00    +0.000 C 
ATOM     14  H   UNL     1      42.264   3.055  10.972  0.00  0.00    +0.000 HD
ENDBRANCH   6   8
BRANCH   1  15
ATOM     15  O   UNL     1      48.095   5.141  15.117  0.00  0.00    +0.000 OA
BRANCH  15  16
ATOM     16  C   UNL     1      47.316   4.259  15.933  0.00  0.00    +0.000 C 
BRANCH  16  21
ATOM     17  C   UNL     1      48.040   5.612  19.397  0.00  0.00    +0.000 A 
ATOM     18  C   UNL     1      48.598   4.468  19.953  0.00  0.00    +0.000 A 
ATOM     19  N   UNL     1      48.722   3.290  19.292  0.00  0.00    +0.000 NA
ATOM     20  C   UNL     1      48.301   3.266  18.011  0.00  0.00    +0.000 A 
ATOM     21  C   UNL     1      47.758   4.365  17.356  0.00  0.00    +0.000 A 
ATOM     22  C   UNL     1      47.621   5.559  18.071  0.00  0.00    +0.000 A 
BRANCH  17  24
ATOM     23  N   UNL     1      48.611   7.939  19.801  0.00  0.00    +0.000 N 
ATOM     24  C   UNL     1      47.925   6.829  20.222  0.00  0.00    +0.000 C 
ATOM     25  O   UNL     1      47.219   6.860  21.220  0.00  0.00    +0.000 OA
ATOM     26  H   UNL     1      48.433   8.787  20.319  0.00  0.00    +0.000 HD
ATOM     27  H   UNL     1      48.988   8.023  18.867  0.00  0.00    +0.000 HD
ENDBRANCH  17  24
ENDBRANCH  16  21
ENDBRANCH  15  16
ENDBRANCH   1  15
TORSDOF 5
ENDMDL
MODEL 8
REMARK VINA RESULT:    -6.430      4.472      5.857
REMARK INTER + INTRA:          -8.874
REMARK INTER:                  -8.341
REMARK INTRA:                  -0.533
REMARK UNBOUND:                -0.564
REMARK  Name = 
REMARK  5 active torsions:
REMARK  status: ('A' for Active; 'I' for Inactive)
REMARK    1  A    between atoms: C_2  and  C_4
REMARK    2  A    between atoms: C_8  and  C_9
REMARK    3  A    between atoms: C_9  and  O_10
REMARK    4  A    between atoms: O_10  and  C_11
REMARK    5  A    between atoms: C_16  and  C_17
REMARK                            x       y       z     vdW  Elec       q    Type
REMARK                         _______ _______ _______ _____ _____    ______ ____
ROOT
ATOM      1  C   UNL     1      47.629   4.078  16.118  0.00  0.00    +0.000 A 
ATOM      2  C   UNL     1      48.266   2.846  16.112  0.00  0.00    +0.000 A 
ATOM      3  C   UNL     1      49.294   2.619  17.021  0.00  0.00    +0.000 A 
ATOM      4  F   UNL     1      49.917   1.433  17.027  0.00  0.00    +0.000 F 
ATOM      5  C   UNL     1      49.678   3.594  17.945  0.00  0.00    +0.000 A 
ATOM      6  C   UNL     1      49.039   4.841  17.967  0.00  0.00    +0.000 A 
ATOM      7  C   UNL     1      48.062   5.072  16.996  0.00  0.00    +0.000 A 
ENDROOT
BRANCH   6   8
ATOM      8  C   UNL     1      49.406   5.901  19.001  0.00  0.00    +0.000 C 
ATOM      9  C   UNL     1      49.992   5.285  20.283  0.00  0.00    +0.000 C 
ATOM     10  C   UNL     1      48.920   4.682  21.194  0.00  0.00    +0.000 C 
ATOM     11  N   UNL     1      47.870   5.637  21.545  0.00  0.00    +0.000 NA
ATOM     12  C   UNL     1      47.251   6.247  20.373  0.00  0.00    +0.000 C 
ATOM     13  C   UNL     1      48.273   6.871  19.411  0.00  0.00    +0.000 C 
ATOM     14  H   UNL     1      48.270   6.373  22.131  0.00  0.00    +0.000 HD
ENDBRANCH   6   8
BRANCH   1  15
ATOM     15  O   UNL     1      46.582   4.264  15.253  0.00  0.00    +0.000 OA
BRANCH  15  16
ATOM     16  C   UNL     1      46.837   3.768  13.934  0.00  0.00    +0.000 C 
BRANCH  16  21
ATOM     17  C   UNL     1      44.524   4.073  10.949  0.00  0.00    +0.000 A 
ATOM     18  C   UNL     1      43.816   5.199  11.351  0.00  0.00    +0.000 A 
ATOM     19  N   UNL     1      44.018   5.837  12.530  0.00  0.00    +0.000 NA
ATOM     20  C   UNL     1      44.992   5.348  13.326  0.00  0.00    +0.000 A 
ATOM     21  C   UNL     1      45.776   4.248  13.000  0.00  0.00    +0.000 A 
ATOM     22  C   UNL     1      45.529   3.597  11.787  0.00  0.00    +0.000 A 
BRANCH  17  24
ATOM     23  N   UNL     1      44.131   4.258   8.559  0.00  0.00    +0.000 N 
ATOM     24  C   UNL     1      44.196   3.442   9.657  0.00  0.00    +0.000 C 
ATOM     25  O   UNL     1      44.026   2.234   9.562  0.00  0.00    +0.000 OA
ATOM     26  H   UNL     1      44.012   3.791   7.671  0.00  0.00    +0.000 HD
ATOM     27  H   UNL     1      44.509   5.195   8.554  0.00  0.00    +0.000 HD
ENDBRANCH  17  24
ENDBRANCH  16  21
ENDBRANCH  15  16
ENDBRANCH   1  15
TORSDOF 5
ENDMDL
MODEL 9
REMARK VINA RESULT:    -6.385      3.804      5.768
REMARK INTER + INTRA:          -8.816
REMARK INTER:                  -8.526
REMARK INTRA:                  -0.290
REMARK UNBOUND:                -0.564
REMARK  Name = 
REMARK  5 active torsions:
REMARK  status: ('A' for Active; 'I' for Inactive)
REMARK    1  A    between atoms: C_2  and  C_4
REMARK    2  A    between atoms: C_8  and  C_9
REMARK    3  A    between atoms: C_9  and  O_10
REMARK    4  A    between atoms: O_10  and  C_11
REMARK    5  A    between atoms: C_16  and  C_17
REMARK                            x       y       z     vdW  Elec       q    Type
REMARK                         _______ _______ _______ _____ _____    ______ ____
ROOT
ATOM      1  C   UNL     1      48.899   7.059  14.855  0.00  0.00    +0.000 A 
ATOM      2  C   UNL     1      50.156   7.581  14.587  0.00  0.00    +0.000 A 
ATOM      3  C   UNL     1      51.205   7.272  15.445  0.00  0.00    +0.000 A 
ATOM      4  F   UNL     1      52.425   7.768  15.198  0.00  0.00    +0.000 F 
ATOM      5  C   UNL     1      51.023   6.436  16.549  0.00  0.00    +0.000 A 
ATOM      6  C   UNL     1      49.760   5.896  16.829  0.00  0.00    +0.000 A 
ATOM      7  C   UNL     1      48.707   6.280  15.996  0.00  0.00    +0.000 A 
ENDROOT
BRANCH   6   8
ATOM      8  C   UNL     1      49.548   4.939  17.998  0.00  0.00    +0.000 C 
ATOM      9  C   UNL     1      49.355   3.485  17.532  0.00  0.00    +0.000 C 
ATOM     10  C   UNL     1      47.951   3.221  16.983  0.00  0.00    +0.000 C 
ATOM     11  N   UNL     1      46.895   3.576  17.929  0.00  0.00    +0.000 NA
ATOM     12  C   UNL     1      47.002   4.954  18.398  0.00  0.00    +0.000 C 
ATOM     13  C   UNL     1      48.390   5.290  18.962  0.00  0.00    +0.000 C 
ATOM     14  H   UNL     1      46.940   2.946  18.734  0.00  0.00    +0.000 HD
ENDBRANCH   6   8
BRANCH   1  15
ATOM     15  O   UNL     1      47.889   7.329  13.968  0.00  0.00    +0.000 OA
BRANCH  15  16
ATOM     16  C   UNL     1      47.997   6.599  12.741  0.00  0.00    +0.000 C 
BRANCH  16  21
ATOM     17  C   UNL     1      44.803   4.904  11.613  0.00  0.00    +0.000 A 
ATOM     18  C   UNL     1      44.823   3.823  12.485  0.00  0.00    +0.000 A 
ATOM     19  N   UNL     1      45.814   3.595  13.383  0.00  0.00    +0.000 NA
ATOM     20  C   UNL     1      46.808   4.506  13.433  0.00  0.00    +0.000 A 
ATOM     21  C   UNL     1      46.862   5.636  12.624  0.00  0.00    +0.000 A 
ATOM     22  C   UNL     1      45.837   5.831  11.692  0.00  0.00    +0.000 A 
BRANCH  17  24
ATOM     23  N   UNL     1      43.899   4.566   9.383  0.00  0.00    +0.000 N 
ATOM     24  C   UNL     1      43.689   5.032  10.655  0.00  0.00    +0.000 C 
ATOM     25  O   UNL     1      42.609   5.500  10.989  0.00  0.00    +0.000 OA
ATOM     26  H   UNL     1      43.091   4.565   8.777  0.00  0.00    +0.000 HD
ATOM     27  H   UNL     1      44.669   3.955   9.148  0.00  0.00    +0.000 HD
ENDBRANCH  17  24
ENDBRANCH  16  21
ENDBRANCH  15  16
ENDBRANCH   1  15
TORSDOF 5
ENDMDL
