MODEL 1
REMARK VINA RESULT:    -6.973      0.000      0.000
REMARK INTER + INTRA:         -11.003
REMARK INTER:                  -9.826
REMARK INTRA:                  -1.177
REMARK UNBOUND:                -1.177
REMARK  Name = 
REMARK  8 active torsions:
REMARK  status: ('A' for Active; 'I' for Inactive)
REMARK    1  A    between atoms: C_1  and  C_2
REMARK    2  A    between atoms: C_2  and  O_3
REMARK    3  A    between atoms: O_3  and  N_4
REMARK    4  A    between atoms: C_5  and  C_6
REMARK    5  A    between atoms: C_5  and  C_20
REMARK    6  A    between atoms: C_6  and  C_7
REMARK    7  A    between atoms: C_10  and  C_11
REMARK    8  A    between atoms: C_11  and  N_12
REMARK                            x       y       z     vdW  Elec       q    Type
REMARK                         _______ _______ _______ _____ _____    ______ ____
ROOT
ATOM      1  N   UNL     1      45.552   8.074  11.929  0.00  0.00    +0.000 NA
ATOM      2  C   UNL     1      46.136   6.918  11.759  0.00  0.00    +0.000 C 
ENDROOT
BRANCH   2   3
ATOM      3  C   UNL     1      45.556   5.814  10.950  0.00  0.00    +0.000 A 
ATOM      4  C   UNL     1      45.916   5.601   9.624  0.00  0.00    +0.000 A 
ATOM      5  S   UNL     1      45.213   4.218   8.920  0.00  0.00    +0.000 S 
ATOM      6  C   UNL     1      44.459   3.797  10.381  0.00  0.00    +0.000 A 
ATOM      7  N   UNL     1      43.760   2.638  10.489  0.00  0.00    +0.000 NA
ATOM      8  C   UNL     1      43.290   2.404  11.670  0.00  0.00    +0.000 A 
ATOM      9  N   UNL     1      43.418   3.254  12.737  0.00  0.00    +0.000 N 
ATOM     10  C   UNL     1      43.946   4.519  12.614  0.00  0.00    +0.000 A 
ATOM     11  O   UNL     1      43.761   5.358  13.487  0.00  0.00    +0.000 OA
ATOM     12  C   UNL     1      44.656   4.755  11.365  0.00  0.00    +0.000 A 
ATOM     13  H   UNL     1      42.943   3.057  13.605  0.00  0.00    +0.000 HD
ENDBRANCH   2   3
BRANCH   1  14
ATOM     14  O   UNL     1      44.260   8.156  11.403  0.00  0.00    +0.000 OA
BRANCH  14  16
ATOM     15  C   UNL     1      44.840  10.423  11.828  0.00  0.00    +0.000 C 
ATOM     16  C   UNL     1      44.024   9.489  10.959  0.00  0.00    +0.000 C 
ENDBRANCH  14  16
ENDBRANCH   1  14
BRANCH   2  17
ATOM     17  C   UNL     1      47.551   6.742  12.308  0.00  0.00    +0.000 C 
BRANCH  17  18
ATOM     18  C   UNL     1      47.686   6.170  13.699  0.00  0.00    +0.000 A 
ATOM     19  C   UNL     1      47.070   4.951  14.021  0.00  0.00    +0.000 A 
ATOM     20  C   UNL     1      47.271   4.366  15.273  0.00  0.00    +0.000 A 
ATOM     21  C   UNL     1      48.086   4.989  16.226  0.00  0.00    +0.000 A 
ATOM     22  C   UNL     1      48.671   6.225  15.914  0.00  0.00    +0.000 A 
ATOM     23  C   UNL     1      48.472   6.811  14.662  0.00  0.00    +0.000 A 
BRANCH  21  24
ATOM     24  C   UNL     1      48.321   4.345  17.575  0.00  0.00    +0.000 C 
BRANCH  24  25
ATOM     25  N   UNL     1      48.508   5.307  18.683  0.00  0.00    +0.000 NA
ATOM     26  C   UNL     1      47.221   5.891  19.102  0.00  0.00    +0.000 C 
ATOM     27  C   UNL     1      47.375   6.829  20.301  0.00  0.00    +0.000 C 
ATOM     28  C   UNL     1      48.043   6.120  21.471  0.00  0.00    +0.000 C 
ATOM     29  C   UNL     1      49.369   5.526  21.019  0.00  0.00    +0.000 C 
ATOM     30  C   UNL     1      49.181   4.624  19.799  0.00  0.00    +0.000 C 
ENDBRANCH  24  25
ENDBRANCH  21  24
ENDBRANCH  17  18
ENDBRANCH   2  17
TORSDOF 7
ENDMDL
MODEL 2
REMARK VINA RESULT:    -6.926      1.321      2.260
REMARK INTER + INTRA:         -10.938
REMARK INTER:                 -10.113
REMARK INTRA:                  -0.824
REMARK UNBOUND:                -1.177
REMARK  Name = 
REMARK  8 active torsions:
REMARK  status: ('A' for Active; 'I' for Inactive)
REMARK    1  A    between atoms: C_1  and  C_2
REMARK    2  A    between atoms: C_2  and  O_3
REMARK    3  A    between atoms: O_3  and  N_4
REMARK    4  A    between atoms: C_5  and  C_6
REMARK    5  A    between atoms: C_5  and  C_20
REMARK    6  A    between atoms: C_6  and  C_7
REMARK    7  A    between atoms: C_10  and  C_11
REMARK    8  A    between atoms: C_11  and  N_12
REMARK                            x       y       z     vdW  Elec       q    Type
REMARK                         _______ _______ _______ _____ _____    ______ ____
ROOT
ATOM      1  N   UNL     1      45.719   8.013  11.936  0.00  0.00    +0.000 NA
ATOM      2  C   UNL     1      46.253   6.834  11.761  0.00  0.00    +0.000 C 
ENDROOT
BRANCH   2   3
ATOM      3  C   UNL     1      45.623   5.757  10.954  0.00  0.00    +0.000 A 
ATOM      4  C   UNL     1      45.946   5.548   9.618  0.00  0.00    +0.000 A 
ATOM      5  S   UNL     1      45.186   4.194   8.915  0.00  0.00    +0.000 S 
ATOM      6  C   UNL     1      44.454   3.780  10.389  0.00  0.00    +0.000 A 
ATOM      7  N   UNL     1      43.723   2.641  10.500  0.00  0.00    +0.000 NA
ATOM      8  C   UNL     1      43.273   2.407  11.690  0.00  0.00    +0.000 A 
ATOM      9  N   UNL     1      43.450   3.241  12.762  0.00  0.00    +0.000 N 
ATOM     10  C   UNL     1      44.014   4.491  12.641  0.00  0.00    +0.000 A 
ATOM     11  O   UNL     1      43.873   5.325  13.526  0.00  0.00    +0.000 OA
ATOM     12  C   UNL     1      44.701   4.720  11.378  0.00  0.00    +0.000 A 
ATOM     13  H   UNL     1      42.990   3.049  13.639  0.00  0.00    +0.000 HD
ENDBRANCH   2   3
BRANCH   1  14
ATOM     14  O   UNL     1      44.429   8.150  11.417  0.00  0.00    +0.000 OA
BRANCH  14  16
ATOM     15  C   UNL     1      45.239  10.345  11.849  0.00  0.00    +0.000 C 
ATOM     16  C   UNL     1      44.189   9.524  11.128  0.00  0.00    +0.000 C 
ENDBRANCH  14  16
ENDBRANCH   1  14
BRANCH   2  17
ATOM     17  C   UNL     1      47.663   6.598  12.300  0.00  0.00    +0.000 C 
BRANCH  17  18
ATOM     18  C   UNL     1      47.782   5.992  13.679  0.00  0.00    +0.000 A 
ATOM     19  C   UNL     1      48.473   6.674  14.691  0.00  0.00    +0.000 A 
ATOM     20  C   UNL     1      48.502   6.169  15.992  0.00  0.00    +0.000 A 
ATOM     21  C   UNL     1      47.846   4.973  16.306  0.00  0.00    +0.000 A 
ATOM     22  C   UNL     1      47.186   4.274  15.284  0.00  0.00    +0.000 A 
ATOM     23  C   UNL     1      47.155   4.778  13.982  0.00  0.00    +0.000 A 
BRANCH  21  24
ATOM     24  C   UNL     1      47.860   4.437  17.720  0.00  0.00    +0.000 C 
BRANCH  24  25
ATOM     25  N   UNL     1      49.074   3.665  18.066  0.00  0.00    +0.000 NA
ATOM     26  C   UNL     1      49.389   2.674  17.022  0.00  0.00    +0.000 C 
ATOM     27  C   UNL     1      50.687   1.918  17.314  0.00  0.00    +0.000 C 
ATOM     28  C   UNL     1      51.852   2.880  17.503  0.00  0.00    +0.000 C 
ATOM     29  C   UNL     1      51.508   3.893  18.586  0.00  0.00    +0.000 C 
ATOM     30  C   UNL     1      50.190   4.602  18.277  0.00  0.00    +0.000 C 
ENDBRANCH  24  25
ENDBRANCH  21  24
ENDBRANCH  17  18
ENDBRANCH   2  17
TORSDOF 7
ENDMDL
MODEL 3
REMARK VINA RESULT:    -6.493      3.791      8.798
REMARK INTER + INTRA:         -10.327
REMARK INTER:                  -9.906
REMARK INTRA:                  -0.420
REMARK UNBOUND:                -1.177
REMARK  Name = 
REMARK  8 active torsions:
REMARK  status: ('A' for Active; 'I' for Inactive)
REMARK    1  A    between atoms: C_1  and  C_2
REMARK    2  A    between atoms: C_2  and  O_3
REMARK    3  A    between atoms: O_3  and  N_4
REMARK    4  A    between atoms: C_5  and  C_6
REMARK    5  A    between atoms: C_5  and  C_20
REMARK    6  A    between atoms: C_6  and  C_7
REMARK    7  A    between atoms: C_10  and  C_11
REMARK    8  A    between atoms: C_11  and  N_12
REMARK                            x       y       z     vdW  Elec       q    Type
REMARK                         _______ _______ _______ _____ _____    ______ ____
ROOT
ATOM      1  N   UNL     1      48.247   5.057  17.924  0.00  0.00    +0.000 NA
ATOM      2  C   UNL     1      49.319   5.339  17.234  0.00  0.00    +0.000 C 
ENDROOT
BRANCH   2   3
ATOM      3  C   UNL     1      50.652   4.737  17.500  0.00  0.00    +0.000 A 
ATOM      4  C   UNL     1      51.712   5.481  18.004  0.00  0.00    +0.000 A 
ATOM      5  S   UNL     1      53.113   4.569  18.335  0.00  0.00    +0.000 S 
ATOM      6  C   UNL     1      52.337   3.125  17.896  0.00  0.00    +0.000 A 
ATOM      7  N   UNL     1      52.967   1.931  18.039  0.00  0.00    +0.000 NA
ATOM      8  C   UNL     1      52.245   0.904  17.730  0.00  0.00    +0.000 A 
ATOM      9  N   UNL     1      50.967   0.974  17.242  0.00  0.00    +0.000 N 
ATOM     10  C   UNL     1      50.372   2.168  16.901  0.00  0.00    +0.000 A 
ATOM     11  O   UNL     1      49.378   2.184  16.185  0.00  0.00    +0.000 OA
ATOM     12  C   UNL     1      51.059   3.348  17.403  0.00  0.00    +0.000 A 
ATOM     13  H   UNL     1      50.494   0.141  16.928  0.00  0.00    +0.000 HD
ENDBRANCH   2   3
BRANCH   1  14
ATOM     14  O   UNL     1      48.469   4.239  19.036  0.00  0.00    +0.000 OA
BRANCH  14  16
ATOM     15  C   UNL     1      47.350   6.095  20.016  0.00  0.00    +0.000 C 
ATOM     16  C   UNL     1      48.415   5.035  20.215  0.00  0.00    +0.000 C 
ENDBRANCH  14  16
ENDBRANCH   1  14
BRANCH   2  17
ATOM     17  C   UNL     1      49.165   6.231  16.002  0.00  0.00    +0.000 C 
BRANCH  17  18
ATOM     18  C   UNL     1      48.103   5.844  14.999  0.00  0.00    +0.000 A 
ATOM     19  C   UNL     1      47.354   4.673  15.184  0.00  0.00    +0.000 A 
ATOM     20  C   UNL     1      46.305   4.360  14.318  0.00  0.00    +0.000 A 
ATOM     21  C   UNL     1      45.988   5.208  13.250  0.00  0.00    +0.000 A 
ATOM     22  C   UNL     1      46.762   6.360  13.046  0.00  0.00    +0.000 A 
ATOM     23  C   UNL     1      47.811   6.674  13.912  0.00  0.00    +0.000 A 
BRANCH  21  24
ATOM     24  C   UNL     1      44.838   4.880  12.323  0.00  0.00    +0.000 C 
BRANCH  24  25
ATOM     25  N   UNL     1      45.241   4.201  11.072  0.00  0.00    +0.000 NA
ATOM     26  C   UNL     1      44.265   3.165  10.691  0.00  0.00    +0.000 C 
ATOM     27  C   UNL     1      44.615   2.502   9.357  0.00  0.00    +0.000 C 
ATOM     28  C   UNL     1      44.751   3.538   8.249  0.00  0.00    +0.000 C 
ATOM     29  C   UNL     1      45.763   4.597   8.660  0.00  0.00    +0.000 C 
ATOM     30  C   UNL     1      45.400   5.210  10.013  0.00  0.00    +0.000 C 
ENDBRANCH  24  25
ENDBRANCH  21  24
ENDBRANCH  17  18
ENDBRANCH   2  17
TORSDOF 7
ENDMDL
MODEL 4
REMARK VINA RESULT:    -6.386      3.309      8.423
REMARK INTER + INTRA:         -10.176
REMARK INTER:                  -9.978
REMARK INTRA:                  -0.198
REMARK UNBOUND:                -1.177
REMARK  Name = 
REMARK  8 active torsions:
REMARK  status: ('A' for Active; 'I' for Inactive)
REMARK    1  A    between atoms: C_1  and  C_2
REMARK    2  A    between atoms: C_2  and  O_3
REMARK    3  A    between atoms: O_3  and  N_4
REMARK    4  A    between atoms: C_5  and  C_6
REMARK    5  A    between atoms: C_5  and  C_20
REMARK    6  A    between atoms: C_6  and  C_7
REMARK    7  A    between atoms: C_10  and  C_11
REMARK    8  A    between atoms: C_11  and  N_12
REMARK                            x       y       z     vdW  Elec       q    Type
REMARK                         _______ _______ _______ _____ _____    ______ ____
ROOT
ATOM      1  N   UNL     1      48.713   6.158  13.692  0.00  0.00    +0.000 NA
ATOM      2  C   UNL     1      48.233   5.846  14.866  0.00  0.00    +0.000 C 
ENDROOT
BRANCH   2   3
ATOM      3  C   UNL     1      48.741   6.418  16.141  0.00  0.00    +0.000 A 
ATOM      4  C   UNL     1      48.688   7.780  16.413  0.00  0.00    +0.000 A 
ATOM      5  S   UNL     1      49.224   8.204  17.974  0.00  0.00    +0.000 S 
ATOM      6  C   UNL     1      49.474   6.576  18.383  0.00  0.00    +0.000 A 
ATOM      7  N   UNL     1      49.853   6.231  19.641  0.00  0.00    +0.000 NA
ATOM      8  C   UNL     1      49.946   4.957  19.842  0.00  0.00    +0.000 A 
ATOM      9  N   UNL     1      49.745   4.004  18.878  0.00  0.00    +0.000 N 
ATOM     10  C   UNL     1      49.555   4.324  17.552  0.00  0.00    +0.000 A 
ATOM     11  O   UNL     1      49.694   3.474  16.682  0.00  0.00    +0.000 OA
ATOM     12  C   UNL     1      49.252   5.727  17.309  0.00  0.00    +0.000 A 
ATOM     13  H   UNL     1      49.930   3.033  19.074  0.00  0.00    +0.000 HD
ENDBRANCH   2   3
BRANCH   1  14
ATOM     14  O   UNL     1      49.846   6.976  13.725  0.00  0.00    +0.000 OA
BRANCH  14  16
ATOM     15  C   UNL     1      48.507   7.695  11.895  0.00  0.00    +0.000 C 
ATOM     16  C   UNL     1      49.870   7.783  12.551  0.00  0.00    +0.000 C 
ENDBRANCH  14  16
ENDBRANCH   1  14
BRANCH   2  17
ATOM     17  C   UNL     1      46.995   4.952  14.920  0.00  0.00    +0.000 C 
BRANCH  17  18
ATOM     18  C   UNL     1      46.218   4.772  13.637  0.00  0.00    +0.000 A 
ATOM     19  C   UNL     1      46.091   3.497  13.065  0.00  0.00    +0.000 A 
ATOM     20  C   UNL     1      45.293   3.306  11.935  0.00  0.00    +0.000 A 
ATOM     21  C   UNL     1      44.611   4.382  11.355  0.00  0.00    +0.000 A 
ATOM     22  C   UNL     1      44.769   5.661  11.908  0.00  0.00    +0.000 A 
ATOM     23  C   UNL     1      45.566   5.855  13.038  0.00  0.00    +0.000 A 
BRANCH  21  24
ATOM     24  C   UNL     1      43.730   4.170  10.144  0.00  0.00    +0.000 C 
BRANCH  24  25
ATOM     25  N   UNL     1      44.427   3.576   8.982  0.00  0.00    +0.000 NA
ATOM     26  C   UNL     1      45.544   4.429   8.539  0.00  0.00    +0.000 C 
ATOM     27  C   UNL     1      46.333   3.798   7.389  0.00  0.00    +0.000 C 
ATOM     28  C   UNL     1      46.838   2.412   7.766  0.00  0.00    +0.000 C 
ATOM     29  C   UNL     1      45.670   1.548   8.217  0.00  0.00    +0.000 C 
ATOM     30  C   UNL     1      44.885   2.225   9.341  0.00  0.00    +0.000 C 
ENDBRANCH  24  25
ENDBRANCH  21  24
ENDBRANCH  17  18
ENDBRANCH   2  17
TORSDOF 7
ENDMDL
MODEL 5
REMARK VINA RESULT:    -6.287      3.620      8.520
REMARK INTER + INTRA:         -10.037
REMARK INTER:                  -9.026
REMARK INTRA:                  -1.011
REMARK UNBOUND:                -1.177
REMARK  Name = 
REMARK  8 active torsions:
REMARK  status: ('A' for Active; 'I' for Inactive)
REMARK    1  A    between atoms: C_1  and  C_2
REMARK    2  A    between atoms: C_2  and  O_3
REMARK    3  A    between atoms: O_3  and  N_4
REMARK    4  A    between atoms: C_5  and  C_6
REMARK    5  A    between atoms: C_5  and  C_20
REMARK    6  A    between atoms: C_6  and  C_7
REMARK    7  A    between atoms: C_10  and  C_11
REMARK    8  A    between atoms: C_11  and  N_12
REMARK                            x       y       z     vdW  Elec       q    Type
REMARK                         _______ _______ _______ _____ _____    ______ ____
ROOT
ATOM      1  N   UNL     1      48.218   8.504  15.307  0.00  0.00    +0.000 NA
ATOM      2  C   UNL     1      48.771   7.354  15.029  0.00  0.00    +0.000 C 
ENDROOT
BRANCH   2   3
ATOM      3  C   UNL     1      49.255   6.403  16.063  0.00  0.00    +0.000 A 
ATOM      4  C   UNL     1      48.411   5.483  16.675  0.00  0.00    +0.000 A 
ATOM      5  S   UNL     1      49.196   4.418  17.749  0.00  0.00    +0.000 S 
ATOM      6  C   UNL     1      50.712   5.087  17.382  0.00  0.00    +0.000 A 
ATOM      7  N   UNL     1      51.846   4.556  17.907  0.00  0.00    +0.000 NA
ATOM      8  C   UNL     1      52.938   5.115  17.498  0.00  0.00    +0.000 A 
ATOM      9  N   UNL     1      52.988   6.190  16.651  0.00  0.00    +0.000 N 
ATOM     10  C   UNL     1      51.859   6.873  16.258  0.00  0.00    +0.000 A 
ATOM     11  O   UNL     1      51.948   7.994  15.774  0.00  0.00    +0.000 OA
ATOM     12  C   UNL     1      50.610   6.177  16.531  0.00  0.00    +0.000 A 
ATOM     13  H   UNL     1      53.867   6.640  16.450  0.00  0.00    +0.000 HD
ENDBRANCH   2   3
BRANCH   1  14
ATOM     14  O   UNL     1      48.236   8.846  16.663  0.00  0.00    +0.000 OA
BRANCH  14  16
ATOM     15  C   UNL     1      49.867   9.698  18.170  0.00  0.00    +0.000 C 
ATOM     16  C   UNL     1      49.146   9.924  16.857  0.00  0.00    +0.000 C 
ENDBRANCH  14  16
ENDBRANCH   1  14
BRANCH   2  17
ATOM     17  C   UNL     1      48.796   6.905  13.568  0.00  0.00    +0.000 C 
BRANCH  17  18
ATOM     18  C   UNL     1      47.486   6.456  12.963  0.00  0.00    +0.000 A 
ATOM     19  C   UNL     1      46.829   7.268  12.027  0.00  0.00    +0.000 A 
ATOM     20  C   UNL     1      45.672   6.817  11.389  0.00  0.00    +0.000 A 
ATOM     21  C   UNL     1      45.149   5.550  11.676  0.00  0.00    +0.000 A 
ATOM     22  C   UNL     1      45.788   4.756  12.638  0.00  0.00    +0.000 A 
ATOM     23  C   UNL     1      46.946   5.205  13.277  0.00  0.00    +0.000 A 
BRANCH  21  24
ATOM     24  C   UNL     1      43.907   5.053  10.969  0.00  0.00    +0.000 C 
BRANCH  24  25
ATOM     25  N   UNL     1      44.179   4.212   9.782  0.00  0.00    +0.000 NA
ATOM     26  C   UNL     1      45.386   4.669   9.072  0.00  0.00    +0.000 C 
ATOM     27  C   UNL     1      45.737   3.767   7.887  0.00  0.00    +0.000 C 
ATOM     28  C   UNL     1      45.896   2.318   8.328  0.00  0.00    +0.000 C 
ATOM     29  C   UNL     1      44.640   1.865   9.057  0.00  0.00    +0.000 C 
ATOM     30  C   UNL     1      44.301   2.809  10.211  0.00  0.00    +0.000 C 
ENDBRANCH  24  25
ENDBRANCH  21  24
ENDBRANCH  17  18
ENDBRANCH   2  17
TORSDOF 7
ENDMDL
MODEL 6
REMARK VINA RESULT:    -6.209      3.629      8.378
REMARK INTER + INTRA:          -9.927
REMARK INTER:                  -8.583
REMARK INTRA:                  -1.345
REMARK UNBOUND:                -1.177
REMARK  Name = 
REMARK  8 active torsions:
REMARK  status: ('A' for Active; 'I' for Inactive)
REMARK    1  A    between atoms: C_1  and  C_2
REMARK    2  A    between atoms: C_2  and  O_3
REMARK    3  A    between atoms: O_3  and  N_4
REMARK    4  A    between atoms: C_5  and  C_6
REMARK    5  A    between atoms: C_5  and  C_20
REMARK    6  A    between atoms: C_6  and  C_7
REMARK    7  A    between atoms: C_10  and  C_11
REMARK    8  A    between atoms: C_11  and  N_12
REMARK                            x       y       z     vdW  Elec       q    Type
REMARK                         _______ _______ _______ _____ _____    ______ ____
ROOT
ATOM      1  N   UNL     1      50.939   7.656  14.790  0.00  0.00    +0.000 NA
ATOM      2  C   UNL     1      49.741   8.070  15.107  0.00  0.00    +0.000 C 
ENDROOT
BRANCH   2   3
ATOM      3  C   UNL     1      49.249   8.172  16.505  0.00  0.00    +0.000 A 
ATOM      4  C   UNL     1      49.266   9.371  17.209  0.00  0.00    +0.000 A 
ATOM      5  S   UNL     1      48.556   9.285  18.756  0.00  0.00    +0.000 S 
ATOM      6  C   UNL     1      48.123   7.662  18.521  0.00  0.00    +0.000 A 
ATOM      7  N   UNL     1      47.390   7.001  19.454  0.00  0.00    +0.000 NA
ATOM      8  C   UNL     1      47.071   5.791  19.126  0.00  0.00    +0.000 A 
ATOM      9  N   UNL     1      47.467   5.172  17.970  0.00  0.00    +0.000 N 
ATOM     10  C   UNL     1      48.369   5.741  17.100  0.00  0.00    +0.000 A 
ATOM     11  O   UNL     1      48.941   5.056  16.261  0.00  0.00    +0.000 OA
ATOM     12  C   UNL     1      48.605   7.160  17.321  0.00  0.00    +0.000 A 
ATOM     13  H   UNL     1      47.267   4.195  17.821  0.00  0.00    +0.000 HD
ENDBRANCH   2   3
BRANCH   1  14
ATOM     14  O   UNL     1      51.693   7.179  15.866  0.00  0.00    +0.000 OA
BRANCH  14  16
ATOM     15  C   UNL     1      53.828   6.198  16.238  0.00  0.00    +0.000 C 
ATOM     16  C   UNL     1      53.077   7.327  15.563  0.00  0.00    +0.000 C 
ENDBRANCH  14  16
ENDBRANCH   1  14
BRANCH   2  17
ATOM     17  C   UNL     1      48.849   8.606  13.988  0.00  0.00    +0.000 C 
BRANCH  17  18
ATOM     18  C   UNL     1      47.727   7.713  13.513  0.00  0.00    +0.000 A 
ATOM     19  C   UNL     1      46.505   8.272  13.109  0.00  0.00    +0.000 A 
ATOM     20  C   UNL     1      45.500   7.464  12.575  0.00  0.00    +0.000 A 
ATOM     21  C   UNL     1      45.694   6.085  12.438  0.00  0.00    +0.000 A 
ATOM     22  C   UNL     1      46.902   5.524  12.876  0.00  0.00    +0.000 A 
ATOM     23  C   UNL     1      47.909   6.330  13.409  0.00  0.00    +0.000 A 
BRANCH  21  24
ATOM     24  C   UNL     1      44.612   5.212  11.840  0.00  0.00    +0.000 C 
BRANCH  24  25
ATOM     25  N   UNL     1      45.080   4.323  10.754  0.00  0.00    +0.000 NA
ATOM     26  C   UNL     1      44.085   3.278  10.456  0.00  0.00    +0.000 C 
ATOM     27  C   UNL     1      44.508   2.393   9.282  0.00  0.00    +0.000 C 
ATOM     28  C   UNL     1      44.791   3.228   8.040  0.00  0.00    +0.000 C 
ATOM     29  C   UNL     1      45.821   4.299   8.368  0.00  0.00    +0.000 C 
ATOM     30  C   UNL     1      45.381   5.139   9.567  0.00  0.00    +0.000 C 
ENDBRANCH  24  25
ENDBRANCH  21  24
ENDBRANCH  17  18
ENDBRANCH   2  17
TORSDOF 7
ENDMDL
MODEL 7
REMARK VINA RESULT:    -6.192      3.370      8.786
REMARK INTER + INTRA:          -9.902
REMARK INTER:                 -10.177
REMARK INTRA:                   0.275
REMARK UNBOUND:                -1.177
REMARK  Name = 
REMARK  8 active torsions:
REMARK  status: ('A' for Active; 'I' for Inactive)
REMARK    1  A    between atoms: C_1  and  C_2
REMARK    2  A    between atoms: C_2  and  O_3
REMARK    3  A    between atoms: O_3  and  N_4
REMARK    4  A    between atoms: C_5  and  C_6
REMARK    5  A    between atoms: C_5  and  C_20
REMARK    6  A    between atoms: C_6  and  C_7
REMARK    7  A    between atoms: C_10  and  C_11
REMARK    8  A    between atoms: C_11  and  N_12
REMARK                            x       y       z     vdW  Elec       q    Type
REMARK                         _______ _______ _______ _____ _____    ______ ____
ROOT
ATOM      1  N   UNL     1      47.771   4.017  15.596  0.00  0.00    +0.000 NA
ATOM      2  C   UNL     1      48.248   5.227  15.717  0.00  0.00    +0.000 C 
ENDROOT
BRANCH   2   3
ATOM      3  C   UNL     1      49.083   5.671  16.864  0.00  0.00    +0.000 A 
ATOM      4  C   UNL     1      50.450   5.895  16.741  0.00  0.00    +0.000 A 
ATOM      5  S   UNL     1      51.190   6.502  18.150  0.00  0.00    +0.000 S 
ATOM      6  C   UNL     1      49.702   6.569  18.962  0.00  0.00    +0.000 A 
ATOM      7  N   UNL     1      49.620   7.096  20.211  0.00  0.00    +0.000 NA
ATOM      8  C   UNL     1      48.421   7.148  20.693  0.00  0.00    +0.000 A 
ATOM      9  N   UNL     1      47.308   6.671  20.053  0.00  0.00    +0.000 N 
ATOM     10  C   UNL     1      47.381   5.957  18.878  0.00  0.00    +0.000 A 
ATOM     11  O   UNL     1      46.431   5.281  18.501  0.00  0.00    +0.000 OA
ATOM     12  C   UNL     1      48.669   6.036  18.205  0.00  0.00    +0.000 A 
ATOM     13  H   UNL     1      46.417   6.652  20.525  0.00  0.00    +0.000 HD
ENDBRANCH   2   3
BRANCH   1  14
ATOM     14  O   UNL     1      47.989   3.192  16.703  0.00  0.00    +0.000 OA
BRANCH  14  16
ATOM     15  C   UNL     1      50.100   2.182  17.128  0.00  0.00    +0.000 C 
ATOM     16  C   UNL     1      48.824   2.106  16.314  0.00  0.00    +0.000 C 
ENDBRANCH  14  16
ENDBRANCH   1  14
BRANCH   2  17
ATOM     17  C   UNL     1      48.052   6.195  14.551  0.00  0.00    +0.000 C 
BRANCH  17  18
ATOM     18  C   UNL     1      47.005   5.834  13.524  0.00  0.00    +0.000 A 
ATOM     19  C   UNL     1      45.949   4.977  13.867  0.00  0.00    +0.000 A 
ATOM     20  C   UNL     1      44.924   4.718  12.955  0.00  0.00    +0.000 A 
ATOM     21  C   UNL     1      44.936   5.306  11.685  0.00  0.00    +0.000 A 
ATOM     22  C   UNL     1      46.011   6.135  11.333  0.00  0.00    +0.000 A 
ATOM     23  C   UNL     1      47.037   6.396  12.243  0.00  0.00    +0.000 A 
BRANCH  21  24
ATOM     24  C   UNL     1      43.814   5.042  10.705  0.00  0.00    +0.000 C 
BRANCH  24  25
ATOM     25  N   UNL     1      44.172   4.117   9.607  0.00  0.00    +0.000 NA
ATOM     26  C   UNL     1      45.388   4.567   8.908  0.00  0.00    +0.000 C 
ATOM     27  C   UNL     1      45.827   3.585   7.820  0.00  0.00    +0.000 C 
ATOM     28  C   UNL     1      46.028   2.188   8.390  0.00  0.00    +0.000 C 
ATOM     29  C   UNL     1      44.761   1.741   9.105  0.00  0.00    +0.000 C 
ATOM     30  C   UNL     1      44.334   2.763  10.160  0.00  0.00    +0.000 C 
ENDBRANCH  24  25
ENDBRANCH  21  24
ENDBRANCH  17  18
ENDBRANCH   2  17
TORSDOF 7
ENDMDL
MODEL 8
REMARK VINA RESULT:    -6.168      3.203      7.993
REMARK INTER + INTRA:          -9.869
REMARK INTER:                  -9.124
REMARK INTRA:                  -0.746
REMARK UNBOUND:                -1.177
REMARK  Name = 
REMARK  8 active torsions:
REMARK  status: ('A' for Active; 'I' for Inactive)
REMARK    1  A    between atoms: C_1  and  C_2
REMARK    2  A    between atoms: C_2  and  O_3
REMARK    3  A    between atoms: O_3  and  N_4
REMARK    4  A    between atoms: C_5  and  C_6
REMARK    5  A    between atoms: C_5  and  C_20
REMARK    6  A    between atoms: C_6  and  C_7
REMARK    7  A    between atoms: C_10  and  C_11
REMARK    8  A    between atoms: C_11  and  N_12
REMARK                            x       y       z     vdW  Elec       q    Type
REMARK                         _______ _______ _______ _____ _____    ______ ____
ROOT
ATOM      1  N   UNL     1      48.095   8.260  15.486  0.00  0.00    +0.000 NA
ATOM      2  C   UNL     1      48.864   7.280  15.095  0.00  0.00    +0.000 C 
ENDROOT
BRANCH   2   3
ATOM      3  C   UNL     1      49.632   6.414  16.029  0.00  0.00    +0.000 A 
ATOM      4  C   UNL     1      50.985   6.611  16.276  0.00  0.00    +0.000 A 
ATOM      5  S   UNL     1      51.640   5.575  17.459  0.00  0.00    +0.000 S 
ATOM      6  C   UNL     1      50.124   4.871  17.752  0.00  0.00    +0.000 A 
ATOM      7  N   UNL     1      49.968   3.953  18.740  0.00  0.00    +0.000 NA
ATOM      8  C   UNL     1      48.753   3.542  18.903  0.00  0.00    +0.000 A 
ATOM      9  N   UNL     1      47.693   3.934  18.129  0.00  0.00    +0.000 N 
ATOM     10  C   UNL     1      47.848   4.708  17.001  0.00  0.00    +0.000 A 
ATOM     11  O   UNL     1      46.954   4.777  16.167  0.00  0.00    +0.000 OA
ATOM     12  C   UNL     1      49.151   5.347  16.885  0.00  0.00    +0.000 A 
ATOM     13  H   UNL     1      46.789   3.502  18.246  0.00  0.00    +0.000 HD
ENDBRANCH   2   3
BRANCH   1  14
ATOM     14  O   UNL     1      48.149   8.533  16.856  0.00  0.00    +0.000 OA
BRANCH  14  16
ATOM     15  C   UNL     1      49.398  10.537  16.574  0.00  0.00    +0.000 C 
ATOM     16  C   UNL     1      48.089   9.942  17.051  0.00  0.00    +0.000 C 
ENDBRANCH  14  16
ENDBRANCH   1  14
BRANCH   2  17
ATOM     17  C   UNL     1      48.866   6.917  13.611  0.00  0.00    +0.000 C 
BRANCH  17  18
ATOM     18  C   UNL     1      47.550   6.491  13.003  0.00  0.00    +0.000 A 
ATOM     19  C   UNL     1      46.832   7.378  12.188  0.00  0.00    +0.000 A 
ATOM     20  C   UNL     1      45.667   6.959  11.542  0.00  0.00    +0.000 A 
ATOM     21  C   UNL     1      45.197   5.650  11.702  0.00  0.00    +0.000 A 
ATOM     22  C   UNL     1      45.898   4.777  12.546  0.00  0.00    +0.000 A 
ATOM     23  C   UNL     1      47.063   5.193  13.192  0.00  0.00    +0.000 A 
BRANCH  21  24
ATOM     24  C   UNL     1      43.946   5.190  10.986  0.00  0.00    +0.000 C 
BRANCH  24  25
ATOM     25  N   UNL     1      44.202   4.347   9.796  0.00  0.00    +0.000 NA
ATOM     26  C   UNL     1      45.433   4.766   9.103  0.00  0.00    +0.000 C 
ATOM     27  C   UNL     1      45.765   3.860   7.916  0.00  0.00    +0.000 C 
ATOM     28  C   UNL     1      45.867   2.404   8.348  0.00  0.00    +0.000 C 
ATOM     29  C   UNL     1      44.587   1.991   9.059  0.00  0.00    +0.000 C 
ATOM     30  C   UNL     1      44.269   2.938  10.216  0.00  0.00    +0.000 C 
ENDBRANCH  24  25
ENDBRANCH  21  24
ENDBRANCH  17  18
ENDBRANCH   2  17
TORSDOF 7
ENDMDL
MODEL 9
REMARK VINA RESULT:    -6.125      3.251      8.179
REMARK INTER + INTRA:          -9.808
REMARK INTER:                  -8.411
REMARK INTRA:                  -1.397
REMARK UNBOUND:                -1.177
REMARK  Name = 
REMARK  8 active torsions:
REMARK  status: ('A' for Active; 'I' for Inactive)
REMARK    1  A    between atoms: C_1  and  C_2
REMARK    2  A    between atoms: C_2  and  O_3
REMARK    3  A    between atoms: O_3  and  N_4
REMARK    4  A    between atoms: C_5  and  C_6
REMARK    5  A    between atoms: C_5  and  C_20
REMARK    6  A    between atoms: C_6  and  C_7
REMARK    7  A    between atoms: C_10  and  C_11
REMARK    8  A    between atoms: C_11  and  N_12
REMARK                            x       y       z     vdW  Elec       q    Type
REMARK                         _______ _______ _______ _____ _____    ______ ____
ROOT
ATOM      1  N   UNL     1      48.235   8.821  16.704  0.00  0.00    +0.000 NA
ATOM      2  C   UNL     1      49.055   8.357  15.799  0.00  0.00    +0.000 C 
ENDROOT
BRANCH   2   3
ATOM      3  C   UNL     1      50.192   7.451  16.105  0.00  0.00    +0.000 A 
ATOM      4  C   UNL     1      51.516   7.847  15.949  0.00  0.00    +0.000 A 
ATOM      5  S   UNL     1      52.658   6.691  16.460  0.00  0.00    +0.000 S 
ATOM      6  C   UNL     1      51.433   5.642  16.988  0.00  0.00    +0.000 A 
ATOM      7  N   UNL     1      51.743   4.483  17.625  0.00  0.00    +0.000 NA
ATOM      8  C   UNL     1      50.720   3.806  18.034  0.00  0.00    +0.000 A 
ATOM      9  N   UNL     1      49.416   4.165  17.813  0.00  0.00    +0.000 N 
ATOM     10  C   UNL     1      49.068   5.223  17.005  0.00  0.00    +0.000 A 
ATOM     11  O   UNL     1      47.927   5.327  16.574  0.00  0.00    +0.000 OA
ATOM     12  C   UNL     1      50.168   6.121  16.683  0.00  0.00    +0.000 A 
ATOM     13  H   UNL     1      48.666   3.543  18.072  0.00  0.00    +0.000 HD
ENDBRANCH   2   3
BRANCH   1  14
ATOM     14  O   UNL     1      48.588   8.512  18.021  0.00  0.00    +0.000 OA
BRANCH  14  16
ATOM     15  C   UNL     1      47.691   7.244  19.822  0.00  0.00    +0.000 C 
ATOM     16  C   UNL     1      47.402   8.307  18.783  0.00  0.00    +0.000 C 
ENDBRANCH  14  16
ENDBRANCH   1  14
BRANCH   2  17
ATOM     17  C   UNL     1      48.743   8.652  14.332  0.00  0.00    +0.000 C 
BRANCH  17  18
ATOM     18  C   UNL     1      47.717   7.775  13.655  0.00  0.00    +0.000 A 
ATOM     19  C   UNL     1      47.985   6.414  13.443  0.00  0.00    +0.000 A 
ATOM     20  C   UNL     1      47.005   5.575  12.909  0.00  0.00    +0.000 A 
ATOM     21  C   UNL     1      45.743   6.079  12.574  0.00  0.00    +0.000 A 
ATOM     22  C   UNL     1      45.491   7.447  12.753  0.00  0.00    +0.000 A 
ATOM     23  C   UNL     1      46.469   8.287  13.288  0.00  0.00    +0.000 A 
BRANCH  21  24
ATOM     24  C   UNL     1      44.674   5.166  12.015  0.00  0.00    +0.000 C 
BRANCH  24  25
ATOM     25  N   UNL     1      45.123   4.329  10.880  0.00  0.00    +0.000 NA
ATOM     26  C   UNL     1      44.146   3.266  10.585  0.00  0.00    +0.000 C 
ATOM     27  C   UNL     1      44.546   2.436   9.363  0.00  0.00    +0.000 C 
ATOM     28  C   UNL     1      44.754   3.321   8.142  0.00  0.00    +0.000 C 
ATOM     29  C   UNL     1      45.767   4.409   8.467  0.00  0.00    +0.000 C 
ATOM     30  C   UNL     1      45.352   5.194   9.712  0.00  0.00    +0.000 C 
ENDBRANCH  24  25
ENDBRANCH  21  24
ENDBRANCH  17  18
ENDBRANCH   2  17
TORSDOF 7
ENDMDL
