MODEL 1
REMARK VINA RESULT:    -8.685      0.000      0.000
REMARK INTER + INTRA:         -13.414
REMARK INTER:                 -12.240
REMARK INTRA:                  -1.174
REMARK UNBOUND:                -1.174
REMARK  Name = 
REMARK  8 active torsions:
REMARK  status: ('A' for Active; 'I' for Inactive)
REMARK    1  A    between atoms: C_1  and  C_2
REMARK    2  A    between atoms: C_2  and  N_3
REMARK    3  A    between atoms: C_2  and  C_11
REMARK    4  A    between atoms: N_3  and  C_4
REMARK    5  A    between atoms: C_4  and  C_5
REMARK    6  A    between atoms: C_14  and  C_15
REMARK    7  A    between atoms: C_15  and  N_16
REMARK    8  A    between atoms: C_17  and  C_19
REMARK                            x       y       z     vdW  Elec       q    Type
REMARK                         _______ _______ _______ _____ _____    ______ ____
ROOT
ATOM      1  C   UNL     1      44.969   5.013  11.954  0.00  0.00    +0.000 A 
ATOM      2  C   UNL     1      45.391   4.538  13.209  0.00  0.00    +0.000 A 
ATOM      3  C   UNL     1      46.538   5.042  13.825  0.00  0.00    +0.000 A 
ATOM      4  C   UNL     1      47.269   6.068  13.221  0.00  0.00    +0.000 A 
ATOM      5  C   UNL     1      46.878   6.520  11.955  0.00  0.00    +0.000 A 
ATOM      6  C   UNL     1      45.747   5.993  11.324  0.00  0.00    +0.000 A 
ENDROOT
BRANCH   1   8
ATOM      7  C   UNL     1      42.494   5.359  11.453  0.00  0.00    +0.000 C 
ATOM      8  C   UNL     1      43.708   4.425  11.327  0.00  0.00    +0.000 C 
BRANCH   8   9
ATOM      9  N   UNL     1      43.873   4.064   9.909  0.00  0.00    +0.000 NA
ATOM     10  H   UNL     1      44.502   4.727   9.459  0.00  0.00    +0.000 HD
BRANCH   9  11
ATOM     11  C   UNL     1      44.400   2.712   9.728  0.00  0.00    +0.000 C 
BRANCH  11  12
ATOM     12  C   UNL     1      45.457   2.639   8.655  0.00  0.00    +0.000 A 
ATOM     13  C   UNL     1      46.067   1.413   8.345  0.00  0.00    +0.000 A 
ATOM     14  C   UNL     1      46.993   1.324   7.307  0.00  0.00    +0.000 A 
ATOM     15  C   UNL     1      47.323   2.459   6.569  0.00  0.00    +0.000 A 
ATOM     16  C   UNL     1      46.731   3.684   6.873  0.00  0.00    +0.000 A 
ATOM     17  C   UNL     1      45.803   3.776   7.911  0.00  0.00    +0.000 A 
ENDBRANCH  11  12
ENDBRANCH   9  11
ENDBRANCH   8   9
ENDBRANCH   1   8
BRANCH   4  18
ATOM     18  C   UNL     1      48.461   6.669  13.914  0.00  0.00    +0.000 C 
BRANCH  18  19
ATOM     19  N   UNL     1      48.207   6.885  15.312  0.00  0.00    +0.000 N 
ATOM     20  C   UNL     1      49.170   6.600  16.246  0.00  0.00    +0.000 C 
ATOM     21  O   UNL     1      50.288   6.204  15.924  0.00  0.00    +0.000 OA
ATOM     22  H   UNL     1      47.240   7.001  15.601  0.00  0.00    +0.000 HD
BRANCH  20  23
ATOM     23  C   UNL     1      48.825   6.848  17.649  0.00  0.00    +0.000 A 
ATOM     24  C   UNL     1      48.585   8.149  18.074  0.00  0.00    +0.000 A 
ATOM     25  S   UNL     1      48.159   8.264  19.720  0.00  0.00    +0.000 S 
ATOM     26  C   UNL     1      48.328   6.586  19.937  0.00  0.00    +0.000 A 
ATOM     27  N   UNL     1      48.130   6.017  21.156  0.00  0.00    +0.000 NA
ATOM     28  C   UNL     1      48.323   4.740  21.185  0.00  0.00    +0.000 A 
ATOM     29  N   UNL     1      48.684   3.977  20.104  0.00  0.00    +0.000 N 
ATOM     30  C   UNL     1      48.864   4.505  18.848  0.00  0.00    +0.000 A 
ATOM     31  O   UNL     1      49.140   3.788  17.891  0.00  0.00    +0.000 OA
ATOM     32  C   UNL     1      48.681   5.941  18.763  0.00  0.00    +0.000 A 
ATOM     33  H   UNL     1      48.809   2.982  20.193  0.00  0.00    +0.000 HD
ENDBRANCH  20  23
ENDBRANCH  18  19
ENDBRANCH   4  18
TORSDOF 7
ENDMDL
MODEL 2
REMARK VINA RESULT:    -8.447      1.541      2.427
REMARK INTER + INTRA:         -13.078
REMARK INTER:                 -11.828
REMARK INTRA:                  -1.250
REMARK UNBOUND:                -1.174
REMARK  Name = 
REMARK  8 active torsions:
REMARK  status: ('A' for Active; 'I' for Inactive)
REMARK    1  A    between atoms: C_1  and  C_2
REMARK    2  A    between atoms: C_2  and  N_3
REMARK    3  A    between atoms: C_2  and  C_11
REMARK    4  A    between atoms: N_3  and  C_4
REMARK    5  A    between atoms: C_4  and  C_5
REMARK    6  A    between atoms: C_14  and  C_15
REMARK    7  A    between atoms: C_15  and  N_16
REMARK    8  A    between atoms: C_17  and  C_19
REMARK                            x       y       z     vdW  Elec       q    Type
REMARK                         _______ _______ _______ _____ _____    ______ ____
ROOT
ATOM      1  C   UNL     1      45.453   4.536  12.119  0.00  0.00    +0.000 A 
ATOM      2  C   UNL     1      46.092   4.031  13.267  0.00  0.00    +0.000 A 
ATOM      3  C   UNL     1      47.092   4.756  13.916  0.00  0.00    +0.000 A 
ATOM      4  C   UNL     1      47.450   6.028  13.460  0.00  0.00    +0.000 A 
ATOM      5  C   UNL     1      46.848   6.522  12.296  0.00  0.00    +0.000 A 
ATOM      6  C   UNL     1      45.868   5.781  11.628  0.00  0.00    +0.000 A 
ENDROOT
BRANCH   1   8
ATOM      7  C   UNL     1      43.490   4.525  10.495  0.00  0.00    +0.000 C 
ATOM      8  C   UNL     1      44.368   3.699  11.449  0.00  0.00    +0.000 C 
BRANCH   8   9
ATOM      9  N   UNL     1      44.894   2.539  10.711  0.00  0.00    +0.000 NA
ATOM     10  H   UNL     1      44.643   1.682  11.199  0.00  0.00    +0.000 HD
BRANCH   9  11
ATOM     11  C   UNL     1      44.395   2.469   9.338  0.00  0.00    +0.000 C 
BRANCH  11  12
ATOM     12  C   UNL     1      45.505   2.426   8.318  0.00  0.00    +0.000 A 
ATOM     13  C   UNL     1      45.843   3.580   7.593  0.00  0.00    +0.000 A 
ATOM     14  C   UNL     1      46.914   3.567   6.700  0.00  0.00    +0.000 A 
ATOM     15  C   UNL     1      47.656   2.402   6.519  0.00  0.00    +0.000 A 
ATOM     16  C   UNL     1      47.324   1.248   7.226  0.00  0.00    +0.000 A 
ATOM     17  C   UNL     1      46.253   1.258   8.121  0.00  0.00    +0.000 A 
ENDBRANCH  11  12
ENDBRANCH   9  11
ENDBRANCH   8   9
ENDBRANCH   1   8
BRANCH   4  18
ATOM     18  C   UNL     1      48.472   6.846  14.199  0.00  0.00    +0.000 C 
BRANCH  18  19
ATOM     19  N   UNL     1      48.161   6.942  15.600  0.00  0.00    +0.000 N 
ATOM     20  C   UNL     1      49.018   6.429  16.539  0.00  0.00    +0.000 C 
ATOM     21  O   UNL     1      50.094   5.921  16.227  0.00  0.00    +0.000 OA
ATOM     22  H   UNL     1      47.201   7.156  15.854  0.00  0.00    +0.000 HD
BRANCH  20  23
ATOM     23  C   UNL     1      48.621   6.567  17.944  0.00  0.00    +0.000 A 
ATOM     24  C   UNL     1      48.695   5.465  18.786  0.00  0.00    +0.000 A 
ATOM     25  S   UNL     1      48.236   5.799  20.393  0.00  0.00    +0.000 S 
ATOM     26  C   UNL     1      47.873   7.416  20.010  0.00  0.00    +0.000 A 
ATOM     27  N   UNL     1      47.390   8.265  20.955  0.00  0.00    +0.000 NA
ATOM     28  C   UNL     1      47.129   9.453  20.521  0.00  0.00    +0.000 A 
ATOM     29  N   UNL     1      47.316   9.874  19.229  0.00  0.00    +0.000 N 
ATOM     30  C   UNL     1      47.832   9.059  18.249  0.00  0.00    +0.000 A 
ATOM     31  O   UNL     1      48.033   9.480  17.114  0.00  0.00    +0.000 OA
ATOM     32  C   UNL     1      48.123   7.705  18.679  0.00  0.00    +0.000 A 
ATOM     33  H   UNL     1      47.101  10.819  18.957  0.00  0.00    +0.000 HD
ENDBRANCH  20  23
ENDBRANCH  18  19
ENDBRANCH   4  18
TORSDOF 7
ENDMDL
MODEL 3
REMARK VINA RESULT:    -7.613      2.165      2.555
REMARK INTER + INTRA:         -11.903
REMARK INTER:                 -10.811
REMARK INTRA:                  -1.092
REMARK UNBOUND:                -1.174
REMARK  Name = 
REMARK  8 active torsions:
REMARK  status: ('A' for Active; 'I' for Inactive)
REMARK    1  A    between atoms: C_1  and  C_2
REMARK    2  A    between atoms: C_2  and  N_3
REMARK    3  A    between atoms: C_2  and  C_11
REMARK    4  A    between atoms: N_3  and  C_4
REMARK    5  A    between atoms: C_4  and  C_5
REMARK    6  A    between atoms: C_14  and  C_15
REMARK    7  A    between atoms: C_15  and  N_16
REMARK    8  A    between atoms: C_17  and  C_19
REMARK                            x       y       z     vdW  Elec       q    Type
REMARK                         _______ _______ _______ _____ _____    ______ ____
ROOT
ATOM      1  C   UNL     1      45.197   4.761  11.624  0.00  0.00    +0.000 A 
ATOM      2  C   UNL     1      45.716   5.827  10.867  0.00  0.00    +0.000 A 
ATOM      3  C   UNL     1      46.548   6.787  11.445  0.00  0.00    +0.000 A 
ATOM      4  C   UNL     1      46.920   6.681  12.788  0.00  0.00    +0.000 A 
ATOM      5  C   UNL     1      46.377   5.645  13.559  0.00  0.00    +0.000 A 
ATOM      6  C   UNL     1      45.518   4.702  12.986  0.00  0.00    +0.000 A 
ENDROOT
BRANCH   1   8
ATOM      7  C   UNL     1      43.543   4.329   9.733  0.00  0.00    +0.000 C 
ATOM      8  C   UNL     1      44.291   3.741  10.941  0.00  0.00    +0.000 C 
BRANCH   8   9
ATOM      9  N   UNL     1      45.000   2.527  10.504  0.00  0.00    +0.000 NA
ATOM     10  H   UNL     1      44.824   1.772  11.164  0.00  0.00    +0.000 HD
BRANCH   9  11
ATOM     11  C   UNL     1      44.603   2.091   9.166  0.00  0.00    +0.000 C 
BRANCH  11  12
ATOM     12  C   UNL     1      45.714   2.233   8.156  0.00  0.00    +0.000 A 
ATOM     13  C   UNL     1      46.572   1.152   7.893  0.00  0.00    +0.000 A 
ATOM     14  C   UNL     1      47.556   1.252   6.911  0.00  0.00    +0.000 A 
ATOM     15  C   UNL     1      47.697   2.432   6.182  0.00  0.00    +0.000 A 
ATOM     16  C   UNL     1      46.857   3.514   6.441  0.00  0.00    +0.000 A 
ATOM     17  C   UNL     1      45.871   3.417   7.423  0.00  0.00    +0.000 A 
ENDBRANCH  11  12
ENDBRANCH   9  11
ENDBRANCH   8   9
ENDBRANCH   1   8
BRANCH   4  18
ATOM     18  C   UNL     1      47.877   7.667  13.397  0.00  0.00    +0.000 C 
BRANCH  18  19
ATOM     19  N   UNL     1      48.880   7.011  14.192  0.00  0.00    +0.000 N 
ATOM     20  C   UNL     1      49.627   7.722  15.095  0.00  0.00    +0.000 C 
ATOM     21  O   UNL     1      49.436   8.920  15.294  0.00  0.00    +0.000 OA
ATOM     22  H   UNL     1      49.189   6.092  13.890  0.00  0.00    +0.000 HD
BRANCH  20  23
ATOM     23  C   UNL     1      50.629   6.973  15.860  0.00  0.00    +0.000 A 
ATOM     24  C   UNL     1      51.957   7.378  15.824  0.00  0.00    +0.000 A 
ATOM     25  S   UNL     1      52.988   6.429  16.795  0.00  0.00    +0.000 S 
ATOM     26  C   UNL     1      51.705   5.413  17.258  0.00  0.00    +0.000 A 
ATOM     27  N   UNL     1      51.918   4.351  18.080  0.00  0.00    +0.000 NA
ATOM     28  C   UNL     1      50.864   3.647  18.325  0.00  0.00    +0.000 A 
ATOM     29  N   UNL     1      49.611   3.913  17.833  0.00  0.00    +0.000 N 
ATOM     30  C   UNL     1      49.345   4.993  17.025  0.00  0.00    +0.000 A 
ATOM     31  O   UNL     1      48.204   5.232  16.640  0.00  0.00    +0.000 OA
ATOM     32  C   UNL     1      50.501   5.807  16.700  0.00  0.00    +0.000 A 
ATOM     33  H   UNL     1      48.828   3.329  18.071  0.00  0.00    +0.000 HD
ENDBRANCH  20  23
ENDBRANCH  18  19
ENDBRANCH   4  18
TORSDOF 7
ENDMDL
MODEL 4
REMARK VINA RESULT:    -7.471      1.756      2.144
REMARK INTER + INTRA:         -11.702
REMARK INTER:                 -10.824
REMARK INTRA:                  -0.878
REMARK UNBOUND:                -1.174
REMARK  Name = 
REMARK  8 active torsions:
REMARK  status: ('A' for Active; 'I' for Inactive)
REMARK    1  A    between atoms: C_1  and  C_2
REMARK    2  A    between atoms: C_2  and  N_3
REMARK    3  A    between atoms: C_2  and  C_11
REMARK    4  A    between atoms: N_3  and  C_4
REMARK    5  A    between atoms: C_4  and  C_5
REMARK    6  A    between atoms: C_14  and  C_15
REMARK    7  A    between atoms: C_15  and  N_16
REMARK    8  A    between atoms: C_17  and  C_19
REMARK                            x       y       z     vdW  Elec       q    Type
REMARK                         _______ _______ _______ _____ _____    ______ ____
ROOT
ATOM      1  C   UNL     1      45.471   4.684  12.247  0.00  0.00    +0.000 A 
ATOM      2  C   UNL     1      45.812   5.821  11.491  0.00  0.00    +0.000 A 
ATOM      3  C   UNL     1      46.818   6.693  11.910  0.00  0.00    +0.000 A 
ATOM      4  C   UNL     1      47.540   6.428  13.076  0.00  0.00    +0.000 A 
ATOM      5  C   UNL     1      47.182   5.321  13.856  0.00  0.00    +0.000 A 
ATOM      6  C   UNL     1      46.153   4.465  13.451  0.00  0.00    +0.000 A 
ENDROOT
BRANCH   1   8
ATOM      7  C   UNL     1      43.256   4.528  10.996  0.00  0.00    +0.000 C 
ATOM      8  C   UNL     1      44.363   3.765  11.742  0.00  0.00    +0.000 C 
BRANCH   8   9
ATOM      9  N   UNL     1      44.851   2.683  10.871  0.00  0.00    +0.000 NA
ATOM     10  H   UNL     1      44.568   1.783  11.253  0.00  0.00    +0.000 HD
BRANCH   9  11
ATOM     11  C   UNL     1      44.355   2.795   9.500  0.00  0.00    +0.000 C 
BRANCH  11  12
ATOM     12  C   UNL     1      45.449   2.638   8.473  0.00  0.00    +0.000 A 
ATOM     13  C   UNL     1      46.105   1.406   8.322  0.00  0.00    +0.000 A 
ATOM     14  C   UNL     1      47.067   1.232   7.328  0.00  0.00    +0.000 A 
ATOM     15  C   UNL     1      47.387   2.287   6.476  0.00  0.00    +0.000 A 
ATOM     16  C   UNL     1      46.749   3.519   6.623  0.00  0.00    +0.000 A 
ATOM     17  C   UNL     1      45.785   3.694   7.616  0.00  0.00    +0.000 A 
ENDBRANCH  11  12
ENDBRANCH   9  11
ENDBRANCH   8   9
ENDBRANCH   1   8
BRANCH   4  18
ATOM     18  C   UNL     1      48.675   7.322  13.494  0.00  0.00    +0.000 C 
BRANCH  18  19
ATOM     19  N   UNL     1      49.282   6.870  14.716  0.00  0.00    +0.000 N 
ATOM     20  C   UNL     1      49.205   7.633  15.854  0.00  0.00    +0.000 C 
ATOM     21  O   UNL     1      48.579   8.690  15.884  0.00  0.00    +0.000 OA
ATOM     22  H   UNL     1      49.969   6.126  14.651  0.00  0.00    +0.000 HD
BRANCH  20  23
ATOM     23  C   UNL     1      49.855   7.097  17.054  0.00  0.00    +0.000 A 
ATOM     24  C   UNL     1      51.068   6.432  16.934  0.00  0.00    +0.000 A 
ATOM     25  S   UNL     1      51.710   5.905  18.422  0.00  0.00    +0.000 S 
ATOM     26  C   UNL     1      50.366   6.503  19.275  0.00  0.00    +0.000 A 
ATOM     27  N   UNL     1      50.270   6.349  20.623  0.00  0.00    +0.000 NA
ATOM     28  C   UNL     1      49.185   6.823  21.137  0.00  0.00    +0.000 A 
ATOM     29  N   UNL     1      48.189   7.447  20.430  0.00  0.00    +0.000 N 
ATOM     30  C   UNL     1      48.259   7.652  19.072  0.00  0.00    +0.000 A 
ATOM     31  O   UNL     1      47.374   8.257  18.475  0.00  0.00    +0.000 OA
ATOM     32  C   UNL     1      49.450   7.119  18.440  0.00  0.00    +0.000 A 
ATOM     33  H   UNL     1      47.371   7.803  20.894  0.00  0.00    +0.000 HD
ENDBRANCH  20  23
ENDBRANCH  18  19
ENDBRANCH   4  18
TORSDOF 7
ENDMDL
MODEL 5
REMARK VINA RESULT:    -7.420      4.670      5.529
REMARK INTER + INTRA:         -11.631
REMARK INTER:                 -10.312
REMARK INTRA:                  -1.319
REMARK UNBOUND:                -1.174
REMARK  Name = 
REMARK  8 active torsions:
REMARK  status: ('A' for Active; 'I' for Inactive)
REMARK    1  A    between atoms: C_1  and  C_2
REMARK    2  A    between atoms: C_2  and  N_3
REMARK    3  A    between atoms: C_2  and  C_11
REMARK    4  A    between atoms: N_3  and  C_4
REMARK    5  A    between atoms: C_4  and  C_5
REMARK    6  A    between atoms: C_14  and  C_15
REMARK    7  A    between atoms: C_15  and  N_16
REMARK    8  A    between atoms: C_17  and  C_19
REMARK                            x       y       z     vdW  Elec       q    Type
REMARK                         _______ _______ _______ _____ _____    ______ ____
ROOT
ATOM      1  C   UNL     1      44.916   4.661  11.554  0.00  0.00    +0.000 A 
ATOM      2  C   UNL     1      45.624   5.414  10.599  0.00  0.00    +0.000 A 
ATOM      3  C   UNL     1      46.025   6.724  10.864  0.00  0.00    +0.000 A 
ATOM      4  C   UNL     1      45.767   7.302  12.110  0.00  0.00    +0.000 A 
ATOM      5  C   UNL     1      45.030   6.575  13.052  0.00  0.00    +0.000 A 
ATOM      6  C   UNL     1      44.601   5.273  12.774  0.00  0.00    +0.000 A 
ENDROOT
BRANCH   1   8
ATOM      7  C   UNL     1      43.400   2.698  12.140  0.00  0.00    +0.000 C 
ATOM      8  C   UNL     1      44.501   3.233  11.211  0.00  0.00    +0.000 C 
BRANCH   8   9
ATOM      9  N   UNL     1      44.054   3.073   9.818  0.00  0.00    +0.000 NA
ATOM     10  H   UNL     1      44.350   3.877   9.268  0.00  0.00    +0.000 HD
BRANCH   9  11
ATOM     11  C   UNL     1      44.572   1.855   9.195  0.00  0.00    +0.000 C 
BRANCH  11  12
ATOM     12  C   UNL     1      45.671   2.134   8.200  0.00  0.00    +0.000 A 
ATOM     13  C   UNL     1      46.611   1.139   7.888  0.00  0.00    +0.000 A 
ATOM     14  C   UNL     1      47.586   1.365   6.918  0.00  0.00    +0.000 A 
ATOM     15  C   UNL     1      47.635   2.588   6.251  0.00  0.00    +0.000 A 
ATOM     16  C   UNL     1      46.713   3.587   6.559  0.00  0.00    +0.000 A 
ATOM     17  C   UNL     1      45.735   3.363   7.529  0.00  0.00    +0.000 A 
ENDBRANCH  11  12
ENDBRANCH   9  11
ENDBRANCH   8   9
ENDBRANCH   1   8
BRANCH   4  18
ATOM     18  C   UNL     1      46.263   8.685  12.429  0.00  0.00    +0.000 C 
BRANCH  18  19
ATOM     19  N   UNL     1      47.646   8.848  12.070  0.00  0.00    +0.000 N 
ATOM     20  C   UNL     1      48.218  10.094  12.053  0.00  0.00    +0.000 C 
ATOM     21  O   UNL     1      47.594  11.098  12.389  0.00  0.00    +0.000 OA
ATOM     22  H   UNL     1      48.100   8.075  11.593  0.00  0.00    +0.000 HD
BRANCH  20  23
ATOM     23  C   UNL     1      49.632  10.167  11.673  0.00  0.00    +0.000 A 
ATOM     24  C   UNL     1      50.018  11.013  10.640  0.00  0.00    +0.000 A 
ATOM     25  S   UNL     1      51.697  11.012  10.346  0.00  0.00    +0.000 S 
ATOM     26  C   UNL     1      51.962   9.845  11.554  0.00  0.00    +0.000 A 
ATOM     27  N   UNL     1      53.212   9.370  11.802  0.00  0.00    +0.000 NA
ATOM     28  C   UNL     1      53.265   8.466  12.723  0.00  0.00    +0.000 A 
ATOM     29  N   UNL     1      52.184   8.000  13.428  0.00  0.00    +0.000 N 
ATOM     30  C   UNL     1      50.909   8.475  13.232  0.00  0.00    +0.000 A 
ATOM     31  O   UNL     1      49.971   8.072  13.912  0.00  0.00    +0.000 OA
ATOM     32  C   UNL     1      50.789   9.478  12.192  0.00  0.00    +0.000 A 
ATOM     33  H   UNL     1      52.296   7.299  14.141  0.00  0.00    +0.000 HD
ENDBRANCH  20  23
ENDBRANCH  18  19
ENDBRANCH   4  18
TORSDOF 7
ENDMDL
MODEL 6
REMARK VINA RESULT:    -7.356      3.277      9.020
REMARK INTER + INTRA:         -11.540
REMARK INTER:                  -9.644
REMARK INTRA:                  -1.897
REMARK UNBOUND:                -1.174
REMARK  Name = 
REMARK  8 active torsions:
REMARK  status: ('A' for Active; 'I' for Inactive)
REMARK    1  A    between atoms: C_1  and  C_2
REMARK    2  A    between atoms: C_2  and  N_3
REMARK    3  A    between atoms: C_2  and  C_11
REMARK    4  A    between atoms: N_3  and  C_4
REMARK    5  A    between atoms: C_4  and  C_5
REMARK    6  A    between atoms: C_14  and  C_15
REMARK    7  A    between atoms: C_15  and  N_16
REMARK    8  A    between atoms: C_17  and  C_19
REMARK                            x       y       z     vdW  Elec       q    Type
REMARK                         _______ _______ _______ _____ _____    ______ ____
ROOT
ATOM      1  C   UNL     1      48.554   8.155  16.222  0.00  0.00    +0.000 A 
ATOM      2  C   UNL     1      47.902   9.155  15.477  0.00  0.00    +0.000 A 
ATOM      3  C   UNL     1      47.696   9.016  14.104  0.00  0.00    +0.000 A 
ATOM      4  C   UNL     1      48.097   7.851  13.445  0.00  0.00    +0.000 A 
ATOM      5  C   UNL     1      48.781   6.867  14.170  0.00  0.00    +0.000 A 
ATOM      6  C   UNL     1      49.015   7.021  15.540  0.00  0.00    +0.000 A 
ENDROOT
BRANCH   1   8
ATOM      7  C   UNL     1      48.659   9.838  18.133  0.00  0.00    +0.000 C 
ATOM      8  C   UNL     1      48.754   8.360  17.720  0.00  0.00    +0.000 C 
BRANCH   8   9
ATOM      9  N   UNL     1      47.815   7.584  18.547  0.00  0.00    +0.000 NA
ATOM     10  H   UNL     1      47.076   7.203  17.960  0.00  0.00    +0.000 HD
BRANCH   9  11
ATOM     11  C   UNL     1      48.467   6.487  19.262  0.00  0.00    +0.000 C 
BRANCH  11  12
ATOM     12  C   UNL     1      48.421   5.187  18.496  0.00  0.00    +0.000 A 
ATOM     13  C   UNL     1      47.220   4.752  17.915  0.00  0.00    +0.000 A 
ATOM     14  C   UNL     1      47.186   3.589  17.147  0.00  0.00    +0.000 A 
ATOM     15  C   UNL     1      48.349   2.847  16.953  0.00  0.00    +0.000 A 
ATOM     16  C   UNL     1      49.546   3.264  17.534  0.00  0.00    +0.000 A 
ATOM     17  C   UNL     1      49.583   4.429  18.303  0.00  0.00    +0.000 A 
ENDBRANCH  11  12
ENDBRANCH   9  11
ENDBRANCH   8   9
ENDBRANCH   1   8
BRANCH   4  18
ATOM     18  C   UNL     1      47.810   7.662  11.981  0.00  0.00    +0.000 C 
BRANCH  18  19
ATOM     19  N   UNL     1      47.081   6.447  11.738  0.00  0.00    +0.000 N 
ATOM     20  C   UNL     1      45.710   6.439  11.775  0.00  0.00    +0.000 C 
ATOM     21  O   UNL     1      45.061   7.466  11.964  0.00  0.00    +0.000 OA
ATOM     22  H   UNL     1      47.594   5.573  11.796  0.00  0.00    +0.000 HD
BRANCH  20  23
ATOM     23  C   UNL     1      45.049   5.156  11.518  0.00  0.00    +0.000 A 
ATOM     24  C   UNL     1      44.333   4.541  12.537  0.00  0.00    +0.000 A 
ATOM     25  S   UNL     1      43.593   3.079  12.068  0.00  0.00    +0.000 S 
ATOM     26  C   UNL     1      44.244   3.190  10.501  0.00  0.00    +0.000 A 
ATOM     27  N   UNL     1      44.014   2.217   9.580  0.00  0.00    +0.000 NA
ATOM     28  C   UNL     1      44.593   2.412   8.442  0.00  0.00    +0.000 A 
ATOM     29  N   UNL     1      45.374   3.498   8.136  0.00  0.00    +0.000 N 
ATOM     30  C   UNL     1      45.606   4.520   9.026  0.00  0.00    +0.000 A 
ATOM     31  O   UNL     1      46.270   5.501   8.705  0.00  0.00    +0.000 OA
ATOM     32  C   UNL     1      44.996   4.340  10.329  0.00  0.00    +0.000 A 
ATOM     33  H   UNL     1      45.789   3.595   7.225  0.00  0.00    +0.000 HD
ENDBRANCH  20  23
ENDBRANCH  18  19
ENDBRANCH   4  18
TORSDOF 7
ENDMDL
MODEL 7
REMARK VINA RESULT:    -7.296      3.449      8.699
REMARK INTER + INTRA:         -11.456
REMARK INTER:                  -8.972
REMARK INTRA:                  -2.484
REMARK UNBOUND:                -1.174
REMARK  Name = 
REMARK  8 active torsions:
REMARK  status: ('A' for Active; 'I' for Inactive)
REMARK    1  A    between atoms: C_1  and  C_2
REMARK    2  A    between atoms: C_2  and  N_3
REMARK    3  A    between atoms: C_2  and  C_11
REMARK    4  A    between atoms: N_3  and  C_4
REMARK    5  A    between atoms: C_4  and  C_5
REMARK    6  A    between atoms: C_14  and  C_15
REMARK    7  A    between atoms: C_15  and  N_16
REMARK    8  A    between atoms: C_17  and  C_19
REMARK                            x       y       z     vdW  Elec       q    Type
REMARK                         _______ _______ _______ _____ _____    ______ ____
ROOT
ATOM      1  C   UNL     1      49.854   7.059  18.637  0.00  0.00    +0.000 A 
ATOM      2  C   UNL     1      48.830   8.008  18.461  0.00  0.00    +0.000 A 
ATOM      3  C   UNL     1      48.439   8.423  17.187  0.00  0.00    +0.000 A 
ATOM      4  C   UNL     1      49.034   7.867  16.051  0.00  0.00    +0.000 A 
ATOM      5  C   UNL     1      50.080   6.952  16.217  0.00  0.00    +0.000 A 
ATOM      6  C   UNL     1      50.492   6.560  17.494  0.00  0.00    +0.000 A 
ENDROOT
BRANCH   1   8
ATOM      7  C   UNL     1      49.355   7.295  21.125  0.00  0.00    +0.000 C 
ATOM      8  C   UNL     1      50.242   6.642  20.052  0.00  0.00    +0.000 C 
BRANCH   8   9
ATOM      9  N   UNL     1      50.226   5.185  20.258  0.00  0.00    +0.000 NA
ATOM     10  H   UNL     1      50.658   4.961  21.152  0.00  0.00    +0.000 HD
BRANCH   9  11
ATOM     11  C   UNL     1      48.876   4.625  20.230  0.00  0.00    +0.000 C 
BRANCH  11  12
ATOM     12  C   UNL     1      48.498   4.089  18.871  0.00  0.00    +0.000 A 
ATOM     13  C   UNL     1      47.401   4.626  18.180  0.00  0.00    +0.000 A 
ATOM     14  C   UNL     1      47.088   4.185  16.894  0.00  0.00    +0.000 A 
ATOM     15  C   UNL     1      47.866   3.201  16.287  0.00  0.00    +0.000 A 
ATOM     16  C   UNL     1      48.952   2.653  16.968  0.00  0.00    +0.000 A 
ATOM     17  C   UNL     1      49.268   3.094  18.254  0.00  0.00    +0.000 A 
ENDBRANCH  11  12
ENDBRANCH   9  11
ENDBRANCH   8   9
ENDBRANCH   1   8
BRANCH   4  18
ATOM     18  C   UNL     1      48.565   8.254  14.676  0.00  0.00    +0.000 C 
BRANCH  18  19
ATOM     19  N   UNL     1      47.494   7.406  14.224  0.00  0.00    +0.000 N 
ATOM     20  C   UNL     1      47.737   6.399  13.325  0.00  0.00    +0.000 C 
ATOM     21  O   UNL     1      48.870   6.154  12.917  0.00  0.00    +0.000 OA
ATOM     22  H   UNL     1      46.544   7.728  14.380  0.00  0.00    +0.000 HD
BRANCH  20  23
ATOM     23  C   UNL     1      46.587   5.587  12.917  0.00  0.00    +0.000 A 
ATOM     24  C   UNL     1      46.632   4.208  13.084  0.00  0.00    +0.000 A 
ATOM     25  S   UNL     1      45.205   3.413  12.597  0.00  0.00    +0.000 S 
ATOM     26  C   UNL     1      44.496   4.876  12.099  0.00  0.00    +0.000 A 
ATOM     27  N   UNL     1      43.254   4.896  11.546  0.00  0.00    +0.000 NA
ATOM     28  C   UNL     1      42.850   6.069  11.185  0.00  0.00    +0.000 A 
ATOM     29  N   UNL     1      43.570   7.227  11.337  0.00  0.00    +0.000 N 
ATOM     30  C   UNL     1      44.814   7.257  11.920  0.00  0.00    +0.000 A 
ATOM     31  O   UNL     1      45.412   8.316  12.085  0.00  0.00    +0.000 OA
ATOM     32  C   UNL     1      45.325   5.961  12.324  0.00  0.00    +0.000 A 
ATOM     33  H   UNL     1      43.192   8.111  11.042  0.00  0.00    +0.000 HD
ENDBRANCH  20  23
ENDBRANCH  18  19
ENDBRANCH   4  18
TORSDOF 7
ENDMDL
MODEL 8
REMARK VINA RESULT:    -6.535      3.381      4.045
REMARK INTER + INTRA:         -10.383
REMARK INTER:                  -9.307
REMARK INTRA:                  -1.076
REMARK UNBOUND:                -1.174
REMARK  Name = 
REMARK  8 active torsions:
REMARK  status: ('A' for Active; 'I' for Inactive)
REMARK    1  A    between atoms: C_1  and  C_2
REMARK    2  A    between atoms: C_2  and  N_3
REMARK    3  A    between atoms: C_2  and  C_11
REMARK    4  A    between atoms: N_3  and  C_4
REMARK    5  A    between atoms: C_4  and  C_5
REMARK    6  A    between atoms: C_14  and  C_15
REMARK    7  A    between atoms: C_15  and  N_16
REMARK    8  A    between atoms: C_17  and  C_19
REMARK                            x       y       z     vdW  Elec       q    Type
REMARK                         _______ _______ _______ _____ _____    ______ ____
ROOT
ATOM      1  C   UNL     1      46.075   6.560  11.712  0.00  0.00    +0.000 A 
ATOM      2  C   UNL     1      47.445   6.825  11.528  0.00  0.00    +0.000 A 
ATOM      3  C   UNL     1      48.022   8.008  11.991  0.00  0.00    +0.000 A 
ATOM      4  C   UNL     1      47.253   8.940  12.692  0.00  0.00    +0.000 A 
ATOM      5  C   UNL     1      45.881   8.704  12.846  0.00  0.00    +0.000 A 
ATOM      6  C   UNL     1      45.297   7.533  12.354  0.00  0.00    +0.000 A 
ENDROOT
BRANCH   1   8
ATOM      7  C   UNL     1      44.510   4.601  12.167  0.00  0.00    +0.000 C 
ATOM      8  C   UNL     1      45.497   5.251  11.183  0.00  0.00    +0.000 C 
BRANCH   8   9
ATOM      9  N   UNL     1      44.831   5.390   9.878  0.00  0.00    +0.000 NA
ATOM     10  H   UNL     1      45.489   5.760   9.196  0.00  0.00    +0.000 HD
BRANCH   9  11
ATOM     11  C   UNL     1      44.292   4.125   9.381  0.00  0.00    +0.000 C 
BRANCH  11  12
ATOM     12  C   UNL     1      45.313   3.320   8.615  0.00  0.00    +0.000 A 
ATOM     13  C   UNL     1      45.420   1.936   8.821  0.00  0.00    +0.000 A 
ATOM     14  C   UNL     1      46.312   1.175   8.066  0.00  0.00    +0.000 A 
ATOM     15  C   UNL     1      47.108   1.788   7.100  0.00  0.00    +0.000 A 
ATOM     16  C   UNL     1      47.016   3.163   6.894  0.00  0.00    +0.000 A 
ATOM     17  C   UNL     1      46.124   3.927   7.647  0.00  0.00    +0.000 A 
ENDBRANCH  11  12
ENDBRANCH   9  11
ENDBRANCH   8   9
ENDBRANCH   1   8
BRANCH   4  18
ATOM     18  C   UNL     1      47.884  10.181  13.260  0.00  0.00    +0.000 C 
BRANCH  18  19
ATOM     19  N   UNL     1      49.059   9.872  14.030  0.00  0.00    +0.000 N 
ATOM     20  C   UNL     1      48.946   9.415  15.318  0.00  0.00    +0.000 C 
ATOM     21  O   UNL     1      47.852   9.207  15.839  0.00  0.00    +0.000 OA
ATOM     22  H   UNL     1      49.946  10.237  13.697  0.00  0.00    +0.000 HD
BRANCH  20  23
ATOM     23  C   UNL     1      50.196   9.128  16.029  0.00  0.00    +0.000 A 
ATOM     24  C   UNL     1      50.292   9.419  17.384  0.00  0.00    +0.000 A 
ATOM     25  S   UNL     1      51.792   8.992  18.071  0.00  0.00    +0.000 S 
ATOM     26  C   UNL     1      52.384   8.448  16.573  0.00  0.00    +0.000 A 
ATOM     27  N   UNL     1      53.652   7.970  16.455  0.00  0.00    +0.000 NA
ATOM     28  C   UNL     1      53.981   7.620  15.257  0.00  0.00    +0.000 A 
ATOM     29  N   UNL     1      53.155   7.694  14.164  0.00  0.00    +0.000 N 
ATOM     30  C   UNL     1      51.857   8.141  14.243  0.00  0.00    +0.000 A 
ATOM     31  O   UNL     1      51.128   8.149  13.256  0.00  0.00    +0.000 OA
ATOM     32  C   UNL     1      51.442   8.567  15.565  0.00  0.00    +0.000 A 
ATOM     33  H   UNL     1      53.471   7.396  13.256  0.00  0.00    +0.000 HD
ENDBRANCH  20  23
ENDBRANCH  18  19
ENDBRANCH   4  18
TORSDOF 7
ENDMDL
MODEL 9
REMARK VINA RESULT:    -6.303      3.554      4.302
REMARK INTER + INTRA:         -10.057
REMARK INTER:                  -9.045
REMARK INTRA:                  -1.012
REMARK UNBOUND:                -1.174
REMARK  Name = 
REMARK  8 active torsions:
REMARK  status: ('A' for Active; 'I' for Inactive)
REMARK    1  A    between atoms: C_1  and  C_2
REMARK    2  A    between atoms: C_2  and  N_3
REMARK    3  A    between atoms: C_2  and  C_11
REMARK    4  A    between atoms: N_3  and  C_4
REMARK    5  A    between atoms: C_4  and  C_5
REMARK    6  A    between atoms: C_14  and  C_15
REMARK    7  A    between atoms: C_15  and  N_16
REMARK    8  A    between atoms: C_17  and  C_19
REMARK                            x       y       z     vdW  Elec       q    Type
REMARK                         _______ _______ _______ _____ _____    ______ ____
ROOT
ATOM      1  C   UNL     1      45.969   6.444  11.768  0.00  0.00    +0.000 A 
ATOM      2  C   UNL     1      47.358   6.609  11.605  0.00  0.00    +0.000 A 
ATOM      3  C   UNL     1      48.013   7.743  12.085  0.00  0.00    +0.000 A 
ATOM      4  C   UNL     1      47.304   8.725  12.782  0.00  0.00    +0.000 A 
ATOM      5  C   UNL     1      45.917   8.590  12.915  0.00  0.00    +0.000 A 
ATOM      6  C   UNL     1      45.256   7.467  12.406  0.00  0.00    +0.000 A 
ENDROOT
BRANCH   1   8
ATOM      7  C   UNL     1      44.101   4.737  12.068  0.00  0.00    +0.000 C 
ATOM      8  C   UNL     1      45.304   5.185  11.222  0.00  0.00    +0.000 C 
BRANCH   8   9
ATOM      9  N   UNL     1      44.868   5.313   9.822  0.00  0.00    +0.000 NA
ATOM     10  H   UNL     1      45.657   5.592   9.242  0.00  0.00    +0.000 HD
BRANCH   9  11
ATOM     11  C   UNL     1      44.303   4.073   9.291  0.00  0.00    +0.000 C 
BRANCH  11  12
ATOM     12  C   UNL     1      45.305   3.272   8.496  0.00  0.00    +0.000 A 
ATOM     13  C   UNL     1      46.136   3.909   7.560  0.00  0.00    +0.000 A 
ATOM     14  C   UNL     1      47.112   3.188   6.874  0.00  0.00    +0.000 A 
ATOM     15  C   UNL     1      47.268   1.824   7.112  0.00  0.00    +0.000 A 
ATOM     16  C   UNL     1      46.442   1.179   8.032  0.00  0.00    +0.000 A 
ATOM     17  C   UNL     1      45.465   1.898   8.721  0.00  0.00    +0.000 A 
ENDBRANCH  11  12
ENDBRANCH   9  11
ENDBRANCH   8   9
ENDBRANCH   1   8
BRANCH   4  18
ATOM     18  C   UNL     1      48.016   9.912  13.368  0.00  0.00    +0.000 C 
BRANCH  18  19
ATOM     19  N   UNL     1      49.274   9.538  13.956  0.00  0.00    +0.000 N 
ATOM     20  C   UNL     1      49.337   9.135  15.265  0.00  0.00    +0.000 C 
ATOM     21  O   UNL     1      48.329   9.031  15.961  0.00  0.00    +0.000 OA
ATOM     22  H   UNL     1      50.120   9.821  13.472  0.00  0.00    +0.000 HD
BRANCH  20  23
ATOM     23  C   UNL     1      50.660   8.774  15.783  0.00  0.00    +0.000 A 
ATOM     24  C   UNL     1      51.162   7.501  15.547  0.00  0.00    +0.000 A 
ATOM     25  S   UNL     1      52.725   7.252  16.180  0.00  0.00    +0.000 S 
ATOM     26  C   UNL     1      52.767   8.820  16.836  0.00  0.00    +0.000 A 
ATOM     27  N   UNL     1      53.842   9.249  17.549  0.00  0.00    +0.000 NA
ATOM     28  C   UNL     1      53.728  10.448  18.015  0.00  0.00    +0.000 A 
ATOM     29  N   UNL     1      52.642  11.264  17.825  0.00  0.00    +0.000 N 
ATOM     30  C   UNL     1      51.548  10.883  17.084  0.00  0.00    +0.000 A 
ATOM     31  O   UNL     1      50.612  11.653  16.892  0.00  0.00    +0.000 OA
ATOM     32  C   UNL     1      51.614   9.534  16.555  0.00  0.00    +0.000 A 
ATOM     33  H   UNL     1      52.620  12.193  18.208  0.00  0.00    +0.000 HD
ENDBRANCH  20  23
ENDBRANCH  18  19
ENDBRANCH   4  18
TORSDOF 7
ENDMDL
