MODEL 1
REMARK VINA RESULT:    -8.685      0.000      0.000
REMARK INTER + INTRA:         -12.653
REMARK INTER:                 -11.731
REMARK INTRA:                  -0.923
REMARK UNBOUND:                -0.923
REMARK  Name = 
REMARK  8 active torsions:
REMARK  status: ('A' for Active; 'I' for Inactive)
REMARK    1  A    between atoms: C_1  and  C_2
REMARK    2  A    between atoms: C_8  and  C_9
REMARK    3  A    between atoms: C_11  and  C_12
REMARK    4  A    between atoms: N_14  and  C_15
REMARK    5  A    between atoms: C_15  and  C_16
REMARK    6  A    between atoms: C_19  and  N_20
REMARK    7  A    between atoms: N_20  and  C_21
REMARK    8  A    between atoms: C_21  and  C_22
REMARK                            x       y       z     vdW  Elec       q    Type
REMARK                         _______ _______ _______ _____ _____    ______ ____
ROOT
ATOM      1  C   UNL     1      47.823   6.363  14.148  0.00  0.00    +0.000 C 
ENDROOT
BRANCH   1   2
ATOM      2  C   UNL     1      46.916   5.668  13.161  0.00  0.00    +0.000 A 
ATOM      3  C   UNL     1      46.367   4.409  13.434  0.00  0.00    +0.000 A 
ATOM      4  C   UNL     1      45.473   3.797  12.535  0.00  0.00    +0.000 A 
ATOM      5  C   UNL     1      45.123   4.412  11.331  0.00  0.00    +0.000 A 
ATOM      6  C   UNL     1      45.693   5.660  11.053  0.00  0.00    +0.000 A 
ATOM      7  C   UNL     1      46.576   6.282  11.950  0.00  0.00    +0.000 A 
BRANCH   5   8
ATOM      8  N   UNL     1      44.197   3.905  10.409  0.00  0.00    +0.000 N 
ATOM      9  H   UNL     1      43.998   4.609   9.703  0.00  0.00    +0.000 HD
BRANCH   8  10
ATOM     10  C   UNL     1      44.390   2.581   9.815  0.00  0.00    +0.000 C 
BRANCH  10  11
ATOM     11  C   UNL     1      45.642   2.556   8.890  0.00  0.00    +0.000 C 
ATOM     12  C   UNL     1      45.429   3.554   7.739  0.00  0.00    +0.000 C 
ATOM     13  C   UNL     1      46.599   3.557   6.762  0.00  0.00    +0.000 C 
ATOM     14  C   UNL     1      46.907   2.141   6.291  0.00  0.00    +0.000 C 
ATOM     15  C   UNL     1      47.088   1.198   7.476  0.00  0.00    +0.000 C 
ATOM     16  N   UNL     1      45.916   1.201   8.357  0.00  0.00    +0.000 NA
ATOM     17  H   UNL     1      46.112   0.579   9.139  0.00  0.00    +0.000 HD
ENDBRANCH  10  11
ENDBRANCH   8  10
ENDBRANCH   5   8
ENDBRANCH   1   2
BRANCH   1  20
ATOM     18  C   UNL     1      48.834   5.723  16.301  0.00  0.00    +0.000 C 
ATOM     19  O   UNL     1      49.921   6.154  15.937  0.00  0.00    +0.000 OA
ATOM     20  N   UNL     1      47.721   5.809  15.488  0.00  0.00    +0.000 N 
ATOM     21  H   UNL     1      46.939   5.205  15.685  0.00  0.00    +0.000 HD
BRANCH  18  32
ATOM     22  C   UNL     1      48.562   2.567  16.623  0.00  0.00    +0.000 C 
ATOM     23  C   UNL     1      48.572   3.625  17.672  0.00  0.00    +0.000 A 
ATOM     24  N   UNL     1      48.476   3.266  18.990  0.00  0.00    +0.000 N 
ATOM     25  C   UNL     1      48.505   4.369  19.777  0.00  0.00    +0.000 A 
ATOM     26  N   UNL     1      48.443   4.294  21.113  0.00  0.00    +0.000 NA
ATOM     27  C   UNL     1      48.508   5.496  21.682  0.00  0.00    +0.000 A 
ATOM     28  N   UNL     1      48.620   6.678  21.056  0.00  0.00    +0.000 NA
ATOM     29  C   UNL     1      48.688   6.720  19.691  0.00  0.00    +0.000 A 
ATOM     30  C   UNL     1      48.844   8.095  19.128  0.00  0.00    +0.000 C 
ATOM     31  C   UNL     1      48.618   5.502  18.973  0.00  0.00    +0.000 A 
ATOM     32  C   UNL     1      48.664   5.023  17.596  0.00  0.00    +0.000 A 
ATOM     33  H   UNL     1      48.412   2.328  19.352  0.00  0.00    +0.000 HD
ENDBRANCH  18  32
ENDBRANCH   1  20
TORSDOF 6
ENDMDL
MODEL 2
REMARK VINA RESULT:    -7.856      0.972      2.478
REMARK INTER + INTRA:         -11.534
REMARK INTER:                 -10.644
REMARK INTRA:                  -0.889
REMARK UNBOUND:                -0.923
REMARK  Name = 
REMARK  8 active torsions:
REMARK  status: ('A' for Active; 'I' for Inactive)
REMARK    1  A    between atoms: C_1  and  C_2
REMARK    2  A    between atoms: C_8  and  C_9
REMARK    3  A    between atoms: C_11  and  C_12
REMARK    4  A    between atoms: N_14  and  C_15
REMARK    5  A    between atoms: C_15  and  C_16
REMARK    6  A    between atoms: C_19  and  N_20
REMARK    7  A    between atoms: N_20  and  C_21
REMARK    8  A    between atoms: C_21  and  C_22
REMARK                            x       y       z     vdW  Elec       q    Type
REMARK                         _______ _______ _______ _____ _____    ______ ____
ROOT
ATOM      1  C   UNL     1      47.962   6.940  13.514  0.00  0.00    +0.000 C 
ENDROOT
BRANCH   1   2
ATOM      2  C   UNL     1      47.023   5.893  12.961  0.00  0.00    +0.000 A 
ATOM      3  C   UNL     1      46.198   6.160  11.862  0.00  0.00    +0.000 A 
ATOM      4  C   UNL     1      45.374   5.158  11.315  0.00  0.00    +0.000 A 
ATOM      5  C   UNL     1      45.330   3.876  11.865  0.00  0.00    +0.000 A 
ATOM      6  C   UNL     1      46.140   3.623  12.979  0.00  0.00    +0.000 A 
ATOM      7  C   UNL     1      46.974   4.612  13.523  0.00  0.00    +0.000 A 
BRANCH   5   8
ATOM      8  N   UNL     1      44.586   2.805  11.350  0.00  0.00    +0.000 N 
ATOM      9  H   UNL     1      43.772   2.643  11.937  0.00  0.00    +0.000 HD
BRANCH   8  10
ATOM     10  C   UNL     1      44.249   2.753   9.927  0.00  0.00    +0.000 C 
BRANCH  10  11
ATOM     11  C   UNL     1      45.528   2.619   9.049  0.00  0.00    +0.000 C 
ATOM     12  C   UNL     1      45.449   3.635   7.897  0.00  0.00    +0.000 C 
ATOM     13  C   UNL     1      46.652   3.536   6.966  0.00  0.00    +0.000 C 
ATOM     14  C   UNL     1      46.850   2.100   6.499  0.00  0.00    +0.000 C 
ATOM     15  C   UNL     1      46.901   1.141   7.684  0.00  0.00    +0.000 C 
ATOM     16  N   UNL     1      45.701   1.246   8.520  0.00  0.00    +0.000 NA
ATOM     17  H   UNL     1      45.811   0.607   9.306  0.00  0.00    +0.000 HD
ENDBRANCH  10  11
ENDBRANCH   8  10
ENDBRANCH   5   8
ENDBRANCH   1   2
BRANCH   1  20
ATOM     18  C   UNL     1      49.038   6.909  15.730  0.00  0.00    +0.000 C 
ATOM     19  O   UNL     1      50.137   6.756  15.212  0.00  0.00    +0.000 OA
ATOM     20  N   UNL     1      47.897   7.040  14.963  0.00  0.00    +0.000 N 
ATOM     21  H   UNL     1      47.006   6.874  15.403  0.00  0.00    +0.000 HD
BRANCH  18  32
ATOM     22  C   UNL     1      48.585   9.500  17.524  0.00  0.00    +0.000 C 
ATOM     23  C   UNL     1      48.640   8.068  17.931  0.00  0.00    +0.000 A 
ATOM     24  N   UNL     1      48.457   7.736  19.247  0.00  0.00    +0.000 N 
ATOM     25  C   UNL     1      48.543   6.392  19.406  0.00  0.00    +0.000 A 
ATOM     26  N   UNL     1      48.385   5.803  20.598  0.00  0.00    +0.000 NA
ATOM     27  C   UNL     1      48.489   4.479  20.516  0.00  0.00    +0.000 A 
ATOM     28  N   UNL     1      48.725   3.757  19.410  0.00  0.00    +0.000 NA
ATOM     29  C   UNL     1      48.876   4.389  18.206  0.00  0.00    +0.000 A 
ATOM     30  C   UNL     1      49.100   3.464  17.054  0.00  0.00    +0.000 C 
ATOM     31  C   UNL     1      48.794   5.802  18.169  0.00  0.00    +0.000 A 
ATOM     32  C   UNL     1      48.858   6.890  17.201  0.00  0.00    +0.000 A 
ATOM     33  H   UNL     1      48.266   8.372  20.005  0.00  0.00    +0.000 HD
ENDBRANCH  18  32
ENDBRANCH   1  20
TORSDOF 6
ENDMDL
MODEL 3
REMARK VINA RESULT:    -7.682      1.807      2.904
REMARK INTER + INTRA:         -11.299
REMARK INTER:                 -10.440
REMARK INTRA:                  -0.858
REMARK UNBOUND:                -0.923
REMARK  Name = 
REMARK  8 active torsions:
REMARK  status: ('A' for Active; 'I' for Inactive)
REMARK    1  A    between atoms: C_1  and  C_2
REMARK    2  A    between atoms: C_8  and  C_9
REMARK    3  A    between atoms: C_11  and  C_12
REMARK    4  A    between atoms: N_14  and  C_15
REMARK    5  A    between atoms: C_15  and  C_16
REMARK    6  A    between atoms: C_19  and  N_20
REMARK    7  A    between atoms: N_20  and  C_21
REMARK    8  A    between atoms: C_21  and  C_22
REMARK                            x       y       z     vdW  Elec       q    Type
REMARK                         _______ _______ _______ _____ _____    ______ ____
ROOT
ATOM      1  C   UNL     1      46.968   4.463  14.860  0.00  0.00    +0.000 C 
ENDROOT
BRANCH   1   2
ATOM      2  C   UNL     1      46.424   4.694  13.470  0.00  0.00    +0.000 A 
ATOM      3  C   UNL     1      46.732   5.855  12.748  0.00  0.00    +0.000 A 
ATOM      4  C   UNL     1      46.272   6.031  11.429  0.00  0.00    +0.000 A 
ATOM      5  C   UNL     1      45.473   5.070  10.806  0.00  0.00    +0.000 A 
ATOM      6  C   UNL     1      45.149   3.924  11.542  0.00  0.00    +0.000 A 
ATOM      7  C   UNL     1      45.614   3.734  12.852  0.00  0.00    +0.000 A 
BRANCH   5   8
ATOM      8  N   UNL     1      45.023   5.137   9.481  0.00  0.00    +0.000 N 
ATOM      9  H   UNL     1      45.781   5.449   8.879  0.00  0.00    +0.000 HD
BRANCH   8  10
ATOM     10  C   UNL     1      44.286   4.019   8.889  0.00  0.00    +0.000 C 
BRANCH  10  11
ATOM     11  C   UNL     1      45.158   3.259   7.846  0.00  0.00    +0.000 C 
ATOM     12  C   UNL     1      45.800   2.040   8.529  0.00  0.00    +0.000 C 
ATOM     13  C   UNL     1      46.707   1.265   7.579  0.00  0.00    +0.000 C 
ATOM     14  C   UNL     1      47.716   2.198   6.923  0.00  0.00    +0.000 C 
ATOM     15  C   UNL     1      47.020   3.394   6.282  0.00  0.00    +0.000 C 
ATOM     16  N   UNL     1      46.199   4.128   7.250  0.00  0.00    +0.000 NA
ATOM     17  H   UNL     1      45.740   4.891   6.754  0.00  0.00    +0.000 HD
ENDBRANCH  10  11
ENDBRANCH   8  10
ENDBRANCH   5   8
ENDBRANCH   1   2
BRANCH   1  20
ATOM     18  C   UNL     1      48.562   5.529  16.406  0.00  0.00    +0.000 C 
ATOM     19  O   UNL     1      48.929   4.432  16.810  0.00  0.00    +0.000 OA
ATOM     20  N   UNL     1      47.609   5.645  15.413  0.00  0.00    +0.000 N 
ATOM     21  H   UNL     1      47.131   6.526  15.313  0.00  0.00    +0.000 HD
BRANCH  18  32
ATOM     22  C   UNL     1      50.460   7.604  14.912  0.00  0.00    +0.000 C 
ATOM     23  C   UNL     1      49.880   7.673  16.283  0.00  0.00    +0.000 A 
ATOM     24  N   UNL     1      50.138   8.765  17.068  0.00  0.00    +0.000 N 
ATOM     25  C   UNL     1      49.522   8.633  18.268  0.00  0.00    +0.000 A 
ATOM     26  N   UNL     1      49.600   9.575  19.217  0.00  0.00    +0.000 NA
ATOM     27  C   UNL     1      48.903   9.246  20.303  0.00  0.00    +0.000 A 
ATOM     28  N   UNL     1      48.189   8.125  20.491  0.00  0.00    +0.000 NA
ATOM     29  C   UNL     1      48.123   7.186  19.499  0.00  0.00    +0.000 A 
ATOM     30  C   UNL     1      47.268   6.006  19.830  0.00  0.00    +0.000 C 
ATOM     31  C   UNL     1      48.834   7.421  18.298  0.00  0.00    +0.000 A 
ATOM     32  C   UNL     1      49.063   6.789  17.004  0.00  0.00    +0.000 A 
ATOM     33  H   UNL     1      50.685   9.571  16.811  0.00  0.00    +0.000 HD
ENDBRANCH  18  32
ENDBRANCH   1  20
TORSDOF 6
ENDMDL
MODEL 4
REMARK VINA RESULT:    -7.581      2.307      3.383
REMARK INTER + INTRA:         -11.163
REMARK INTER:                 -10.392
REMARK INTRA:                  -0.771
REMARK UNBOUND:                -0.923
REMARK  Name = 
REMARK  8 active torsions:
REMARK  status: ('A' for Active; 'I' for Inactive)
REMARK    1  A    between atoms: C_1  and  C_2
REMARK    2  A    between atoms: C_8  and  C_9
REMARK    3  A    between atoms: C_11  and  C_12
REMARK    4  A    between atoms: N_14  and  C_15
REMARK    5  A    between atoms: C_15  and  C_16
REMARK    6  A    between atoms: C_19  and  N_20
REMARK    7  A    between atoms: N_20  and  C_21
REMARK    8  A    between atoms: C_21  and  C_22
REMARK                            x       y       z     vdW  Elec       q    Type
REMARK                         _______ _______ _______ _____ _____    ______ ____
ROOT
ATOM      1  C   UNL     1      46.208   4.650  14.998  0.00  0.00    +0.000 C 
ENDROOT
BRANCH   1   2
ATOM      2  C   UNL     1      45.974   4.843  13.518  0.00  0.00    +0.000 A 
ATOM      3  C   UNL     1      46.493   5.951  12.836  0.00  0.00    +0.000 A 
ATOM      4  C   UNL     1      46.323   6.089  11.445  0.00  0.00    +0.000 A 
ATOM      5  C   UNL     1      45.609   5.144  10.705  0.00  0.00    +0.000 A 
ATOM      6  C   UNL     1      45.073   4.052  11.398  0.00  0.00    +0.000 A 
ATOM      7  C   UNL     1      45.249   3.900  12.782  0.00  0.00    +0.000 A 
BRANCH   5   8
ATOM      8  N   UNL     1      45.443   5.172   9.313  0.00  0.00    +0.000 N 
ATOM      9  H   UNL     1      46.354   5.188   8.862  0.00  0.00    +0.000 HD
BRANCH   8  10
ATOM     10  C   UNL     1      44.529   4.237   8.656  0.00  0.00    +0.000 C 
BRANCH  10  11
ATOM     11  C   UNL     1      45.299   3.261   7.719  0.00  0.00    +0.000 C 
ATOM     12  C   UNL     1      45.817   2.077   8.552  0.00  0.00    +0.000 C 
ATOM     13  C   UNL     1      46.621   1.094   7.710  0.00  0.00    +0.000 C 
ATOM     14  C   UNL     1      47.716   1.821   6.939  0.00  0.00    +0.000 C 
ATOM     15  C   UNL     1      47.143   2.993   6.150  0.00  0.00    +0.000 C 
ATOM     16  N   UNL     1      46.419   3.929   7.016  0.00  0.00    +0.000 NA
ATOM     17  H   UNL     1      46.037   4.667   6.426  0.00  0.00    +0.000 HD
ENDBRANCH  10  11
ENDBRANCH   8  10
ENDBRANCH   5   8
ENDBRANCH   1   2
BRANCH   1  20
ATOM     18  C   UNL     1      47.984   4.789  16.700  0.00  0.00    +0.000 C 
ATOM     19  O   UNL     1      47.243   4.288  17.537  0.00  0.00    +0.000 OA
ATOM     20  N   UNL     1      47.566   4.982  15.398  0.00  0.00    +0.000 N 
ATOM     21  H   UNL     1      48.073   5.641  14.828  0.00  0.00    +0.000 HD
BRANCH  18  32
ATOM     22  C   UNL     1      48.769   7.861  16.986  0.00  0.00    +0.000 C 
ATOM     23  C   UNL     1      49.614   6.650  17.181  0.00  0.00    +0.000 A 
ATOM     24  N   UNL     1      50.922   6.795  17.557  0.00  0.00    +0.000 N 
ATOM     25  C   UNL     1      51.510   5.580  17.681  0.00  0.00    +0.000 A 
ATOM     26  N   UNL     1      52.788   5.441  18.056  0.00  0.00    +0.000 NA
ATOM     27  C   UNL     1      53.149   4.162  18.130  0.00  0.00    +0.000 A 
ATOM     28  N   UNL     1      52.379   3.093  17.872  0.00  0.00    +0.000 NA
ATOM     29  C   UNL     1      51.075   3.269  17.498  0.00  0.00    +0.000 A 
ATOM     30  C   UNL     1      50.326   1.995  17.275  0.00  0.00    +0.000 C 
ATOM     31  C   UNL     1      50.579   4.589  17.375  0.00  0.00    +0.000 A 
ATOM     32  C   UNL     1      49.338   5.281  17.048  0.00  0.00    +0.000 A 
ATOM     33  H   UNL     1      51.399   7.663  17.743  0.00  0.00    +0.000 HD
ENDBRANCH  18  32
ENDBRANCH   1  20
TORSDOF 6
ENDMDL
MODEL 5
REMARK VINA RESULT:    -7.559      3.124      5.213
REMARK INTER + INTRA:         -11.133
REMARK INTER:                 -10.229
REMARK INTRA:                  -0.905
REMARK UNBOUND:                -0.923
REMARK  Name = 
REMARK  8 active torsions:
REMARK  status: ('A' for Active; 'I' for Inactive)
REMARK    1  A    between atoms: C_1  and  C_2
REMARK    2  A    between atoms: C_8  and  C_9
REMARK    3  A    between atoms: C_11  and  C_12
REMARK    4  A    between atoms: N_14  and  C_15
REMARK    5  A    between atoms: C_15  and  C_16
REMARK    6  A    between atoms: C_19  and  N_20
REMARK    7  A    between atoms: N_20  and  C_21
REMARK    8  A    between atoms: C_21  and  C_22
REMARK                            x       y       z     vdW  Elec       q    Type
REMARK                         _______ _______ _______ _____ _____    ______ ____
ROOT
ATOM      1  C   UNL     1      47.338   5.355  14.315  0.00  0.00    +0.000 C 
ENDROOT
BRANCH   1   2
ATOM      2  C   UNL     1      46.423   4.890  13.207  0.00  0.00    +0.000 A 
ATOM      3  C   UNL     1      46.055   5.742  12.158  0.00  0.00    +0.000 A 
ATOM      4  C   UNL     1      45.253   5.280  11.097  0.00  0.00    +0.000 A 
ATOM      5  C   UNL     1      44.775   3.968  11.069  0.00  0.00    +0.000 A 
ATOM      6  C   UNL     1      45.127   3.129  12.132  0.00  0.00    +0.000 A 
ATOM      7  C   UNL     1      45.937   3.578  13.187  0.00  0.00    +0.000 A 
BRANCH   5   8
ATOM      8  N   UNL     1      44.024   3.410  10.025  0.00  0.00    +0.000 N 
ATOM      9  H   UNL     1      43.824   4.124   9.330  0.00  0.00    +0.000 HD
BRANCH   8  10
ATOM     10  C   UNL     1      44.435   2.149   9.406  0.00  0.00    +0.000 C 
BRANCH  10  11
ATOM     11  C   UNL     1      45.753   2.324   8.596  0.00  0.00    +0.000 C 
ATOM     12  C   UNL     1      45.512   3.341   7.468  0.00  0.00    +0.000 C 
ATOM     13  C   UNL     1      46.749   3.535   6.600  0.00  0.00    +0.000 C 
ATOM     14  C   UNL     1      47.275   2.192   6.108  0.00  0.00    +0.000 C 
ATOM     15  C   UNL     1      47.475   1.225   7.270  0.00  0.00    +0.000 C 
ATOM     16  N   UNL     1      46.243   1.040   8.042  0.00  0.00    +0.000 NA
ATOM     17  H   UNL     1      46.451   0.411   8.816  0.00  0.00    +0.000 HD
ENDBRANCH  10  11
ENDBRANCH   8  10
ENDBRANCH   5   8
ENDBRANCH   1   2
BRANCH   1  20
ATOM     18  C   UNL     1      48.707   7.324  14.878  0.00  0.00    +0.000 C 
ATOM     19  O   UNL     1      49.539   6.609  15.426  0.00  0.00    +0.000 OA
ATOM     20  N   UNL     1      47.591   6.786  14.270  0.00  0.00    +0.000 N 
ATOM     21  H   UNL     1      46.805   7.393  14.094  0.00  0.00    +0.000 HD
BRANCH  18  32
ATOM     22  C   UNL     1      48.113   9.140  17.424  0.00  0.00    +0.000 C 
ATOM     23  C   UNL     1      48.558   9.543  16.061  0.00  0.00    +0.000 A 
ATOM     24  N   UNL     1      48.785  10.866  15.792  0.00  0.00    +0.000 N 
ATOM     25  C   UNL     1      49.181  11.020  14.504  0.00  0.00    +0.000 A 
ATOM     26  N   UNL     1      49.484  12.218  13.989  0.00  0.00    +0.000 NA
ATOM     27  C   UNL     1      49.867  12.130  12.717  0.00  0.00    +0.000 A 
ATOM     28  N   UNL     1      49.958  11.012  11.980  0.00  0.00    +0.000 NA
ATOM     29  C   UNL     1      49.648   9.803  12.538  0.00  0.00    +0.000 A 
ATOM     30  C   UNL     1      49.826   8.640  11.616  0.00  0.00    +0.000 C 
ATOM     31  C   UNL     1      49.217   9.771  13.886  0.00  0.00    +0.000 A 
ATOM     32  C   UNL     1      48.812   8.802  14.898  0.00  0.00    +0.000 A 
ATOM     33  H   UNL     1      48.699  11.633  16.440  0.00  0.00    +0.000 HD
ENDBRANCH  18  32
ENDBRANCH   1  20
TORSDOF 6
ENDMDL
MODEL 6
REMARK VINA RESULT:    -7.466      2.256      3.715
REMARK INTER + INTRA:         -11.008
REMARK INTER:                 -10.189
REMARK INTRA:                  -0.818
REMARK UNBOUND:                -0.923
REMARK  Name = 
REMARK  8 active torsions:
REMARK  status: ('A' for Active; 'I' for Inactive)
REMARK    1  A    between atoms: C_1  and  C_2
REMARK    2  A    between atoms: C_8  and  C_9
REMARK    3  A    between atoms: C_11  and  C_12
REMARK    4  A    between atoms: N_14  and  C_15
REMARK    5  A    between atoms: C_15  and  C_16
REMARK    6  A    between atoms: C_19  and  N_20
REMARK    7  A    between atoms: N_20  and  C_21
REMARK    8  A    between atoms: C_21  and  C_22
REMARK                            x       y       z     vdW  Elec       q    Type
REMARK                         _______ _______ _______ _____ _____    ______ ____
ROOT
ATOM      1  C   UNL     1      47.876   5.378  14.369  0.00  0.00    +0.000 C 
ENDROOT
BRANCH   1   2
ATOM      2  C   UNL     1      46.861   5.053  13.299  0.00  0.00    +0.000 A 
ATOM      3  C   UNL     1      46.574   5.955  12.266  0.00  0.00    +0.000 A 
ATOM      4  C   UNL     1      45.673   5.616  11.239  0.00  0.00    +0.000 A 
ATOM      5  C   UNL     1      45.015   4.384  11.228  0.00  0.00    +0.000 A 
ATOM      6  C   UNL     1      45.289   3.497  12.276  0.00  0.00    +0.000 A 
ATOM      7  C   UNL     1      46.196   3.822  13.297  0.00  0.00    +0.000 A 
BRANCH   5   8
ATOM      8  N   UNL     1      44.152   3.943  10.216  0.00  0.00    +0.000 N 
ATOM      9  H   UNL     1      44.068   4.663   9.503  0.00  0.00    +0.000 HD
BRANCH   8  10
ATOM     10  C   UNL     1      44.314   2.612   9.630  0.00  0.00    +0.000 C 
BRANCH  10  11
ATOM     11  C   UNL     1      45.608   2.531   8.768  0.00  0.00    +0.000 C 
ATOM     12  C   UNL     1      45.456   3.463   7.554  0.00  0.00    +0.000 C 
ATOM     13  C   UNL     1      46.671   3.407   6.635  0.00  0.00    +0.000 C 
ATOM     14  C   UNL     1      46.993   1.966   6.260  0.00  0.00    +0.000 C 
ATOM     15  C   UNL     1      47.112   1.091   7.504  0.00  0.00    +0.000 C 
ATOM     16  N   UNL     1      45.900   1.147   8.326  0.00  0.00    +0.000 NA
ATOM     17  H   UNL     1      46.056   0.570   9.152  0.00  0.00    +0.000 HD
ENDBRANCH  10  11
ENDBRANCH   8  10
ENDBRANCH   5   8
ENDBRANCH   1   2
BRANCH   1  20
ATOM     18  C   UNL     1      48.826   7.330  15.533  0.00  0.00    +0.000 C 
ATOM     19  O   UNL     1      49.860   6.713  15.758  0.00  0.00    +0.000 OA
ATOM     20  N   UNL     1      47.791   6.757  14.821  0.00  0.00    +0.000 N 
ATOM     21  H   UNL     1      46.873   7.166  14.902  0.00  0.00    +0.000 HD
BRANCH  18  32
ATOM     22  C   UNL     1      49.317  10.016  13.896  0.00  0.00    +0.000 C 
ATOM     23  C   UNL     1      48.812   9.838  15.286  0.00  0.00    +0.000 A 
ATOM     24  N   UNL     1      48.469  10.939  16.023  0.00  0.00    +0.000 N 
ATOM     25  C   UNL     1      48.035  10.562  17.251  0.00  0.00    +0.000 A 
ATOM     26  N   UNL     1      47.621  11.449  18.165  0.00  0.00    +0.000 NA
ATOM     27  C   UNL     1      47.221  10.857  19.288  0.00  0.00    +0.000 A 
ATOM     28  N   UNL     1      47.210   9.539  19.542  0.00  0.00    +0.000 NA
ATOM     29  C   UNL     1      47.633   8.658  18.585  0.00  0.00    +0.000 A 
ATOM     30  C   UNL     1      47.535   7.223  18.989  0.00  0.00    +0.000 C 
ATOM     31  C   UNL     1      48.091   9.173  17.349  0.00  0.00    +0.000 A 
ATOM     32  C   UNL     1      48.597   8.693  16.068  0.00  0.00    +0.000 A 
ATOM     33  H   UNL     1      48.503  11.899  15.719  0.00  0.00    +0.000 HD
ENDBRANCH  18  32
ENDBRANCH   1  20
TORSDOF 6
ENDMDL
MODEL 7
REMARK VINA RESULT:    -7.328      2.170      2.584
REMARK INTER + INTRA:         -10.820
REMARK INTER:                  -9.921
REMARK INTRA:                  -0.900
REMARK UNBOUND:                -0.923
REMARK  Name = 
REMARK  8 active torsions:
REMARK  status: ('A' for Active; 'I' for Inactive)
REMARK    1  A    between atoms: C_1  and  C_2
REMARK    2  A    between atoms: C_8  and  C_9
REMARK    3  A    between atoms: C_11  and  C_12
REMARK    4  A    between atoms: N_14  and  C_15
REMARK    5  A    between atoms: C_15  and  C_16
REMARK    6  A    between atoms: C_19  and  N_20
REMARK    7  A    between atoms: N_20  and  C_21
REMARK    8  A    between atoms: C_21  and  C_22
REMARK                            x       y       z     vdW  Elec       q    Type
REMARK                         _______ _______ _______ _____ _____    ______ ____
ROOT
ATOM      1  C   UNL     1      48.025   6.766  14.484  0.00  0.00    +0.000 C 
ENDROOT
BRANCH   1   2
ATOM      2  C   UNL     1      47.063   6.186  13.474  0.00  0.00    +0.000 A 
ATOM      3  C   UNL     1      46.336   5.020  13.743  0.00  0.00    +0.000 A 
ATOM      4  C   UNL     1      45.396   4.524  12.819  0.00  0.00    +0.000 A 
ATOM      5  C   UNL     1      45.177   5.160  11.596  0.00  0.00    +0.000 A 
ATOM      6  C   UNL     1      45.924   6.312  11.324  0.00  0.00    +0.000 A 
ATOM      7  C   UNL     1      46.854   6.821  12.244  0.00  0.00    +0.000 A 
BRANCH   5   8
ATOM      8  N   UNL     1      44.221   4.771  10.648  0.00  0.00    +0.000 N 
ATOM      9  H   UNL     1      44.236   5.418   9.863  0.00  0.00    +0.000 HD
BRANCH   8  10
ATOM     10  C   UNL     1      44.141   3.379  10.203  0.00  0.00    +0.000 C 
BRANCH  10  11
ATOM     11  C   UNL     1      45.375   2.993   9.336  0.00  0.00    +0.000 C 
ATOM     12  C   UNL     1      45.509   4.003   8.184  0.00  0.00    +0.000 C 
ATOM     13  C   UNL     1      46.676   3.667   7.263  0.00  0.00    +0.000 C 
ATOM     14  C   UNL     1      46.590   2.219   6.797  0.00  0.00    +0.000 C 
ATOM     15  C   UNL     1      46.440   1.271   7.982  0.00  0.00    +0.000 C 
ATOM     16  N   UNL     1      45.277   1.613   8.807  0.00  0.00    +0.000 NA
ATOM     17  H   UNL     1      45.253   0.965   9.594  0.00  0.00    +0.000 HD
ENDBRANCH  10  11
ENDBRANCH   8  10
ENDBRANCH   5   8
ENDBRANCH   1   2
BRANCH   1  20
ATOM     18  C   UNL     1      48.871   5.809  16.591  0.00  0.00    +0.000 C 
ATOM     19  O   UNL     1      48.329   6.700  17.232  0.00  0.00    +0.000 OA
ATOM     20  N   UNL     1      48.752   5.741  15.217  0.00  0.00    +0.000 N 
ATOM     21  H   UNL     1      49.425   5.192  14.706  0.00  0.00    +0.000 HD
BRANCH  18  32
ATOM     22  C   UNL     1      47.834   3.071  17.841  0.00  0.00    +0.000 C 
ATOM     23  C   UNL     1      49.223   3.600  17.750  0.00  0.00    +0.000 A 
ATOM     24  N   UNL     1      50.261   2.849  18.233  0.00  0.00    +0.000 N 
ATOM     25  C   UNL     1      51.435   3.504  18.055  0.00  0.00    +0.000 A 
ATOM     26  N   UNL     1      52.609   2.979  18.427  0.00  0.00    +0.000 NA
ATOM     27  C   UNL     1      53.628   3.785  18.137  0.00  0.00    +0.000 A 
ATOM     28  N   UNL     1      53.560   4.990  17.549  0.00  0.00    +0.000 NA
ATOM     29  C   UNL     1      52.345   5.495  17.175  0.00  0.00    +0.000 A 
ATOM     30  C   UNL     1      52.418   6.827  16.502  0.00  0.00    +0.000 C 
ATOM     31  C   UNL     1      51.184   4.730  17.440  0.00  0.00    +0.000 A 
ATOM     32  C   UNL     1      49.741   4.799  17.237  0.00  0.00    +0.000 A 
ATOM     33  H   UNL     1      50.196   1.933  18.647  0.00  0.00    +0.000 HD
ENDBRANCH  18  32
ENDBRANCH   1  20
TORSDOF 6
ENDMDL
MODEL 8
REMARK VINA RESULT:    -7.306      3.159      8.617
REMARK INTER + INTRA:         -10.791
REMARK INTER:                  -9.544
REMARK INTRA:                  -1.247
REMARK UNBOUND:                -0.923
REMARK  Name = 
REMARK  8 active torsions:
REMARK  status: ('A' for Active; 'I' for Inactive)
REMARK    1  A    between atoms: C_1  and  C_2
REMARK    2  A    between atoms: C_8  and  C_9
REMARK    3  A    between atoms: C_11  and  C_12
REMARK    4  A    between atoms: N_14  and  C_15
REMARK    5  A    between atoms: C_15  and  C_16
REMARK    6  A    between atoms: C_19  and  N_20
REMARK    7  A    between atoms: N_20  and  C_21
REMARK    8  A    between atoms: C_21  and  C_22
REMARK                            x       y       z     vdW  Elec       q    Type
REMARK                         _______ _______ _______ _____ _____    ______ ____
ROOT
ATOM      1  C   UNL     1      47.815   9.131  14.112  0.00  0.00    +0.000 C 
ENDROOT
BRANCH   1   2
ATOM      2  C   UNL     1      48.594   8.463  15.220  0.00  0.00    +0.000 A 
ATOM      3  C   UNL     1      48.346   8.755  16.567  0.00  0.00    +0.000 A 
ATOM      4  C   UNL     1      49.034   8.080  17.593  0.00  0.00    +0.000 A 
ATOM      5  C   UNL     1      50.005   7.119  17.304  0.00  0.00    +0.000 A 
ATOM      6  C   UNL     1      50.265   6.850  15.955  0.00  0.00    +0.000 A 
ATOM      7  C   UNL     1      49.575   7.508  14.926  0.00  0.00    +0.000 A 
BRANCH   5   8
ATOM      8  N   UNL     1      50.693   6.359  18.259  0.00  0.00    +0.000 N 
ATOM      9  H   UNL     1      51.461   6.906  18.641  0.00  0.00    +0.000 HD
BRANCH   8  10
ATOM     10  C   UNL     1      49.962   5.646  19.307  0.00  0.00    +0.000 C 
BRANCH  10  11
ATOM     11  C   UNL     1      49.410   4.287  18.783  0.00  0.00    +0.000 C 
ATOM     12  C   UNL     1      50.433   3.678  17.809  0.00  0.00    +0.000 C 
ATOM     13  C   UNL     1      49.945   2.361  17.218  0.00  0.00    +0.000 C 
ATOM     14  C   UNL     1      48.555   2.527  16.617  0.00  0.00    +0.000 C 
ATOM     15  C   UNL     1      47.594   3.152  17.623  0.00  0.00    +0.000 C 
ATOM     16  N   UNL     1      48.092   4.437  18.124  0.00  0.00    +0.000 NA
ATOM     17  H   UNL     1      47.424   4.783  18.811  0.00  0.00    +0.000 HD
ENDBRANCH  10  11
ENDBRANCH   8  10
ENDBRANCH   5   8
ENDBRANCH   1   2
BRANCH   1  20
ATOM     18  C   UNL     1      46.682   7.568  12.582  0.00  0.00    +0.000 C 
ATOM     19  O   UNL     1      47.708   7.445  11.922  0.00  0.00    +0.000 OA
ATOM     20  N   UNL     1      46.647   8.365  13.709  0.00  0.00    +0.000 N 
ATOM     21  H   UNL     1      45.748   8.670  14.049  0.00  0.00    +0.000 HD
BRANCH  18  32
ATOM     22  C   UNL     1      44.317   9.072  11.072  0.00  0.00    +0.000 C 
ATOM     23  C   UNL     1      44.413   7.645  11.488  0.00  0.00    +0.000 A 
ATOM     24  N   UNL     1      43.385   6.789  11.198  0.00  0.00    +0.000 N 
ATOM     25  C   UNL     1      43.668   5.546  11.658  0.00  0.00    +0.000 A 
ATOM     26  N   UNL     1      42.831   4.514  11.489  0.00  0.00    +0.000 NA
ATOM     27  C   UNL     1      43.320   3.387  12.001  0.00  0.00    +0.000 A 
ATOM     28  N   UNL     1      44.497   3.233  12.627  0.00  0.00    +0.000 NA
ATOM     29  C   UNL     1      45.333   4.305  12.778  0.00  0.00    +0.000 A 
ATOM     30  C   UNL     1      46.622   3.984  13.462  0.00  0.00    +0.000 C 
ATOM     31  C   UNL     1      44.915   5.563  12.280  0.00  0.00    +0.000 A 
ATOM     32  C   UNL     1      45.408   6.931  12.172  0.00  0.00    +0.000 A 
ATOM     33  H   UNL     1      42.540   7.016  10.699  0.00  0.00    +0.000 HD
ENDBRANCH  18  32
ENDBRANCH   1  20
TORSDOF 6
ENDMDL
MODEL 9
REMARK VINA RESULT:    -7.244      3.935      6.333
REMARK INTER + INTRA:         -10.707
REMARK INTER:                  -9.779
REMARK INTRA:                  -0.928
REMARK UNBOUND:                -0.923
REMARK  Name = 
REMARK  8 active torsions:
REMARK  status: ('A' for Active; 'I' for Inactive)
REMARK    1  A    between atoms: C_1  and  C_2
REMARK    2  A    between atoms: C_8  and  C_9
REMARK    3  A    between atoms: C_11  and  C_12
REMARK    4  A    between atoms: N_14  and  C_15
REMARK    5  A    between atoms: C_15  and  C_16
REMARK    6  A    between atoms: C_19  and  N_20
REMARK    7  A    between atoms: N_20  and  C_21
REMARK    8  A    between atoms: C_21  and  C_22
REMARK                            x       y       z     vdW  Elec       q    Type
REMARK                         _______ _______ _______ _____ _____    ______ ____
ROOT
ATOM      1  C   UNL     1      47.723   6.062  13.945  0.00  0.00    +0.000 C 
ENDROOT
BRANCH   1   2
ATOM      2  C   UNL     1      46.714   5.491  12.978  0.00  0.00    +0.000 A 
ATOM      3  C   UNL     1      46.382   6.155  11.791  0.00  0.00    +0.000 A 
ATOM      4  C   UNL     1      45.487   5.583  10.866  0.00  0.00    +0.000 A 
ATOM      5  C   UNL     1      44.881   4.350  11.113  0.00  0.00    +0.000 A 
ATOM      6  C   UNL     1      45.199   3.702  12.312  0.00  0.00    +0.000 A 
ATOM      7  C   UNL     1      46.099   4.259  13.234  0.00  0.00    +0.000 A 
BRANCH   5   8
ATOM      8  N   UNL     1      44.028   3.682  10.223  0.00  0.00    +0.000 N 
ATOM      9  H   UNL     1      43.749   4.315   9.478  0.00  0.00    +0.000 HD
BRANCH   8  10
ATOM     10  C   UNL     1      44.382   2.359   9.707  0.00  0.00    +0.000 C 
BRANCH  10  11
ATOM     11  C   UNL     1      45.655   2.426   8.813  0.00  0.00    +0.000 C 
ATOM     12  C   UNL     1      45.404   3.417   7.664  0.00  0.00    +0.000 C 
ATOM     13  C   UNL     1      46.594   3.507   6.717  0.00  0.00    +0.000 C 
ATOM     14  C   UNL     1      47.008   2.119   6.244  0.00  0.00    +0.000 C 
ATOM     15  C   UNL     1      47.223   1.180   7.427  0.00  0.00    +0.000 C 
ATOM     16  N   UNL     1      46.033   1.097   8.278  0.00  0.00    +0.000 NA
ATOM     17  H   UNL     1      46.252   0.483   9.061  0.00  0.00    +0.000 HD
ENDBRANCH  10  11
ENDBRANCH   8  10
ENDBRANCH   5   8
ENDBRANCH   1   2
BRANCH   1  20
ATOM     18  C   UNL     1      48.492   8.381  13.626  0.00  0.00    +0.000 C 
ATOM     19  O   UNL     1      47.688   8.779  14.460  0.00  0.00    +0.000 OA
ATOM     20  N   UNL     1      48.604   7.038  13.324  0.00  0.00    +0.000 N 
ATOM     21  H   UNL     1      49.047   6.780  12.456  0.00  0.00    +0.000 HD
BRANCH  18  32
ATOM     22  C   UNL     1      51.675   8.413  13.690  0.00  0.00    +0.000 C 
ATOM     23  C   UNL     1      50.739   9.263  12.902  0.00  0.00    +0.000 A 
ATOM     24  N   UNL     1      51.244  10.203  12.044  0.00  0.00    +0.000 N 
ATOM     25  C   UNL     1      50.232  10.863  11.428  0.00  0.00    +0.000 A 
ATOM     26  N   UNL     1      50.455  11.826  10.523  0.00  0.00    +0.000 NA
ATOM     27  C   UNL     1      49.321  12.321  10.033  0.00  0.00    +0.000 A 
ATOM     28  N   UNL     1      48.073  11.950  10.362  0.00  0.00    +0.000 NA
ATOM     29  C   UNL     1      47.880  10.959  11.285  0.00  0.00    +0.000 A 
ATOM     30  C   UNL     1      46.444  10.625  11.530  0.00  0.00    +0.000 C 
ATOM     31  C   UNL     1      49.014  10.362  11.884  0.00  0.00    +0.000 A 
ATOM     32  C   UNL     1      49.338   9.315  12.846  0.00  0.00    +0.000 A 
ATOM     33  H   UNL     1      52.217  10.386  11.861  0.00  0.00    +0.000 HD
ENDBRANCH  18  32
ENDBRANCH   1  20
TORSDOF 6
ENDMDL
