MODEL 1
REMARK VINA RESULT:    -7.431      0.000      0.000
REMARK INTER + INTRA:          -9.482
REMARK INTER:                  -8.734
REMARK INTRA:                  -0.747
REMARK UNBOUND:                -0.747
REMARK  Name = 
REMARK  5 active torsions:
REMARK  status: ('A' for Active; 'I' for Inactive)
REMARK    1  A    between atoms: C_1  and  C_2
REMARK    2  A    between atoms: C_4  and  C_5
REMARK    3  A    between atoms: N_8  and  C_9
REMARK    4  A    between atoms: C_9  and  C_10
REMARK    5  A    between atoms: C_14  and  C_15
REMARK                            x       y       z     vdW  Elec       q    Type
REMARK                         _______ _______ _______ _____ _____    ______ ____
ROOT
ATOM      1  C   UNL     1      44.402   5.614  11.389  0.00  0.00    +0.000 C 
ATOM      2  C   UNL     1      43.060   6.336  11.275  0.00  0.00    +0.000 C 
ATOM      3  C   UNL     1      43.451   5.711  12.570  0.00  0.00    +0.000 C 
ENDROOT
BRANCH   1  11
ATOM      4  C   UNL     1      48.065   5.482  15.403  0.00  0.00    +0.000 C 
ATOM      5  C   UNL     1      47.908   6.202  14.098  0.00  0.00    +0.000 A 
ATOM      6  C   UNL     1      48.897   7.062  13.623  0.00  0.00    +0.000 A 
ATOM      7  C   UNL     1      48.704   7.686  12.396  0.00  0.00    +0.000 A 
ATOM      8  C   UNL     1      49.707   8.660  11.856  0.00  0.00    +0.000 C 
ATOM      9  N   UNL     1      47.610   7.465  11.629  0.00  0.00    +0.000 NA
ATOM     10  C   UNL     1      46.651   6.630  12.086  0.00  0.00    +0.000 A 
ATOM     11  N   UNL     1      45.563   6.482  11.235  0.00  0.00    +0.000 N 
ATOM     12  C   UNL     1      46.763   6.004  13.319  0.00  0.00    +0.000 A 
ATOM     13  H   UNL     1      45.744   6.960  10.360  0.00  0.00    +0.000 HD
ENDBRANCH   1  11
BRANCH   1  14
ATOM     14  C   UNL     1      44.535   4.228  10.758  0.00  0.00    +0.000 A 
ATOM     15  C   UNL     1      43.703   3.166  11.147  0.00  0.00    +0.000 A 
ATOM     16  C   UNL     1      43.724   1.943  10.481  0.00  0.00    +0.000 A 
ATOM     17  C   UNL     1      44.578   1.758   9.396  0.00  0.00    +0.000 A 
ATOM     18  C   UNL     1      45.443   2.779   8.971  0.00  0.00    +0.000 A 
ATOM     19  C   UNL     1      45.426   3.987   9.695  0.00  0.00    +0.000 A 
BRANCH  18  20
ATOM     20  C   UNL     1      46.279   2.631   7.766  0.00  0.00    +0.000 A 
ATOM     21  C   UNL     1      46.275   3.575   6.726  0.00  0.00    +0.000 A 
ATOM     22  C   UNL     1      47.030   3.363   5.572  0.00  0.00    +0.000 A 
ATOM     23  C   UNL     1      47.786   2.208   5.483  0.00  0.00    +0.000 A 
ATOM     24  N   UNL     1      47.833   1.272   6.450  0.00  0.00    +0.000 NA
ATOM     25  C   UNL     1      47.080   1.504   7.554  0.00  0.00    +0.000 A 
ENDBRANCH  18  20
ENDBRANCH   1  14
TORSDOF 3
ENDMDL
MODEL 2
REMARK VINA RESULT:    -6.962      2.425      5.054
REMARK INTER + INTRA:          -8.930
REMARK INTER:                  -8.053
REMARK INTRA:                  -0.877
REMARK UNBOUND:                -0.747
REMARK  Name = 
REMARK  5 active torsions:
REMARK  status: ('A' for Active; 'I' for Inactive)
REMARK    1  A    between atoms: C_1  and  C_2
REMARK    2  A    between atoms: C_4  and  C_5
REMARK    3  A    between atoms: N_8  and  C_9
REMARK    4  A    between atoms: C_9  and  C_10
REMARK    5  A    between atoms: C_14  and  C_15
REMARK                            x       y       z     vdW  Elec       q    Type
REMARK                         _______ _______ _______ _____ _____    ______ ____
ROOT
ATOM      1  C   UNL     1      48.862   7.809  12.678  0.00  0.00    +0.000 C 
ATOM      2  C   UNL     1      49.846   8.061  11.536  0.00  0.00    +0.000 C 
ATOM      3  C   UNL     1      49.399   9.201  12.386  0.00  0.00    +0.000 C 
ENDROOT
BRANCH   1  11
ATOM      4  C   UNL     1      47.895   9.468  17.763  0.00  0.00    +0.000 C 
ATOM      5  C   UNL     1      48.589   8.311  17.111  0.00  0.00    +0.000 A 
ATOM      6  C   UNL     1      49.142   7.279  17.868  0.00  0.00    +0.000 A 
ATOM      7  C   UNL     1      49.756   6.224  17.205  0.00  0.00    +0.000 A 
ATOM      8  C   UNL     1      50.413   5.110  17.965  0.00  0.00    +0.000 C 
ATOM      9  N   UNL     1      49.808   6.139  15.855  0.00  0.00    +0.000 NA
ATOM     10  C   UNL     1      49.270   7.137  15.118  0.00  0.00    +0.000 A 
ATOM     11  N   UNL     1      49.387   6.967  13.745  0.00  0.00    +0.000 N 
ATOM     12  C   UNL     1      48.676   8.239  15.716  0.00  0.00    +0.000 A 
ATOM     13  H   UNL     1      49.773   6.052  13.544  0.00  0.00    +0.000 HD
ENDBRANCH   1  11
BRANCH   1  14
ATOM     14  C   UNL     1      47.391   7.582  12.331  0.00  0.00    +0.000 A 
ATOM     15  C   UNL     1      46.432   8.589  12.518  0.00  0.00    +0.000 A 
ATOM     16  C   UNL     1      45.120   8.438  12.076  0.00  0.00    +0.000 A 
ATOM     17  C   UNL     1      44.739   7.269  11.420  0.00  0.00    +0.000 A 
ATOM     18  C   UNL     1      45.651   6.221  11.217  0.00  0.00    +0.000 A 
ATOM     19  C   UNL     1      46.957   6.391  11.717  0.00  0.00    +0.000 A 
BRANCH  18  20
ATOM     20  C   UNL     1      45.289   5.022  10.441  0.00  0.00    +0.000 A 
ATOM     21  C   UNL     1      45.573   4.897   9.071  0.00  0.00    +0.000 A 
ATOM     22  C   UNL     1      45.152   3.774   8.358  0.00  0.00    +0.000 A 
ATOM     23  C   UNL     1      44.459   2.787   9.034  0.00  0.00    +0.000 A 
ATOM     24  N   UNL     1      44.165   2.848  10.347  0.00  0.00    +0.000 NA
ATOM     25  C   UNL     1      44.579   3.959  11.008  0.00  0.00    +0.000 A 
ENDBRANCH  18  20
ENDBRANCH   1  14
TORSDOF 3
ENDMDL
MODEL 3
REMARK VINA RESULT:    -6.515      3.587      6.737
REMARK INTER + INTRA:          -8.405
REMARK INTER:                  -7.517
REMARK INTRA:                  -0.889
REMARK UNBOUND:                -0.747
REMARK  Name = 
REMARK  5 active torsions:
REMARK  status: ('A' for Active; 'I' for Inactive)
REMARK    1  A    between atoms: C_1  and  C_2
REMARK    2  A    between atoms: C_4  and  C_5
REMARK    3  A    between atoms: N_8  and  C_9
REMARK    4  A    between atoms: C_9  and  C_10
REMARK    5  A    between atoms: C_14  and  C_15
REMARK                            x       y       z     vdW  Elec       q    Type
REMARK                         _______ _______ _______ _____ _____    ______ ____
ROOT
ATOM      1  C   UNL     1      49.427   7.989  15.849  0.00  0.00    +0.000 C 
ATOM      2  C   UNL     1      49.715   9.399  16.361  0.00  0.00    +0.000 C 
ATOM      3  C   UNL     1      48.450   8.718  16.756  0.00  0.00    +0.000 C 
ENDROOT
BRANCH   1  11
ATOM      4  C   UNL     1      47.233   3.264  17.403  0.00  0.00    +0.000 C 
ATOM      5  C   UNL     1      48.611   3.850  17.326  0.00  0.00    +0.000 A 
ATOM      6  C   UNL     1      49.737   3.098  17.659  0.00  0.00    +0.000 A 
ATOM      7  C   UNL     1      50.989   3.690  17.550  0.00  0.00    +0.000 A 
ATOM      8  C   UNL     1      52.232   2.950  17.941  0.00  0.00    +0.000 C 
ATOM      9  N   UNL     1      51.163   4.955  17.099  0.00  0.00    +0.000 NA
ATOM     10  C   UNL     1      50.073   5.686  16.773  0.00  0.00    +0.000 A 
ATOM     11  N   UNL     1      50.352   6.975  16.338  0.00  0.00    +0.000 N 
ATOM     12  C   UNL     1      48.791   5.169  16.895  0.00  0.00    +0.000 A 
ATOM     13  H   UNL     1      51.354   7.096  16.245  0.00  0.00    +0.000 HD
ENDBRANCH   1  11
BRANCH   1  14
ATOM     14  C   UNL     1      48.983   7.822  14.395  0.00  0.00    +0.000 A 
ATOM     15  C   UNL     1      49.773   8.289  13.333  0.00  0.00    +0.000 A 
ATOM     16  C   UNL     1      49.443   8.018  12.007  0.00  0.00    +0.000 A 
ATOM     17  C   UNL     1      48.313   7.257  11.714  0.00  0.00    +0.000 A 
ATOM     18  C   UNL     1      47.479   6.775  12.735  0.00  0.00    +0.000 A 
ATOM     19  C   UNL     1      47.818   7.106  14.062  0.00  0.00    +0.000 A 
BRANCH  18  20
ATOM     20  C   UNL     1      46.337   5.889  12.445  0.00  0.00    +0.000 A 
ATOM     21  C   UNL     1      45.704   5.861  11.192  0.00  0.00    +0.000 A 
ATOM     22  C   UNL     1      44.583   5.057  10.980  0.00  0.00    +0.000 A 
ATOM     23  C   UNL     1      44.121   4.284  12.029  0.00  0.00    +0.000 A 
ATOM     24  N   UNL     1      44.691   4.264  13.249  0.00  0.00    +0.000 NA
ATOM     25  C   UNL     1      45.772   5.066  13.424  0.00  0.00    +0.000 A 
ENDBRANCH  18  20
ENDBRANCH   1  14
TORSDOF 3
ENDMDL
MODEL 4
REMARK VINA RESULT:    -6.268      2.214      7.482
REMARK INTER + INTRA:          -8.115
REMARK INTER:                  -7.810
REMARK INTRA:                  -0.305
REMARK UNBOUND:                -0.747
REMARK  Name = 
REMARK  5 active torsions:
REMARK  status: ('A' for Active; 'I' for Inactive)
REMARK    1  A    between atoms: C_1  and  C_2
REMARK    2  A    between atoms: C_4  and  C_5
REMARK    3  A    between atoms: N_8  and  C_9
REMARK    4  A    between atoms: C_9  and  C_10
REMARK    5  A    between atoms: C_14  and  C_15
REMARK                            x       y       z     vdW  Elec       q    Type
REMARK                         _______ _______ _______ _____ _____    ______ ____
ROOT
ATOM      1  C   UNL     1      46.962   8.011  12.396  0.00  0.00    +0.000 C 
ATOM      2  C   UNL     1      45.687   8.655  12.939  0.00  0.00    +0.000 C 
ATOM      3  C   UNL     1      46.743   9.513  12.331  0.00  0.00    +0.000 C 
ENDROOT
BRANCH   1  11
ATOM      4  C   UNL     1      43.289   4.058  13.052  0.00  0.00    +0.000 C 
ATOM      5  C   UNL     1      44.195   4.528  11.955  0.00  0.00    +0.000 A 
ATOM      6  C   UNL     1      44.177   3.932  10.695  0.00  0.00    +0.000 A 
ATOM      7  C   UNL     1      45.027   4.425   9.713  0.00  0.00    +0.000 A 
ATOM      8  C   UNL     1      45.089   3.793   8.355  0.00  0.00    +0.000 C 
ATOM      9  N   UNL     1      45.846   5.483   9.919  0.00  0.00    +0.000 NA
ATOM     10  C   UNL     1      45.864   6.065  11.139  0.00  0.00    +0.000 A 
ATOM     11  N   UNL     1      46.748   7.130  11.256  0.00  0.00    +0.000 N 
ATOM     12  C   UNL     1      45.069   5.599  12.175  0.00  0.00    +0.000 A 
ATOM     13  H   UNL     1      47.149   7.344  10.350  0.00  0.00    +0.000 HD
ENDBRANCH   1  11
BRANCH   1  14
ATOM     14  C   UNL     1      48.018   7.539  13.397  0.00  0.00    +0.000 A 
ATOM     15  C   UNL     1      49.224   8.236  13.567  0.00  0.00    +0.000 A 
ATOM     16  C   UNL     1      50.127   7.893  14.571  0.00  0.00    +0.000 A 
ATOM     17  C   UNL     1      49.834   6.845  15.441  0.00  0.00    +0.000 A 
ATOM     18  C   UNL     1      48.649   6.103  15.309  0.00  0.00    +0.000 A 
ATOM     19  C   UNL     1      47.780   6.449  14.255  0.00  0.00    +0.000 A 
BRANCH  18  20
ATOM     20  C   UNL     1      48.281   5.058  16.281  0.00  0.00    +0.000 A 
ATOM     21  C   UNL     1      49.083   4.744  17.390  0.00  0.00    +0.000 A 
ATOM     22  C   UNL     1      48.732   3.700  18.247  0.00  0.00    +0.000 A 
ATOM     23  C   UNL     1      47.574   2.993  17.982  0.00  0.00    +0.000 A 
ATOM     24  N   UNL     1      46.763   3.253  16.939  0.00  0.00    +0.000 NA
ATOM     25  C   UNL     1      47.139   4.267  16.119  0.00  0.00    +0.000 A 
ENDBRANCH  18  20
ENDBRANCH   1  14
TORSDOF 3
ENDMDL
MODEL 5
REMARK VINA RESULT:    -6.177      2.263      4.964
REMARK INTER + INTRA:          -8.008
REMARK INTER:                  -7.686
REMARK INTRA:                  -0.322
REMARK UNBOUND:                -0.747
REMARK  Name = 
REMARK  5 active torsions:
REMARK  status: ('A' for Active; 'I' for Inactive)
REMARK    1  A    between atoms: C_1  and  C_2
REMARK    2  A    between atoms: C_4  and  C_5
REMARK    3  A    between atoms: N_8  and  C_9
REMARK    4  A    between atoms: C_9  and  C_10
REMARK    5  A    between atoms: C_14  and  C_15
REMARK                            x       y       z     vdW  Elec       q    Type
REMARK                         _______ _______ _______ _____ _____    ______ ____
ROOT
ATOM      1  C   UNL     1      48.458   7.164  13.716  0.00  0.00    +0.000 C 
ATOM      2  C   UNL     1      48.564   7.976  15.006  0.00  0.00    +0.000 C 
ATOM      3  C   UNL     1      48.445   6.492  15.079  0.00  0.00    +0.000 C 
ENDROOT
BRANCH   1  11
ATOM      4  C   UNL     1      49.262  11.792  10.981  0.00  0.00    +0.000 C 
ATOM      5  C   UNL     1      49.968  10.478  11.125  0.00  0.00    +0.000 A 
ATOM      6  C   UNL     1      51.188  10.239  10.495  0.00  0.00    +0.000 A 
ATOM      7  C   UNL     1      51.804   9.008  10.682  0.00  0.00    +0.000 A 
ATOM      8  C   UNL     1      53.092   8.674   9.991  0.00  0.00    +0.000 C 
ATOM      9  N   UNL     1      51.285   8.044  11.479  0.00  0.00    +0.000 NA
ATOM     10  C   UNL     1      50.103   8.274  12.093  0.00  0.00    +0.000 A 
ATOM     11  N   UNL     1      49.646   7.221  12.874  0.00  0.00    +0.000 N 
ATOM     12  C   UNL     1      49.416   9.466  11.919  0.00  0.00    +0.000 A 
ATOM     13  H   UNL     1      50.353   6.497  12.922  0.00  0.00    +0.000 HD
ENDBRANCH   1  11
BRANCH   1  14
ATOM     14  C   UNL     1      47.125   7.167  12.966  0.00  0.00    +0.000 A 
ATOM     15  C   UNL     1      46.313   8.311  12.924  0.00  0.00    +0.000 A 
ATOM     16  C   UNL     1      45.170   8.364  12.130  0.00  0.00    +0.000 A 
ATOM     17  C   UNL     1      44.818   7.267  11.347  0.00  0.00    +0.000 A 
ATOM     18  C   UNL     1      45.583   6.090  11.360  0.00  0.00    +0.000 A 
ATOM     19  C   UNL     1      46.708   6.056  12.207  0.00  0.00    +0.000 A 
BRANCH  18  20
ATOM     20  C   UNL     1      45.277   4.960  10.464  0.00  0.00    +0.000 A 
ATOM     21  C   UNL     1      45.629   4.960   9.104  0.00  0.00    +0.000 A 
ATOM     22  C   UNL     1      45.260   3.900   8.276  0.00  0.00    +0.000 A 
ATOM     23  C   UNL     1      44.551   2.850   8.828  0.00  0.00    +0.000 A 
ATOM     24  N   UNL     1      44.193   2.792  10.125  0.00  0.00    +0.000 NA
ATOM     25  C   UNL     1      44.557   3.844  10.900  0.00  0.00    +0.000 A 
ENDBRANCH  18  20
ENDBRANCH   1  14
TORSDOF 3
ENDMDL
MODEL 6
REMARK VINA RESULT:    -6.173      2.371      7.740
REMARK INTER + INTRA:          -8.003
REMARK INTER:                  -7.053
REMARK INTRA:                  -0.950
REMARK UNBOUND:                -0.747
REMARK  Name = 
REMARK  5 active torsions:
REMARK  status: ('A' for Active; 'I' for Inactive)
REMARK    1  A    between atoms: C_1  and  C_2
REMARK    2  A    between atoms: C_4  and  C_5
REMARK    3  A    between atoms: N_8  and  C_9
REMARK    4  A    between atoms: C_9  and  C_10
REMARK    5  A    between atoms: C_14  and  C_15
REMARK                            x       y       z     vdW  Elec       q    Type
REMARK                         _______ _______ _______ _____ _____    ______ ____
ROOT
ATOM      1  C   UNL     1      45.809   8.017  12.312  0.00  0.00    +0.000 C 
ATOM      2  C   UNL     1      45.051   9.260  12.776  0.00  0.00    +0.000 C 
ATOM      3  C   UNL     1      45.384   9.099  11.333  0.00  0.00    +0.000 C 
ENDROOT
BRANCH   1  11
ATOM      4  C   UNL     1      45.992   4.522   8.152  0.00  0.00    +0.000 C 
ATOM      5  C   UNL     1      45.362   4.562   9.512  0.00  0.00    +0.000 A 
ATOM      6  C   UNL     1      44.641   3.476  10.007  0.00  0.00    +0.000 A 
ATOM      7  C   UNL     1      44.096   3.565  11.282  0.00  0.00    +0.000 A 
ATOM      8  C   UNL     1      43.269   2.451  11.850  0.00  0.00    +0.000 C 
ATOM      9  N   UNL     1      44.266   4.649  12.076  0.00  0.00    +0.000 NA
ATOM     10  C   UNL     1      44.967   5.702  11.599  0.00  0.00    +0.000 A 
ATOM     11  N   UNL     1      45.073   6.770  12.480  0.00  0.00    +0.000 N 
ATOM     12  C   UNL     1      45.505   5.695  10.321  0.00  0.00    +0.000 A 
ATOM     13  H   UNL     1      44.683   6.513  13.380  0.00  0.00    +0.000 HD
ENDBRANCH   1  11
BRANCH   1  14
ATOM     14  C   UNL     1      47.309   7.933  12.597  0.00  0.00    +0.000 A 
ATOM     15  C   UNL     1      48.245   8.575  11.772  0.00  0.00    +0.000 A 
ATOM     16  C   UNL     1      49.598   8.620  12.103  0.00  0.00    +0.000 A 
ATOM     17  C   UNL     1      50.043   8.028  13.282  0.00  0.00    +0.000 A 
ATOM     18  C   UNL     1      49.155   7.359  14.139  0.00  0.00    +0.000 A 
ATOM     19  C   UNL     1      47.802   7.295  13.751  0.00  0.00    +0.000 A 
BRANCH  18  20
ATOM     20  C   UNL     1      49.596   6.814  15.436  0.00  0.00    +0.000 A 
ATOM     21  C   UNL     1      50.915   6.943  15.899  0.00  0.00    +0.000 A 
ATOM     22  C   UNL     1      51.307   6.353  17.100  0.00  0.00    +0.000 A 
ATOM     23  C   UNL     1      50.365   5.649  17.826  0.00  0.00    +0.000 A 
ATOM     24  N   UNL     1      49.084   5.497  17.436  0.00  0.00    +0.000 NA
ATOM     25  C   UNL     1      48.739   6.074  16.257  0.00  0.00    +0.000 A 
ENDBRANCH  18  20
ENDBRANCH   1  14
TORSDOF 3
ENDMDL
MODEL 7
REMARK VINA RESULT:    -6.061      3.934      6.697
REMARK INTER + INTRA:          -7.871
REMARK INTER:                  -7.666
REMARK INTRA:                  -0.205
REMARK UNBOUND:                -0.747
REMARK  Name = 
REMARK  5 active torsions:
REMARK  status: ('A' for Active; 'I' for Inactive)
REMARK    1  A    between atoms: C_1  and  C_2
REMARK    2  A    between atoms: C_4  and  C_5
REMARK    3  A    between atoms: N_8  and  C_9
REMARK    4  A    between atoms: C_9  and  C_10
REMARK    5  A    between atoms: C_14  and  C_15
REMARK                            x       y       z     vdW  Elec       q    Type
REMARK                         _______ _______ _______ _____ _____    ______ ____
ROOT
ATOM      1  C   UNL     1      48.206   4.600  16.657  0.00  0.00    +0.000 C 
ATOM      2  C   UNL     1      47.078   4.182  17.599  0.00  0.00    +0.000 C 
ATOM      3  C   UNL     1      47.730   3.159  16.734  0.00  0.00    +0.000 C 
ENDROOT
BRANCH   1  11
ATOM      4  C   UNL     1      52.117   0.920  17.498  0.00  0.00    +0.000 C 
ATOM      5  C   UNL     1      51.918   2.379  17.780  0.00  0.00    +0.000 A 
ATOM      6  C   UNL     1      52.925   3.148  18.362  0.00  0.00    +0.000 A 
ATOM      7  C   UNL     1      52.688   4.499  18.581  0.00  0.00    +0.000 A 
ATOM      8  C   UNL     1      53.713   5.366  19.249  0.00  0.00    +0.000 C 
ATOM      9  N   UNL     1      51.533   5.107  18.220  0.00  0.00    +0.000 NA
ATOM     10  C   UNL     1      50.556   4.364  17.653  0.00  0.00    +0.000 A 
ATOM     11  N   UNL     1      49.406   5.074  17.334  0.00  0.00    +0.000 N 
ATOM     12  C   UNL     1      50.712   3.003  17.441  0.00  0.00    +0.000 A 
ATOM     13  H   UNL     1      49.557   6.063  17.495  0.00  0.00    +0.000 HD
ENDBRANCH   1  11
BRANCH   1  14
ATOM     14  C   UNL     1      47.839   5.350  15.376  0.00  0.00    +0.000 A 
ATOM     15  C   UNL     1      48.525   6.511  14.988  0.00  0.00    +0.000 A 
ATOM     16  C   UNL     1      48.290   7.119  13.757  0.00  0.00    +0.000 A 
ATOM     17  C   UNL     1      47.364   6.566  12.875  0.00  0.00    +0.000 A 
ATOM     18  C   UNL     1      46.637   5.414  13.215  0.00  0.00    +0.000 A 
ATOM     19  C   UNL     1      46.868   4.851  14.486  0.00  0.00    +0.000 A 
BRANCH  18  20
ATOM     20  C   UNL     1      45.728   4.763  12.255  0.00  0.00    +0.000 A 
ATOM     21  C   UNL     1      45.447   5.311  10.992  0.00  0.00    +0.000 A 
ATOM     22  C   UNL     1      44.527   4.699  10.141  0.00  0.00    +0.000 A 
ATOM     23  C   UNL     1      43.909   3.538  10.566  0.00  0.00    +0.000 A 
ATOM     24  N   UNL     1      44.143   2.963  11.762  0.00  0.00    +0.000 NA
ATOM     25  C   UNL     1      45.035   3.590  12.570  0.00  0.00    +0.000 A 
ENDBRANCH  18  20
ENDBRANCH   1  14
TORSDOF 3
ENDMDL
MODEL 8
REMARK VINA RESULT:    -5.837      2.373      6.999
REMARK INTER + INTRA:          -7.608
REMARK INTER:                  -6.670
REMARK INTRA:                  -0.938
REMARK UNBOUND:                -0.747
REMARK  Name = 
REMARK  5 active torsions:
REMARK  status: ('A' for Active; 'I' for Inactive)
REMARK    1  A    between atoms: C_1  and  C_2
REMARK    2  A    between atoms: C_4  and  C_5
REMARK    3  A    between atoms: N_8  and  C_9
REMARK    4  A    between atoms: C_9  and  C_10
REMARK    5  A    between atoms: C_14  and  C_15
REMARK                            x       y       z     vdW  Elec       q    Type
REMARK                         _______ _______ _______ _____ _____    ______ ____
ROOT
ATOM      1  C   UNL     1      45.734   7.986  12.318  0.00  0.00    +0.000 C 
ATOM      2  C   UNL     1      44.920   9.226  12.687  0.00  0.00    +0.000 C 
ATOM      3  C   UNL     1      45.374   9.036  11.280  0.00  0.00    +0.000 C 
ENDROOT
BRANCH   1  11
ATOM      4  C   UNL     1      46.057   4.529   8.136  0.00  0.00    +0.000 C 
ATOM      5  C   UNL     1      45.393   4.551   9.479  0.00  0.00    +0.000 A 
ATOM      6  C   UNL     1      44.671   3.454   9.948  0.00  0.00    +0.000 A 
ATOM      7  C   UNL     1      44.094   3.526  11.209  0.00  0.00    +0.000 A 
ATOM      8  C   UNL     1      43.264   2.399  11.747  0.00  0.00    +0.000 C 
ATOM      9  N   UNL     1      44.233   4.605  12.016  0.00  0.00    +0.000 NA
ATOM     10  C   UNL     1      44.935   5.669  11.565  0.00  0.00    +0.000 A 
ATOM     11  N   UNL     1      45.007   6.731  12.458  0.00  0.00    +0.000 N 
ATOM     12  C   UNL     1      45.504   5.678  10.301  0.00  0.00    +0.000 A 
ATOM     13  H   UNL     1      44.597   6.462  13.345  0.00  0.00    +0.000 HD
ENDBRANCH   1  11
BRANCH   1  14
ATOM     14  C   UNL     1      47.206   7.937  12.728  0.00  0.00    +0.000 A 
ATOM     15  C   UNL     1      47.637   7.155  13.811  0.00  0.00    +0.000 A 
ATOM     16  C   UNL     1      48.990   6.997  14.102  0.00  0.00    +0.000 A 
ATOM     17  C   UNL     1      49.949   7.614  13.302  0.00  0.00    +0.000 A 
ATOM     18  C   UNL     1      49.577   8.419  12.214  0.00  0.00    +0.000 A 
ATOM     19  C   UNL     1      48.199   8.593  11.975  0.00  0.00    +0.000 A 
BRANCH  18  20
ATOM     20  C   UNL     1      50.581   8.997  11.302  0.00  0.00    +0.000 A 
ATOM     21  C   UNL     1      51.639   8.242  10.771  0.00  0.00    +0.000 A 
ATOM     22  C   UNL     1      52.607   8.844   9.966  0.00  0.00    +0.000 A 
ATOM     23  C   UNL     1      52.491  10.195   9.698  0.00  0.00    +0.000 A 
ATOM     24  N   UNL     1      51.495  10.967  10.173  0.00  0.00    +0.000 NA
ATOM     25  C   UNL     1      50.577  10.353  10.961  0.00  0.00    +0.000 A 
ENDBRANCH  18  20
ENDBRANCH   1  14
TORSDOF 3
ENDMDL
MODEL 9
REMARK VINA RESULT:    -5.807      3.864      6.705
REMARK INTER + INTRA:          -7.573
REMARK INTER:                  -7.035
REMARK INTRA:                  -0.538
REMARK UNBOUND:                -0.747
REMARK  Name = 
REMARK  5 active torsions:
REMARK  status: ('A' for Active; 'I' for Inactive)
REMARK    1  A    between atoms: C_1  and  C_2
REMARK    2  A    between atoms: C_4  and  C_5
REMARK    3  A    between atoms: N_8  and  C_9
REMARK    4  A    between atoms: C_9  and  C_10
REMARK    5  A    between atoms: C_14  and  C_15
REMARK                            x       y       z     vdW  Elec       q    Type
REMARK                         _______ _______ _______ _____ _____    ______ ____
ROOT
ATOM      1  C   UNL     1      47.798   4.642  16.940  0.00  0.00    +0.000 C 
ATOM      2  C   UNL     1      47.425   3.165  17.061  0.00  0.00    +0.000 C 
ATOM      3  C   UNL     1      48.861   3.563  17.069  0.00  0.00    +0.000 C 
ENDROOT
BRANCH   1  11
ATOM      4  C   UNL     1      51.574   7.829  19.204  0.00  0.00    +0.000 C 
ATOM      5  C   UNL     1      50.119   7.546  19.421  0.00  0.00    +0.000 A 
ATOM      6  C   UNL     1      49.384   8.232  20.387  0.00  0.00    +0.000 A 
ATOM      7  C   UNL     1      48.033   7.938  20.529  0.00  0.00    +0.000 A 
ATOM      8  C   UNL     1      47.203   8.606  21.584  0.00  0.00    +0.000 C 
ATOM      9  N   UNL     1      47.394   7.039  19.744  0.00  0.00    +0.000 NA
ATOM     10  C   UNL     1      48.104   6.374  18.805  0.00  0.00    +0.000 A 
ATOM     11  N   UNL     1      47.364   5.463  18.063  0.00  0.00    +0.000 N 
ATOM     12  C   UNL     1      49.463   6.591  18.636  0.00  0.00    +0.000 A 
ATOM     13  H   UNL     1      46.382   5.543  18.300  0.00  0.00    +0.000 HD
ENDBRANCH   1  11
BRANCH   1  14
ATOM     14  C   UNL     1      47.693   5.305  15.566  0.00  0.00    +0.000 A 
ATOM     15  C   UNL     1      48.613   6.281  15.154  0.00  0.00    +0.000 A 
ATOM     16  C   UNL     1      48.606   6.788  13.857  0.00  0.00    +0.000 A 
ATOM     17  C   UNL     1      47.677   6.315  12.932  0.00  0.00    +0.000 A 
ATOM     18  C   UNL     1      46.723   5.350  13.291  0.00  0.00    +0.000 A 
ATOM     19  C   UNL     1      46.731   4.892  14.624  0.00  0.00    +0.000 A 
BRANCH  18  20
ATOM     20  C   UNL     1      45.800   4.771  12.299  0.00  0.00    +0.000 A 
ATOM     21  C   UNL     1      45.492   5.415  11.089  0.00  0.00    +0.000 A 
ATOM     22  C   UNL     1      44.560   4.864  10.209  0.00  0.00    +0.000 A 
ATOM     23  C   UNL     1      43.957   3.669  10.553  0.00  0.00    +0.000 A 
ATOM     24  N   UNL     1      44.217   3.003  11.694  0.00  0.00    +0.000 NA
ATOM     25  C   UNL     1      45.120   3.571  12.533  0.00  0.00    +0.000 A 
ENDBRANCH  18  20
ENDBRANCH   1  14
TORSDOF 3
ENDMDL
