MODEL 1
REMARK VINA RESULT:    -8.417      0.000      0.000
REMARK INTER + INTRA:         -12.414
REMARK INTER:                 -11.370
REMARK INTRA:                  -1.044
REMARK UNBOUND:                -1.044
REMARK  Name = 
REMARK  7 active torsions:
REMARK  status: ('A' for Active; 'I' for Inactive)
REMARK    1  A    between atoms: C_1  and  S_2
REMARK    2  A    between atoms: S_2  and  C_5
REMARK    3  A    between atoms: C_8  and  C_9
REMARK    4  A    between atoms: C_9  and  C_10
REMARK    5  A    between atoms: C_13  and  C_14
REMARK    6  A    between atoms: C_14  and  N_15
REMARK    7  A    between atoms: C_16  and  C_18
REMARK                            x       y       z     vdW  Elec       q    Type
REMARK                         _______ _______ _______ _____ _____    ______ ____
ROOT
ATOM      1  C   UNL     1      44.735   5.689  11.446  0.00  0.00    +0.000 A 
ATOM      2  C   UNL     1      44.514   7.073  11.415  0.00  0.00    +0.000 A 
ATOM      3  C   UNL     1      45.302   7.942  12.181  0.00  0.00    +0.000 A 
ATOM      4  C   UNL     1      46.330   7.444  12.992  0.00  0.00    +0.000 A 
ATOM      5  C   UNL     1      46.508   6.057  13.070  0.00  0.00    +0.000 A 
ATOM      6  C   UNL     1      45.728   5.189  12.299  0.00  0.00    +0.000 A 
ENDROOT
BRANCH   1   7
ATOM      7  C   UNL     1      43.942   4.761  10.552  0.00  0.00    +0.000 C 
BRANCH   7  11
ATOM      8  C   UNL     1      46.349   2.564   7.715  0.00  0.00    +0.000 A 
ATOM      9  C   UNL     1      45.621   1.872   8.687  0.00  0.00    +0.000 A 
ATOM     10  C   UNL     1      44.838   2.585   9.599  0.00  0.00    +0.000 A 
ATOM     11  C   UNL     1      44.786   3.987   9.558  0.00  0.00    +0.000 A 
ATOM     12  C   UNL     1      45.550   4.665   8.593  0.00  0.00    +0.000 A 
ATOM     13  C   UNL     1      46.331   3.959   7.673  0.00  0.00    +0.000 A 
BRANCH   8  15
ATOM     14  C   UNL     1      46.919   2.383   4.992  0.00  0.00    +0.000 C 
ATOM     15  S   UNL     1      47.345   1.658   6.554  0.00  0.00    +0.000 S 
ATOM     16  O   UNL     1      46.880   0.285   6.551  0.00  0.00    +0.000 OA
ATOM     17  O   UNL     1      48.736   1.972   6.828  0.00  0.00    +0.000 OA
ENDBRANCH   8  15
ENDBRANCH   7  11
ENDBRANCH   1   7
BRANCH   4  18
ATOM     18  C   UNL     1      47.232   8.370  13.768  0.00  0.00    +0.000 C 
BRANCH  18  19
ATOM     19  N   UNL     1      47.759   7.741  14.951  0.00  0.00    +0.000 N 
ATOM     20  C   UNL     1      48.994   7.146  14.951  0.00  0.00    +0.000 C 
ATOM     21  O   UNL     1      49.720   7.146  13.958  0.00  0.00    +0.000 OA
ATOM     22  H   UNL     1      47.092   7.501  15.679  0.00  0.00    +0.000 HD
BRANCH  20  23
ATOM     23  C   UNL     1      49.439   6.555  16.220  0.00  0.00    +0.000 A 
ATOM     24  C   UNL     1      50.521   7.102  16.896  0.00  0.00    +0.000 A 
ATOM     25  S   UNL     1      50.873   6.317  18.370  0.00  0.00    +0.000 S 
ATOM     26  C   UNL     1      49.626   5.189  18.129  0.00  0.00    +0.000 A 
ATOM     27  N   UNL     1      49.401   4.190  19.028  0.00  0.00    +0.000 NA
ATOM     28  C   UNL     1      48.439   3.390  18.706  0.00  0.00    +0.000 A 
ATOM     29  N   UNL     1      47.676   3.501  17.573  0.00  0.00    +0.000 N 
ATOM     30  C   UNL     1      47.849   4.504  16.652  0.00  0.00    +0.000 A 
ATOM     31  O   UNL     1      47.121   4.598  15.668  0.00  0.00    +0.000 OA
ATOM     32  C   UNL     1      48.929   5.423  16.956  0.00  0.00    +0.000 A 
ATOM     33  H   UNL     1      46.929   2.849  17.384  0.00  0.00    +0.000 HD
ENDBRANCH  20  23
ENDBRANCH  18  19
ENDBRANCH   4  18
TORSDOF 6
ENDMDL
MODEL 2
REMARK VINA RESULT:    -7.364      1.960      2.438
REMARK INTER + INTRA:         -10.990
REMARK INTER:                  -9.914
REMARK INTRA:                  -1.076
REMARK UNBOUND:                -1.044
REMARK  Name = 
REMARK  7 active torsions:
REMARK  status: ('A' for Active; 'I' for Inactive)
REMARK    1  A    between atoms: C_1  and  S_2
REMARK    2  A    between atoms: S_2  and  C_5
REMARK    3  A    between atoms: C_8  and  C_9
REMARK    4  A    between atoms: C_9  and  C_10
REMARK    5  A    between atoms: C_13  and  C_14
REMARK    6  A    between atoms: C_14  and  N_15
REMARK    7  A    between atoms: C_16  and  C_18
REMARK                            x       y       z     vdW  Elec       q    Type
REMARK                         _______ _______ _______ _____ _____    ______ ____
ROOT
ATOM      1  C   UNL     1      45.156   6.122  11.405  0.00  0.00    +0.000 A 
ATOM      2  C   UNL     1      46.452   5.761  11.798  0.00  0.00    +0.000 A 
ATOM      3  C   UNL     1      47.234   6.628  12.572  0.00  0.00    +0.000 A 
ATOM      4  C   UNL     1      46.734   7.874  12.972  0.00  0.00    +0.000 A 
ATOM      5  C   UNL     1      45.463   8.259  12.526  0.00  0.00    +0.000 A 
ATOM      6  C   UNL     1      44.678   7.391  11.760  0.00  0.00    +0.000 A 
ENDROOT
BRANCH   1   7
ATOM      7  C   UNL     1      44.282   5.150  10.644  0.00  0.00    +0.000 C 
BRANCH   7  11
ATOM      8  C   UNL     1      46.425   2.717   7.788  0.00  0.00    +0.000 A 
ATOM      9  C   UNL     1      45.701   2.103   8.814  0.00  0.00    +0.000 A 
ATOM     10  C   UNL     1      45.003   2.893   9.732  0.00  0.00    +0.000 A 
ATOM     11  C   UNL     1      45.033   4.293   9.644  0.00  0.00    +0.000 A 
ATOM     12  C   UNL     1      45.792   4.891   8.623  0.00  0.00    +0.000 A 
ATOM     13  C   UNL     1      46.488   4.109   7.697  0.00  0.00    +0.000 A 
BRANCH   8  15
ATOM     14  C   UNL     1      46.810   2.370   5.048  0.00  0.00    +0.000 C 
ATOM     15  S   UNL     1      47.312   1.714   6.619  0.00  0.00    +0.000 S 
ATOM     16  O   UNL     1      46.802   0.360   6.722  0.00  0.00    +0.000 OA
ATOM     17  O   UNL     1      48.728   1.990   6.787  0.00  0.00    +0.000 OA
ENDBRANCH   8  15
ENDBRANCH   7  11
ENDBRANCH   1   7
BRANCH   4  18
ATOM     18  C   UNL     1      47.535   8.788  13.864  0.00  0.00    +0.000 C 
BRANCH  18  19
ATOM     19  N   UNL     1      47.699   8.241  15.186  0.00  0.00    +0.000 N 
ATOM     20  C   UNL     1      48.880   7.663  15.576  0.00  0.00    +0.000 C 
ATOM     21  O   UNL     1      49.859   7.611  14.833  0.00  0.00    +0.000 OA
ATOM     22  H   UNL     1      46.851   8.038  15.708  0.00  0.00    +0.000 HD
BRANCH  20  23
ATOM     23  C   UNL     1      48.942   7.158  16.954  0.00  0.00    +0.000 A 
ATOM     24  C   UNL     1      49.440   5.887  17.202  0.00  0.00    +0.000 A 
ATOM     25  S   UNL     1      49.477   5.479  18.859  0.00  0.00    +0.000 S 
ATOM     26  C   UNL     1      48.780   6.966  19.296  0.00  0.00    +0.000 A 
ATOM     27  N   UNL     1      48.503   7.255  20.597  0.00  0.00    +0.000 NA
ATOM     28  C   UNL     1      47.951   8.410  20.781  0.00  0.00    +0.000 A 
ATOM     29  N   UNL     1      47.660   9.304  19.785  0.00  0.00    +0.000 N 
ATOM     30  C   UNL     1      47.944   9.068  18.463  0.00  0.00    +0.000 A 
ATOM     31  O   UNL     1      47.707   9.908  17.600  0.00  0.00    +0.000 OA
ATOM     32  C   UNL     1      48.549   7.777  18.198  0.00  0.00    +0.000 A 
ATOM     33  H   UNL     1      47.239  10.196  19.996  0.00  0.00    +0.000 HD
ENDBRANCH  20  23
ENDBRANCH  18  19
ENDBRANCH   4  18
TORSDOF 6
ENDMDL
MODEL 3
REMARK VINA RESULT:    -7.204      1.758      2.414
REMARK INTER + INTRA:         -10.775
REMARK INTER:                  -9.586
REMARK INTRA:                  -1.189
REMARK UNBOUND:                -1.044
REMARK  Name = 
REMARK  7 active torsions:
REMARK  status: ('A' for Active; 'I' for Inactive)
REMARK    1  A    between atoms: C_1  and  S_2
REMARK    2  A    between atoms: S_2  and  C_5
REMARK    3  A    between atoms: C_8  and  C_9
REMARK    4  A    between atoms: C_9  and  C_10
REMARK    5  A    between atoms: C_13  and  C_14
REMARK    6  A    between atoms: C_14  and  N_15
REMARK    7  A    between atoms: C_16  and  C_18
REMARK                            x       y       z     vdW  Elec       q    Type
REMARK                         _______ _______ _______ _____ _____    ______ ____
ROOT
ATOM      1  C   UNL     1      45.278   6.200  11.739  0.00  0.00    +0.000 A 
ATOM      2  C   UNL     1      46.274   5.610  12.530  0.00  0.00    +0.000 A 
ATOM      3  C   UNL     1      47.092   6.394  13.354  0.00  0.00    +0.000 A 
ATOM      4  C   UNL     1      46.929   7.784  13.406  0.00  0.00    +0.000 A 
ATOM      5  C   UNL     1      45.976   8.378  12.568  0.00  0.00    +0.000 A 
ATOM      6  C   UNL     1      45.153   7.596  11.751  0.00  0.00    +0.000 A 
ENDROOT
BRANCH   1   7
ATOM      7  C   UNL     1      44.339   5.345  10.917  0.00  0.00    +0.000 C 
BRANCH   7  11
ATOM      8  C   UNL     1      46.315   2.878   7.970  0.00  0.00    +0.000 A 
ATOM      9  C   UNL     1      46.422   4.269   7.892  0.00  0.00    +0.000 A 
ATOM     10  C   UNL     1      45.787   5.065   8.850  0.00  0.00    +0.000 A 
ATOM     11  C   UNL     1      45.033   4.482   9.881  0.00  0.00    +0.000 A 
ATOM     12  C   UNL     1      44.913   3.083   9.924  0.00  0.00    +0.000 A 
ATOM     13  C   UNL     1      45.550   2.280   8.973  0.00  0.00    +0.000 A 
BRANCH   8  15
ATOM     14  C   UNL     1      46.821   0.213   7.326  0.00  0.00    +0.000 C 
ATOM     15  S   UNL     1      47.122   1.866   6.753  0.00  0.00    +0.000 S 
ATOM     16  O   UNL     1      48.547   2.118   6.844  0.00  0.00    +0.000 OA
ATOM     17  O   UNL     1      46.415   2.039   5.497  0.00  0.00    +0.000 OA
ENDBRANCH   8  15
ENDBRANCH   7  11
ENDBRANCH   1   7
BRANCH   4  18
ATOM     18  C   UNL     1      47.753   8.634  14.340  0.00  0.00    +0.000 C 
BRANCH  18  19
ATOM     19  N   UNL     1      48.087   7.931  15.552  0.00  0.00    +0.000 N 
ATOM     20  C   UNL     1      48.350   8.606  16.717  0.00  0.00    +0.000 C 
ATOM     21  O   UNL     1      48.286   9.832  16.790  0.00  0.00    +0.000 OA
ATOM     22  H   UNL     1      48.397   6.969  15.454  0.00  0.00    +0.000 HD
BRANCH  20  23
ATOM     23  C   UNL     1      48.657   7.786  17.896  0.00  0.00    +0.000 A 
ATOM     24  C   UNL     1      48.057   8.075  19.114  0.00  0.00    +0.000 A 
ATOM     25  S   UNL     1      48.495   6.999  20.363  0.00  0.00    +0.000 S 
ATOM     26  C   UNL     1      49.541   6.143  19.333  0.00  0.00    +0.000 A 
ATOM     27  N   UNL     1      50.275   5.092  19.794  0.00  0.00    +0.000 NA
ATOM     28  C   UNL     1      51.046   4.551  18.909  0.00  0.00    +0.000 A 
ATOM     29  N   UNL     1      51.144   4.958  17.605  0.00  0.00    +0.000 N 
ATOM     30  C   UNL     1      50.407   5.995  17.089  0.00  0.00    +0.000 A 
ATOM     31  O   UNL     1      50.489   6.308  15.904  0.00  0.00    +0.000 OA
ATOM     32  C   UNL     1      49.535   6.650  18.045  0.00  0.00    +0.000 A 
ATOM     33  H   UNL     1      51.758   4.485  16.958  0.00  0.00    +0.000 HD
ENDBRANCH  20  23
ENDBRANCH  18  19
ENDBRANCH   4  18
TORSDOF 6
ENDMDL
MODEL 4
REMARK VINA RESULT:    -6.944      3.982      9.116
REMARK INTER + INTRA:         -10.423
REMARK INTER:                  -9.289
REMARK INTRA:                  -1.134
REMARK UNBOUND:                -1.044
REMARK  Name = 
REMARK  7 active torsions:
REMARK  status: ('A' for Active; 'I' for Inactive)
REMARK    1  A    between atoms: C_1  and  S_2
REMARK    2  A    between atoms: S_2  and  C_5
REMARK    3  A    between atoms: C_8  and  C_9
REMARK    4  A    between atoms: C_9  and  C_10
REMARK    5  A    between atoms: C_13  and  C_14
REMARK    6  A    between atoms: C_14  and  N_15
REMARK    7  A    between atoms: C_16  and  C_18
REMARK                            x       y       z     vdW  Elec       q    Type
REMARK                         _______ _______ _______ _____ _____    ______ ____
ROOT
ATOM      1  C   UNL     1      49.634   5.949  16.882  0.00  0.00    +0.000 A 
ATOM      2  C   UNL     1      50.433   6.841  16.155  0.00  0.00    +0.000 A 
ATOM      3  C   UNL     1      50.030   7.301  14.895  0.00  0.00    +0.000 A 
ATOM      4  C   UNL     1      48.816   6.878  14.337  0.00  0.00    +0.000 A 
ATOM      5  C   UNL     1      48.049   5.938  15.037  0.00  0.00    +0.000 A 
ATOM      6  C   UNL     1      48.447   5.486  16.299  0.00  0.00    +0.000 A 
ENDROOT
BRANCH   1   7
ATOM      7  C   UNL     1      50.028   5.522  18.279  0.00  0.00    +0.000 C 
BRANCH   7  11
ATOM      8  C   UNL     1      52.911   2.305  18.390  0.00  0.00    +0.000 A 
ATOM      9  C   UNL     1      53.186   3.503  19.055  0.00  0.00    +0.000 A 
ATOM     10  C   UNL     1      52.248   4.540  19.023  0.00  0.00    +0.000 A 
ATOM     11  C   UNL     1      51.042   4.396  18.320  0.00  0.00    +0.000 A 
ATOM     12  C   UNL     1      50.799   3.194  17.633  0.00  0.00    +0.000 A 
ATOM     13  C   UNL     1      51.728   2.151  17.664  0.00  0.00    +0.000 A 
BRANCH   8  15
ATOM     14  C   UNL     1      54.921   1.123  16.862  0.00  0.00    +0.000 C 
ATOM     15  S   UNL     1      54.102   0.986  18.430  0.00  0.00    +0.000 S 
ATOM     16  O   UNL     1      53.371  -0.267  18.446  0.00  0.00    +0.000 OA
ATOM     17  O   UNL     1      55.068   1.296  19.468  0.00  0.00    +0.000 OA
ENDBRANCH   8  15
ENDBRANCH   7  11
ENDBRANCH   1   7
BRANCH   4  18
ATOM     18  C   UNL     1      48.335   7.418  13.014  0.00  0.00    +0.000 C 
BRANCH  18  19
ATOM     19  N   UNL     1      47.586   6.434  12.273  0.00  0.00    +0.000 N 
ATOM     20  C   UNL     1      46.357   6.727  11.741  0.00  0.00    +0.000 C 
ATOM     21  O   UNL     1      45.849   7.843  11.845  0.00  0.00    +0.000 OA
ATOM     22  H   UNL     1      47.855   5.463  12.400  0.00  0.00    +0.000 HD
BRANCH  20  23
ATOM     23  C   UNL     1      45.695   5.655  10.987  0.00  0.00    +0.000 A 
ATOM     24  C   UNL     1      45.772   5.636   9.601  0.00  0.00    +0.000 A 
ATOM     25  S   UNL     1      44.983   4.300   8.892  0.00  0.00    +0.000 S 
ATOM     26  C   UNL     1      44.467   3.731  10.407  0.00  0.00    +0.000 A 
ATOM     27  N   UNL     1      43.698   2.611  10.512  0.00  0.00    +0.000 NA
ATOM     28  C   UNL     1      43.358   2.309  11.722  0.00  0.00    +0.000 A 
ATOM     29  N   UNL     1      43.723   3.017  12.836  0.00  0.00    +0.000 N 
ATOM     30  C   UNL     1      44.518   4.135  12.783  0.00  0.00    +0.000 A 
ATOM     31  O   UNL     1      44.861   4.723  13.805  0.00  0.00    +0.000 OA
ATOM     32  C   UNL     1      44.915   4.530  11.445  0.00  0.00    +0.000 A 
ATOM     33  H   UNL     1      43.434   2.721  13.756  0.00  0.00    +0.000 HD
ENDBRANCH  20  23
ENDBRANCH  18  19
ENDBRANCH   4  18
TORSDOF 6
ENDMDL
MODEL 5
REMARK VINA RESULT:    -6.797      5.238      7.788
REMARK INTER + INTRA:         -10.225
REMARK INTER:                  -9.046
REMARK INTRA:                  -1.179
REMARK UNBOUND:                -1.044
REMARK  Name = 
REMARK  7 active torsions:
REMARK  status: ('A' for Active; 'I' for Inactive)
REMARK    1  A    between atoms: C_1  and  S_2
REMARK    2  A    between atoms: S_2  and  C_5
REMARK    3  A    between atoms: C_8  and  C_9
REMARK    4  A    between atoms: C_9  and  C_10
REMARK    5  A    between atoms: C_13  and  C_14
REMARK    6  A    between atoms: C_14  and  N_15
REMARK    7  A    between atoms: C_16  and  C_18
REMARK                            x       y       z     vdW  Elec       q    Type
REMARK                         _______ _______ _______ _____ _____    ______ ____
ROOT
ATOM      1  C   UNL     1      50.373   8.745  12.434  0.00  0.00    +0.000 A 
ATOM      2  C   UNL     1      49.867   7.875  13.410  0.00  0.00    +0.000 A 
ATOM      3  C   UNL     1      48.486   7.702  13.568  0.00  0.00    +0.000 A 
ATOM      4  C   UNL     1      47.583   8.395  12.751  0.00  0.00    +0.000 A 
ATOM      5  C   UNL     1      48.089   9.311  11.821  0.00  0.00    +0.000 A 
ATOM      6  C   UNL     1      49.467   9.478  11.656  0.00  0.00    +0.000 A 
ENDROOT
BRANCH   1   7
ATOM      7  C   UNL     1      51.864   8.864  12.206  0.00  0.00    +0.000 C 
BRANCH   7  11
ATOM      8  C   UNL     1      53.118   7.896   8.186  0.00  0.00    +0.000 A 
ATOM      9  C   UNL     1      52.658   6.882   9.030  0.00  0.00    +0.000 A 
ATOM     10  C   UNL     1      52.247   7.199  10.328  0.00  0.00    +0.000 A 
ATOM     11  C   UNL     1      52.304   8.521  10.796  0.00  0.00    +0.000 A 
ATOM     12  C   UNL     1      52.799   9.521   9.942  0.00  0.00    +0.000 A 
ATOM     13  C   UNL     1      53.207   9.214   8.641  0.00  0.00    +0.000 A 
BRANCH   8  15
ATOM     14  C   UNL     1      52.889   8.760   5.545  0.00  0.00    +0.000 C 
ATOM     15  S   UNL     1      53.642   7.495   6.535  0.00  0.00    +0.000 S 
ATOM     16  O   UNL     1      53.036   6.227   6.177  0.00  0.00    +0.000 OA
ATOM     17  O   UNL     1      55.081   7.675   6.473  0.00  0.00    +0.000 OA
ENDBRANCH   8  15
ENDBRANCH   7  11
ENDBRANCH   1   7
BRANCH   4  18
ATOM     18  C   UNL     1      46.096   8.167  12.862  0.00  0.00    +0.000 C 
BRANCH  18  19
ATOM     19  N   UNL     1      45.735   6.810  12.538  0.00  0.00    +0.000 N 
ATOM     20  C   UNL     1      44.660   6.533  11.732  0.00  0.00    +0.000 C 
ATOM     21  O   UNL     1      43.976   7.420  11.226  0.00  0.00    +0.000 OA
ATOM     22  H   UNL     1      46.108   6.081  13.139  0.00  0.00    +0.000 HD
BRANCH  20  23
ATOM     23  C   UNL     1      44.399   5.115  11.452  0.00  0.00    +0.000 A 
ATOM     24  C   UNL     1      43.670   4.355  12.357  0.00  0.00    +0.000 A 
ATOM     25  S   UNL     1      43.425   2.743  11.854  0.00  0.00    +0.000 S 
ATOM     26  C   UNL     1      44.328   2.991  10.436  0.00  0.00    +0.000 A 
ATOM     27  N   UNL     1      44.541   1.976   9.553  0.00  0.00    +0.000 NA
ATOM     28  C   UNL     1      45.266   2.300   8.533  0.00  0.00    +0.000 A 
ATOM     29  N   UNL     1      45.789   3.546   8.310  0.00  0.00    +0.000 N 
ATOM     30  C   UNL     1      45.580   4.606   9.157  0.00  0.00    +0.000 A 
ATOM     31  O   UNL     1      46.029   5.721   8.907  0.00  0.00    +0.000 OA
ATOM     32  C   UNL     1      44.786   4.294  10.330  0.00  0.00    +0.000 A 
ATOM     33  H   UNL     1      46.338   3.739   7.486  0.00  0.00    +0.000 HD
ENDBRANCH  20  23
ENDBRANCH  18  19
ENDBRANCH   4  18
TORSDOF 6
ENDMDL
MODEL 6
REMARK VINA RESULT:    -6.756      3.819      5.307
REMARK INTER + INTRA:         -10.170
REMARK INTER:                  -8.922
REMARK INTRA:                  -1.248
REMARK UNBOUND:                -1.044
REMARK  Name = 
REMARK  7 active torsions:
REMARK  status: ('A' for Active; 'I' for Inactive)
REMARK    1  A    between atoms: C_1  and  S_2
REMARK    2  A    between atoms: S_2  and  C_5
REMARK    3  A    between atoms: C_8  and  C_9
REMARK    4  A    between atoms: C_9  and  C_10
REMARK    5  A    between atoms: C_13  and  C_14
REMARK    6  A    between atoms: C_14  and  N_15
REMARK    7  A    between atoms: C_16  and  C_18
REMARK                            x       y       z     vdW  Elec       q    Type
REMARK                         _______ _______ _______ _____ _____    ______ ____
ROOT
ATOM      1  C   UNL     1      48.843   8.284  13.655  0.00  0.00    +0.000 A 
ATOM      2  C   UNL     1      50.105   7.716  13.882  0.00  0.00    +0.000 A 
ATOM      3  C   UNL     1      50.687   7.749  15.155  0.00  0.00    +0.000 A 
ATOM      4  C   UNL     1      50.018   8.348  16.230  0.00  0.00    +0.000 A 
ATOM      5  C   UNL     1      48.787   8.970  15.988  0.00  0.00    +0.000 A 
ATOM      6  C   UNL     1      48.200   8.931  14.719  0.00  0.00    +0.000 A 
ENDROOT
BRANCH   1   7
ATOM      7  C   UNL     1      48.178   8.171  12.302  0.00  0.00    +0.000 C 
BRANCH   7  11
ATOM      8  C   UNL     1      44.770   5.515  12.231  0.00  0.00    +0.000 A 
ATOM      9  C   UNL     1      44.625   6.838  11.803  0.00  0.00    +0.000 A 
ATOM     10  C   UNL     1      45.731   7.693  11.821  0.00  0.00    +0.000 A 
ATOM     11  C   UNL     1      46.980   7.242  12.276  0.00  0.00    +0.000 A 
ATOM     12  C   UNL     1      47.096   5.917  12.730  0.00  0.00    +0.000 A 
ATOM     13  C   UNL     1      45.997   5.054  12.711  0.00  0.00    +0.000 A 
BRANCH   8  15
ATOM     14  C   UNL     1      43.735   3.302  10.888  0.00  0.00    +0.000 C 
ATOM     15  S   UNL     1      43.364   4.427  12.209  0.00  0.00    +0.000 S 
ATOM     16  O   UNL     1      42.207   5.209  11.818  0.00  0.00    +0.000 OA
ATOM     17  O   UNL     1      43.369   3.676  13.451  0.00  0.00    +0.000 OA
ENDBRANCH   8  15
ENDBRANCH   7  11
ENDBRANCH   1   7
BRANCH   4  18
ATOM     18  C   UNL     1      50.600   8.330  17.621  0.00  0.00    +0.000 C 
BRANCH  18  19
ATOM     19  N   UNL     1      51.402   7.156  17.852  0.00  0.00    +0.000 N 
ATOM     20  C   UNL     1      50.894   6.063  18.507  0.00  0.00    +0.000 C 
ATOM     21  O   UNL     1      49.729   6.020  18.899  0.00  0.00    +0.000 OA
ATOM     22  H   UNL     1      52.410   7.267  17.779  0.00  0.00    +0.000 HD
BRANCH  20  23
ATOM     23  C   UNL     1      51.795   4.916  18.667  0.00  0.00    +0.000 A 
ATOM     24  C   UNL     1      52.980   5.060  19.377  0.00  0.00    +0.000 A 
ATOM     25  S   UNL     1      53.884   3.619  19.500  0.00  0.00    +0.000 S 
ATOM     26  C   UNL     1      52.750   2.765  18.566  0.00  0.00    +0.000 A 
ATOM     27  N   UNL     1      52.941   1.452  18.257  0.00  0.00    +0.000 NA
ATOM     28  C   UNL     1      52.014   0.937  17.519  0.00  0.00    +0.000 A 
ATOM     29  N   UNL     1      50.909   1.610  17.070  0.00  0.00    +0.000 N 
ATOM     30  C   UNL     1      50.660   2.924  17.376  0.00  0.00    +0.000 A 
ATOM     31  O   UNL     1      49.638   3.487  16.991  0.00  0.00    +0.000 OA
ATOM     32  C   UNL     1      51.680   3.558  18.189  0.00  0.00    +0.000 A 
ATOM     33  H   UNL     1      50.212   1.146  16.506  0.00  0.00    +0.000 HD
ENDBRANCH  20  23
ENDBRANCH  18  19
ENDBRANCH   4  18
TORSDOF 6
ENDMDL
MODEL 7
REMARK VINA RESULT:    -6.739      3.830      9.102
REMARK INTER + INTRA:         -10.146
REMARK INTER:                  -8.976
REMARK INTRA:                  -1.170
REMARK UNBOUND:                -1.044
REMARK  Name = 
REMARK  7 active torsions:
REMARK  status: ('A' for Active; 'I' for Inactive)
REMARK    1  A    between atoms: C_1  and  S_2
REMARK    2  A    between atoms: S_2  and  C_5
REMARK    3  A    between atoms: C_8  and  C_9
REMARK    4  A    between atoms: C_9  and  C_10
REMARK    5  A    between atoms: C_13  and  C_14
REMARK    6  A    between atoms: C_14  and  N_15
REMARK    7  A    between atoms: C_16  and  C_18
REMARK                            x       y       z     vdW  Elec       q    Type
REMARK                         _______ _______ _______ _____ _____    ______ ____
ROOT
ATOM      1  C   UNL     1      49.665   7.932  15.731  0.00  0.00    +0.000 A 
ATOM      2  C   UNL     1      48.411   8.546  15.602  0.00  0.00    +0.000 A 
ATOM      3  C   UNL     1      47.742   8.559  14.372  0.00  0.00    +0.000 A 
ATOM      4  C   UNL     1      48.313   7.955  13.244  0.00  0.00    +0.000 A 
ATOM      5  C   UNL     1      49.593   7.398  13.359  0.00  0.00    +0.000 A 
ATOM      6  C   UNL     1      50.258   7.376  14.589  0.00  0.00    +0.000 A 
ENDROOT
BRANCH   1   7
ATOM      7  C   UNL     1      50.346   7.842  17.079  0.00  0.00    +0.000 C 
BRANCH   7  11
ATOM      8  C   UNL     1      52.403   4.106  17.771  0.00  0.00    +0.000 A 
ATOM      9  C   UNL     1      53.128   5.229  17.365  0.00  0.00    +0.000 A 
ATOM     10  C   UNL     1      52.461   6.439  17.148  0.00  0.00    +0.000 A 
ATOM     11  C   UNL     1      51.071   6.532  17.320  0.00  0.00    +0.000 A 
ATOM     12  C   UNL     1      50.357   5.383  17.699  0.00  0.00    +0.000 A 
ATOM     13  C   UNL     1      51.017   4.171  17.924  0.00  0.00    +0.000 A 
BRANCH   8  15
ATOM     14  C   UNL     1      52.078   1.349  17.509  0.00  0.00    +0.000 C 
ATOM     15  S   UNL     1      53.250   2.568  18.047  0.00  0.00    +0.000 S 
ATOM     16  O   UNL     1      53.430   2.414  19.478  0.00  0.00    +0.000 OA
ATOM     17  O   UNL     1      54.387   2.523  17.146  0.00  0.00    +0.000 OA
ENDBRANCH   8  15
ENDBRANCH   7  11
ENDBRANCH   1   7
BRANCH   4  18
ATOM     18  C   UNL     1      47.575   7.899  11.930  0.00  0.00    +0.000 C 
BRANCH  18  19
ATOM     19  N   UNL     1      46.877   6.650  11.759  0.00  0.00    +0.000 N 
ATOM     20  C   UNL     1      45.510   6.606  11.671  0.00  0.00    +0.000 C 
ATOM     21  O   UNL     1      44.819   7.623  11.704  0.00  0.00    +0.000 OA
ATOM     22  H   UNL     1      47.389   5.804  11.990  0.00  0.00    +0.000 HD
BRANCH  20  23
ATOM     23  C   UNL     1      44.907   5.281  11.475  0.00  0.00    +0.000 A 
ATOM     24  C   UNL     1      44.172   4.698  12.498  0.00  0.00    +0.000 A 
ATOM     25  S   UNL     1      43.511   3.180  12.085  0.00  0.00    +0.000 S 
ATOM     26  C   UNL     1      44.227   3.227  10.545  0.00  0.00    +0.000 A 
ATOM     27  N   UNL     1      44.081   2.192   9.671  0.00  0.00    +0.000 NA
ATOM     28  C   UNL     1      44.700   2.351   8.548  0.00  0.00    +0.000 A 
ATOM     29  N   UNL     1      45.444   3.452   8.214  0.00  0.00    +0.000 N 
ATOM     30  C   UNL     1      45.598   4.530   9.050  0.00  0.00    +0.000 A 
ATOM     31  O   UNL     1      46.237   5.519   8.703  0.00  0.00    +0.000 OA
ATOM     32  C   UNL     1      44.936   4.397  10.334  0.00  0.00    +0.000 A 
ATOM     33  H   UNL     1      45.894   3.521   7.313  0.00  0.00    +0.000 HD
ENDBRANCH  20  23
ENDBRANCH  18  19
ENDBRANCH   4  18
TORSDOF 6
ENDMDL
MODEL 8
REMARK VINA RESULT:    -6.632      6.734      9.551
REMARK INTER + INTRA:         -10.002
REMARK INTER:                  -8.885
REMARK INTRA:                  -1.117
REMARK UNBOUND:                -1.044
REMARK  Name = 
REMARK  7 active torsions:
REMARK  status: ('A' for Active; 'I' for Inactive)
REMARK    1  A    between atoms: C_1  and  S_2
REMARK    2  A    between atoms: S_2  and  C_5
REMARK    3  A    between atoms: C_8  and  C_9
REMARK    4  A    between atoms: C_9  and  C_10
REMARK    5  A    between atoms: C_13  and  C_14
REMARK    6  A    between atoms: C_14  and  N_15
REMARK    7  A    between atoms: C_16  and  C_18
REMARK                            x       y       z     vdW  Elec       q    Type
REMARK                         _______ _______ _______ _____ _____    ______ ____
ROOT
ATOM      1  C   UNL     1      42.644  11.729  10.980  0.00  0.00    +0.000 A 
ATOM      2  C   UNL     1      42.384  10.386  10.677  0.00  0.00    +0.000 A 
ATOM      3  C   UNL     1      43.370   9.407  10.856  0.00  0.00    +0.000 A 
ATOM      4  C   UNL     1      44.637   9.752  11.343  0.00  0.00    +0.000 A 
ATOM      5  C   UNL     1      44.916  11.104  11.585  0.00  0.00    +0.000 A 
ATOM      6  C   UNL     1      43.929  12.081  11.416  0.00  0.00    +0.000 A 
ENDROOT
BRANCH   1   7
ATOM      7  C   UNL     1      41.553  12.771  10.870  0.00  0.00    +0.000 C 
BRANCH   7  11
ATOM      8  C   UNL     1      37.551  11.143  10.960  0.00  0.00    +0.000 A 
ATOM      9  C   UNL     1      38.128  11.492   9.737  0.00  0.00    +0.000 A 
ATOM     10  C   UNL     1      39.425  12.013   9.710  0.00  0.00    +0.000 A 
ATOM     11  C   UNL     1      40.148  12.200  10.898  0.00  0.00    +0.000 A 
ATOM     12  C   UNL     1      39.538  11.871  12.121  0.00  0.00    +0.000 A 
ATOM     13  C   UNL     1      38.243  11.345  12.156  0.00  0.00    +0.000 A 
BRANCH   8  15
ATOM     14  C   UNL     1      35.018  11.517   9.857  0.00  0.00    +0.000 C 
ATOM     15  S   UNL     1      35.901  10.482  10.996  0.00  0.00    +0.000 S 
ATOM     16  O   UNL     1      35.362  10.713  12.322  0.00  0.00    +0.000 OA
ATOM     17  O   UNL     1      35.951   9.143  10.437  0.00  0.00    +0.000 OA
ENDBRANCH   8  15
ENDBRANCH   7  11
ENDBRANCH   1   7
BRANCH   4  18
ATOM     18  C   UNL     1      45.686   8.702  11.607  0.00  0.00    +0.000 C 
BRANCH  18  19
ATOM     19  N   UNL     1      45.200   7.375  11.327  0.00  0.00    +0.000 N 
ATOM     20  C   UNL     1      45.490   6.321  12.155  0.00  0.00    +0.000 C 
ATOM     21  O   UNL     1      46.148   6.460  13.184  0.00  0.00    +0.000 OA
ATOM     22  H   UNL     1      44.892   7.191  10.376  0.00  0.00    +0.000 HD
BRANCH  20  23
ATOM     23  C   UNL     1      44.924   5.018  11.782  0.00  0.00    +0.000 A 
ATOM     24  C   UNL     1      44.241   4.265  12.728  0.00  0.00    +0.000 A 
ATOM     25  S   UNL     1      43.615   2.801  12.114  0.00  0.00    +0.000 S 
ATOM     26  C   UNL     1      44.279   3.099  10.579  0.00  0.00    +0.000 A 
ATOM     27  N   UNL     1      44.138   2.198   9.566  0.00  0.00    +0.000 NA
ATOM     28  C   UNL     1      44.715   2.542   8.462  0.00  0.00    +0.000 A 
ATOM     29  N   UNL     1      45.412   3.706   8.274  0.00  0.00    +0.000 N 
ATOM     30  C   UNL     1      45.559   4.655   9.255  0.00  0.00    +0.000 A 
ATOM     31  O   UNL     1      46.154   5.707   9.041  0.00  0.00    +0.000 OA
ATOM     32  C   UNL     1      44.944   4.312  10.523  0.00  0.00    +0.000 A 
ATOM     33  H   UNL     1      45.830   3.923   7.382  0.00  0.00    +0.000 HD
ENDBRANCH  20  23
ENDBRANCH  18  19
ENDBRANCH   4  18
TORSDOF 6
ENDMDL
MODEL 9
REMARK VINA RESULT:    -6.465      5.901      8.158
REMARK INTER + INTRA:          -9.777
REMARK INTER:                  -8.841
REMARK INTRA:                  -0.935
REMARK UNBOUND:                -1.044
REMARK  Name = 
REMARK  7 active torsions:
REMARK  status: ('A' for Active; 'I' for Inactive)
REMARK    1  A    between atoms: C_1  and  S_2
REMARK    2  A    between atoms: S_2  and  C_5
REMARK    3  A    between atoms: C_8  and  C_9
REMARK    4  A    between atoms: C_9  and  C_10
REMARK    5  A    between atoms: C_13  and  C_14
REMARK    6  A    between atoms: C_14  and  N_15
REMARK    7  A    between atoms: C_16  and  C_18
REMARK                            x       y       z     vdW  Elec       q    Type
REMARK                         _______ _______ _______ _____ _____    ______ ____
ROOT
ATOM      1  C   UNL     1      49.292   7.326  13.595  0.00  0.00    +0.000 A 
ATOM      2  C   UNL     1      50.178   8.226  14.204  0.00  0.00    +0.000 A 
ATOM      3  C   UNL     1      51.046   9.010  13.434  0.00  0.00    +0.000 A 
ATOM      4  C   UNL     1      51.043   8.913  12.037  0.00  0.00    +0.000 A 
ATOM      5  C   UNL     1      50.203   7.969  11.433  0.00  0.00    +0.000 A 
ATOM      6  C   UNL     1      49.330   7.191  12.200  0.00  0.00    +0.000 A 
ENDROOT
BRANCH   1   7
ATOM      7  C   UNL     1      48.296   6.545  14.422  0.00  0.00    +0.000 C 
BRANCH   7  11
ATOM      8  C   UNL     1      44.865   5.151  12.193  0.00  0.00    +0.000 A 
ATOM      9  C   UNL     1      45.735   4.225  12.775  0.00  0.00    +0.000 A 
ATOM     10  C   UNL     1      46.841   4.678  13.501  0.00  0.00    +0.000 A 
ATOM     11  C   UNL     1      47.093   6.052  13.640  0.00  0.00    +0.000 A 
ATOM     12  C   UNL     1      46.223   6.966  13.021  0.00  0.00    +0.000 A 
ATOM     13  C   UNL     1      45.113   6.522  12.299  0.00  0.00    +0.000 A 
BRANCH   8  15
ATOM     14  C   UNL     1      43.338   2.866  11.727  0.00  0.00    +0.000 C 
ATOM     15  S   UNL     1      43.460   4.576  11.270  0.00  0.00    +0.000 S 
ATOM     16  O   UNL     1      43.801   4.639   9.862  0.00  0.00    +0.000 OA
ATOM     17  O   UNL     1      42.286   5.260  11.782  0.00  0.00    +0.000 OA
ENDBRANCH   8  15
ENDBRANCH   7  11
ENDBRANCH   1   7
BRANCH   4  18
ATOM     18  C   UNL     1      51.921   9.800  11.190  0.00  0.00    +0.000 C 
BRANCH  18  19
ATOM     19  N   UNL     1      52.171   9.228   9.892  0.00  0.00    +0.000 N 
ATOM     20  C   UNL     1      53.381   8.663   9.584  0.00  0.00    +0.000 C 
ATOM     21  O   UNL     1      54.295   8.590  10.403  0.00  0.00    +0.000 OA
ATOM     22  H   UNL     1      51.546   9.507   9.140  0.00  0.00    +0.000 HD
BRANCH  20  23
ATOM     23  C   UNL     1      53.516   8.091   8.238  0.00  0.00    +0.000 A 
ATOM     24  C   UNL     1      53.503   8.925   7.128  0.00  0.00    +0.000 A 
ATOM     25  S   UNL     1      53.713   8.099   5.650  0.00  0.00    +0.000 S 
ATOM     26  C   UNL     1      53.775   6.595   6.438  0.00  0.00    +0.000 A 
ATOM     27  N   UNL     1      53.909   5.438   5.731  0.00  0.00    +0.000 NA
ATOM     28  C   UNL     1      53.916   4.368   6.456  0.00  0.00    +0.000 A 
ATOM     29  N   UNL     1      53.809   4.348   7.822  0.00  0.00    +0.000 N 
ATOM     30  C   UNL     1      53.698   5.489   8.578  0.00  0.00    +0.000 A 
ATOM     31  O   UNL     1      53.646   5.438   9.804  0.00  0.00    +0.000 OA
ATOM     32  C   UNL     1      53.668   6.720   7.812  0.00  0.00    +0.000 A 
ATOM     33  H   UNL     1      53.833   3.478   8.332  0.00  0.00    +0.000 HD
ENDBRANCH  20  23
ENDBRANCH  18  19
ENDBRANCH   4  18
TORSDOF 6
ENDMDL
