MODEL 1
REMARK VINA RESULT:    -7.535      0.000      0.000
REMARK INTER + INTRA:          -9.769
REMARK INTER:                  -9.297
REMARK INTRA:                  -0.472
REMARK UNBOUND:                -0.472
REMARK  Name = 
REMARK  4 active torsions:
REMARK  status: ('A' for Active; 'I' for Inactive)
REMARK    1  A    between atoms: C_6  and  C_7
REMARK    2  A    between atoms: C_11  and  C_12
REMARK    3  A    between atoms: C_13  and  C_14
REMARK    4  A    between atoms: C_16  and  C_17
REMARK                            x       y       z     vdW  Elec       q    Type
REMARK                         _______ _______ _______ _____ _____    ______ ____
ROOT
ATOM      1  C   UNL     1      45.076   3.841  10.007  0.00  0.00    +0.000 A 
ATOM      2  C   UNL     1      43.820   4.458  10.010  0.00  0.00    +0.000 A 
ATOM      3  N   UNL     1      43.244   5.063  11.081  0.00  0.00    +0.000 NA
ATOM      4  C   UNL     1      43.951   5.054  12.233  0.00  0.00    +0.000 A 
ATOM      5  C   UNL     1      45.201   4.474  12.360  0.00  0.00    +0.000 A 
ATOM      6  C   UNL     1      45.764   3.868  11.233  0.00  0.00    +0.000 A 
ENDROOT
BRANCH   1  12
ATOM      7  F   UNL     1      46.643  -0.098   7.598  0.00  0.00    +0.000 F 
ATOM      8  C   UNL     1      46.431   1.224   7.610  0.00  0.00    +0.000 A 
ATOM      9  C   UNL     1      46.776   1.981   6.501  0.00  0.00    +0.000 A 
ATOM     10  C   UNL     1      46.556   3.353   6.522  0.00  0.00    +0.000 A 
ATOM     11  C   UNL     1      46.003   3.955   7.661  0.00  0.00    +0.000 A 
ATOM     12  C   UNL     1      45.648   3.203   8.800  0.00  0.00    +0.000 A 
ATOM     13  C   UNL     1      45.870   1.815   8.741  0.00  0.00    +0.000 A 
ENDBRANCH   1  12
BRANCH   5  14
ATOM     14  C   UNL     1      45.901   4.481  13.606  0.00  0.00    +0.000 C 
ATOM     15  C   UNL     1      46.499   4.461  14.648  0.00  0.00    +0.000 C 
BRANCH  15  16
ATOM     16  C   UNL     1      47.217   4.404  15.881  0.00  0.00    +0.000 A 
ATOM     17  C   UNL     1      48.235   5.301  16.165  0.00  0.00    +0.000 A 
ATOM     18  C   UNL     1      48.935   5.156  17.370  0.00  0.00    +0.000 A 
ATOM     19  C   UNL     1      48.564   4.121  18.236  0.00  0.00    +0.000 A 
ATOM     20  C   UNL     1      47.526   3.283  17.865  0.00  0.00    +0.000 A 
ATOM     21  N   UNL     1      46.848   3.401  16.704  0.00  0.00    +0.000 NA
BRANCH  18  22
ATOM     22  C   UNL     1      50.071   6.074  17.731  0.00  0.00    +0.000 C 
ATOM     23  F   UNL     1      50.496   5.932  19.016  0.00  0.00    +0.000 F 
ATOM     24  F   UNL     1      51.167   5.878  16.947  0.00  0.00    +0.000 F 
ATOM     25  F   UNL     1      49.738   7.386  17.589  0.00  0.00    +0.000 F 
ENDBRANCH  18  22
ENDBRANCH  15  16
ENDBRANCH   5  14
TORSDOF 4
ENDMDL
MODEL 2
REMARK VINA RESULT:    -7.194      3.249      3.943
REMARK INTER + INTRA:          -9.348
REMARK INTER:                  -8.865
REMARK INTRA:                  -0.483
REMARK UNBOUND:                -0.472
REMARK  Name = 
REMARK  4 active torsions:
REMARK  status: ('A' for Active; 'I' for Inactive)
REMARK    1  A    between atoms: C_6  and  C_7
REMARK    2  A    between atoms: C_11  and  C_12
REMARK    3  A    between atoms: C_13  and  C_14
REMARK    4  A    between atoms: C_16  and  C_17
REMARK                            x       y       z     vdW  Elec       q    Type
REMARK                         _______ _______ _______ _____ _____    ______ ____
ROOT
ATOM      1  C   UNL     1      45.141   4.313   9.416  0.00  0.00    +0.000 A 
ATOM      2  C   UNL     1      43.784   4.253   9.753  0.00  0.00    +0.000 A 
ATOM      3  N   UNL     1      43.161   5.063  10.648  0.00  0.00    +0.000 NA
ATOM      4  C   UNL     1      43.928   5.990  11.263  0.00  0.00    +0.000 A 
ATOM      5  C   UNL     1      45.281   6.147  11.019  0.00  0.00    +0.000 A 
ATOM      6  C   UNL     1      45.886   5.301  10.084  0.00  0.00    +0.000 A 
ENDROOT
BRANCH   1  12
ATOM      7  F   UNL     1      46.476  -0.149   7.971  0.00  0.00    +0.000 F 
ATOM      8  C   UNL     1      46.422   1.165   7.718  0.00  0.00    +0.000 A 
ATOM      9  C   UNL     1      46.967   1.657   6.542  0.00  0.00    +0.000 A 
ATOM     10  C   UNL     1      46.909   3.023   6.289  0.00  0.00    +0.000 A 
ATOM     11  C   UNL     1      46.315   3.883   7.222  0.00  0.00    +0.000 A 
ATOM     12  C   UNL     1      45.757   3.403   8.424  0.00  0.00    +0.000 A 
ATOM     13  C   UNL     1      45.819   2.014   8.645  0.00  0.00    +0.000 A 
ENDBRANCH   1  12
BRANCH   5  14
ATOM     14  C   UNL     1      46.051   7.136  11.706  0.00  0.00    +0.000 C 
ATOM     15  C   UNL     1      46.713   7.948  12.296  0.00  0.00    +0.000 C 
BRANCH  15  16
ATOM     16  C   UNL     1      47.514   8.886  13.014  0.00  0.00    +0.000 A 
ATOM     17  C   UNL     1      47.766   8.732  14.368  0.00  0.00    +0.000 A 
ATOM     18  C   UNL     1      48.515   9.717  15.025  0.00  0.00    +0.000 A 
ATOM     19  C   UNL     1      48.987  10.803  14.278  0.00  0.00    +0.000 A 
ATOM     20  C   UNL     1      48.690  10.860  12.927  0.00  0.00    +0.000 A 
ATOM     21  N   UNL     1      47.961   9.926  12.281  0.00  0.00    +0.000 NA
BRANCH  18  22
ATOM     22  C   UNL     1      48.802   9.631  16.498  0.00  0.00    +0.000 C 
ATOM     23  F   UNL     1      49.378  10.754  17.006  0.00  0.00    +0.000 F 
ATOM     24  F   UNL     1      47.677   9.419  17.236  0.00  0.00    +0.000 F 
ATOM     25  F   UNL     1      49.646   8.607  16.801  0.00  0.00    +0.000 F 
ENDBRANCH  18  22
ENDBRANCH  15  16
ENDBRANCH   5  14
TORSDOF 4
ENDMDL
MODEL 3
REMARK VINA RESULT:    -7.050      1.829      2.387
REMARK INTER + INTRA:          -9.170
REMARK INTER:                  -8.704
REMARK INTRA:                  -0.466
REMARK UNBOUND:                -0.472
REMARK  Name = 
REMARK  4 active torsions:
REMARK  status: ('A' for Active; 'I' for Inactive)
REMARK    1  A    between atoms: C_6  and  C_7
REMARK    2  A    between atoms: C_11  and  C_12
REMARK    3  A    between atoms: C_13  and  C_14
REMARK    4  A    between atoms: C_16  and  C_17
REMARK                            x       y       z     vdW  Elec       q    Type
REMARK                         _______ _______ _______ _____ _____    ______ ____
ROOT
ATOM      1  C   UNL     1      45.167   2.918   9.880  0.00  0.00    +0.000 A 
ATOM      2  C   UNL     1      43.791   2.805  10.106  0.00  0.00    +0.000 A 
ATOM      3  N   UNL     1      43.158   3.116  11.267  0.00  0.00    +0.000 NA
ATOM      4  C   UNL     1      43.935   3.562  12.280  0.00  0.00    +0.000 A 
ATOM      5  C   UNL     1      45.307   3.714  12.181  0.00  0.00    +0.000 A 
ATOM      6  C   UNL     1      45.922   3.392  10.967  0.00  0.00    +0.000 A 
ENDROOT
BRANCH   1  12
ATOM      7  F   UNL     1      46.677   4.124   5.402  0.00  0.00    +0.000 F 
ATOM      8  C   UNL     1      46.539   3.185   6.347  0.00  0.00    +0.000 A 
ATOM      9  C   UNL     1      46.959   1.889   6.087  0.00  0.00    +0.000 A 
ATOM     10  C   UNL     1      46.810   0.920   7.072  0.00  0.00    +0.000 A 
ATOM     11  C   UNL     1      46.228   1.255   8.302  0.00  0.00    +0.000 A 
ATOM     12  C   UNL     1      45.793   2.567   8.584  0.00  0.00    +0.000 A 
ATOM     13  C   UNL     1      45.971   3.528   7.572  0.00  0.00    +0.000 A 
ENDBRANCH   1  12
BRANCH   5  14
ATOM     14  C   UNL     1      46.085   4.177  13.287  0.00  0.00    +0.000 C 
ATOM     15  C   UNL     1      46.762   4.562  14.203  0.00  0.00    +0.000 C 
BRANCH  15  16
ATOM     16  C   UNL     1      47.595   5.006  15.274  0.00  0.00    +0.000 A 
ATOM     17  C   UNL     1      47.702   4.283  16.452  0.00  0.00    +0.000 A 
ATOM     18  C   UNL     1      48.494   4.802  17.484  0.00  0.00    +0.000 A 
ATOM     19  C   UNL     1      49.152   6.019  17.271  0.00  0.00    +0.000 A 
ATOM     20  C   UNL     1      48.990   6.659  16.055  0.00  0.00    +0.000 A 
ATOM     21  N   UNL     1      48.222   6.179  15.053  0.00  0.00    +0.000 NA
BRANCH  18  22
ATOM     22  C   UNL     1      48.632   4.088  18.800  0.00  0.00    +0.000 C 
ATOM     23  F   UNL     1      48.080   2.844  18.804  0.00  0.00    +0.000 F 
ATOM     24  F   UNL     1      49.933   3.923  19.169  0.00  0.00    +0.000 F 
ATOM     25  F   UNL     1      48.036   4.765  19.820  0.00  0.00    +0.000 F 
ENDBRANCH  18  22
ENDBRANCH  15  16
ENDBRANCH   5  14
TORSDOF 4
ENDMDL
MODEL 4
REMARK VINA RESULT:    -6.815      2.949      9.305
REMARK INTER + INTRA:          -8.880
REMARK INTER:                  -8.394
REMARK INTRA:                  -0.486
REMARK UNBOUND:                -0.472
REMARK  Name = 
REMARK  4 active torsions:
REMARK  status: ('A' for Active; 'I' for Inactive)
REMARK    1  A    between atoms: C_6  and  C_7
REMARK    2  A    between atoms: C_11  and  C_12
REMARK    3  A    between atoms: C_13  and  C_14
REMARK    4  A    between atoms: C_16  and  C_17
REMARK                            x       y       z     vdW  Elec       q    Type
REMARK                         _______ _______ _______ _____ _____    ______ ____
ROOT
ATOM      1  C   UNL     1      49.744   3.592  17.760  0.00  0.00    +0.000 A 
ATOM      2  C   UNL     1      49.167   4.186  18.887  0.00  0.00    +0.000 A 
ATOM      3  N   UNL     1      47.975   4.838  18.907  0.00  0.00    +0.000 NA
ATOM      4  C   UNL     1      47.308   4.918  17.734  0.00  0.00    +0.000 A 
ATOM      5  C   UNL     1      47.775   4.374  16.550  0.00  0.00    +0.000 A 
ATOM      6  C   UNL     1      49.001   3.703  16.570  0.00  0.00    +0.000 A 
ENDROOT
BRANCH   1  12
ATOM      7  F   UNL     1      54.545   3.560  18.611  0.00  0.00    +0.000 F 
ATOM      8  C   UNL     1      53.448   2.891  18.234  0.00  0.00    +0.000 A 
ATOM      9  C   UNL     1      53.552   1.558  17.869  0.00  0.00    +0.000 A 
ATOM     10  C   UNL     1      52.408   0.872  17.477  0.00  0.00    +0.000 A 
ATOM     11  C   UNL     1      51.173   1.533  17.443  0.00  0.00    +0.000 A 
ATOM     12  C   UNL     1      51.047   2.890  17.808  0.00  0.00    +0.000 A 
ATOM     13  C   UNL     1      52.220   3.552  18.214  0.00  0.00    +0.000 A 
ENDBRANCH   1  12
BRANCH   5  14
ATOM     14  C   UNL     1      47.036   4.498  15.333  0.00  0.00    +0.000 C 
ATOM     15  C   UNL     1      46.407   4.627  14.317  0.00  0.00    +0.000 C 
BRANCH  15  16
ATOM     16  C   UNL     1      45.645   4.809  13.123  0.00  0.00    +0.000 A 
ATOM     17  C   UNL     1      45.462   3.775  12.220  0.00  0.00    +0.000 A 
ATOM     18  C   UNL     1      44.748   4.035  11.042  0.00  0.00    +0.000 A 
ATOM     19  C   UNL     1      44.241   5.324  10.842  0.00  0.00    +0.000 A 
ATOM     20  C   UNL     1      44.469   6.286  11.811  0.00  0.00    +0.000 A 
ATOM     21  N   UNL     1      45.163   6.056  12.946  0.00  0.00    +0.000 NA
BRANCH  18  22
ATOM     22  C   UNL     1      44.537   2.969  10.002  0.00  0.00    +0.000 C 
ATOM     23  F   UNL     1      44.041   3.446   8.828  0.00  0.00    +0.000 F 
ATOM     24  F   UNL     1      45.689   2.315   9.686  0.00  0.00    +0.000 F 
ATOM     25  F   UNL     1      43.663   2.011  10.416  0.00  0.00    +0.000 F 
ENDBRANCH  18  22
ENDBRANCH  15  16
ENDBRANCH   5  14
TORSDOF 4
ENDMDL
MODEL 5
REMARK VINA RESULT:    -6.750      2.893     10.207
REMARK INTER + INTRA:          -8.800
REMARK INTER:                  -8.296
REMARK INTRA:                  -0.504
REMARK UNBOUND:                -0.472
REMARK  Name = 
REMARK  4 active torsions:
REMARK  status: ('A' for Active; 'I' for Inactive)
REMARK    1  A    between atoms: C_6  and  C_7
REMARK    2  A    between atoms: C_11  and  C_12
REMARK    3  A    between atoms: C_13  and  C_14
REMARK    4  A    between atoms: C_16  and  C_17
REMARK                            x       y       z     vdW  Elec       q    Type
REMARK                         _______ _______ _______ _____ _____    ______ ____
ROOT
ATOM      1  C   UNL     1      47.896   5.029  18.848  0.00  0.00    +0.000 A 
ATOM      2  C   UNL     1      48.537   3.811  19.097  0.00  0.00    +0.000 A 
ATOM      3  N   UNL     1      48.740   2.829  18.180  0.00  0.00    +0.000 NA
ATOM      4  C   UNL     1      48.272   3.058  16.933  0.00  0.00    +0.000 A 
ATOM      5  C   UNL     1      47.618   4.220  16.563  0.00  0.00    +0.000 A 
ATOM      6  C   UNL     1      47.436   5.212  17.531  0.00  0.00    +0.000 A 
ENDROOT
BRANCH   1  12
ATOM      7  F   UNL     1      47.126   9.653  20.192  0.00  0.00    +0.000 F 
ATOM      8  C   UNL     1      47.332   8.379  20.550  0.00  0.00    +0.000 A 
ATOM      9  C   UNL     1      47.396   8.049  21.894  0.00  0.00    +0.000 A 
ATOM     10  C   UNL     1      47.612   6.724  22.256  0.00  0.00    +0.000 A 
ATOM     11  C   UNL     1      47.774   5.745  21.267  0.00  0.00    +0.000 A 
ATOM     12  C   UNL     1      47.713   6.061  19.893  0.00  0.00    +0.000 A 
ATOM     13  C   UNL     1      47.479   7.408  19.560  0.00  0.00    +0.000 A 
ENDBRANCH   1  12
BRANCH   5  14
ATOM     14  C   UNL     1      47.131   4.408  15.233  0.00  0.00    +0.000 C 
ATOM     15  C   UNL     1      46.695   4.568  14.124  0.00  0.00    +0.000 C 
BRANCH  15  16
ATOM     16  C   UNL     1      46.145   4.757  12.820  0.00  0.00    +0.000 A 
ATOM     17  C   UNL     1      45.644   3.693  12.088  0.00  0.00    +0.000 A 
ATOM     18  C   UNL     1      45.168   3.939  10.793  0.00  0.00    +0.000 A 
ATOM     19  C   UNL     1      45.207   5.251  10.306  0.00  0.00    +0.000 A 
ATOM     20  C   UNL     1      45.718   6.247  11.121  0.00  0.00    +0.000 A 
ATOM     21  N   UNL     1      46.191   6.027  12.366  0.00  0.00    +0.000 NA
BRANCH  18  22
ATOM     22  C   UNL     1      44.637   2.828   9.929  0.00  0.00    +0.000 C 
ATOM     23  F   UNL     1      43.698   2.060  10.547  0.00  0.00    +0.000 F 
ATOM     24  F   UNL     1      44.055   3.289   8.788  0.00  0.00    +0.000 F 
ATOM     25  F   UNL     1      45.618   1.972   9.531  0.00  0.00    +0.000 F 
ENDBRANCH  18  22
ENDBRANCH  15  16
ENDBRANCH   5  14
TORSDOF 4
ENDMDL
MODEL 6
REMARK VINA RESULT:    -6.439      2.177     10.002
REMARK INTER + INTRA:          -8.417
REMARK INTER:                  -7.939
REMARK INTRA:                  -0.478
REMARK UNBOUND:                -0.472
REMARK  Name = 
REMARK  4 active torsions:
REMARK  status: ('A' for Active; 'I' for Inactive)
REMARK    1  A    between atoms: C_6  and  C_7
REMARK    2  A    between atoms: C_11  and  C_12
REMARK    3  A    between atoms: C_13  and  C_14
REMARK    4  A    between atoms: C_16  and  C_17
REMARK                            x       y       z     vdW  Elec       q    Type
REMARK                         _______ _______ _______ _____ _____    ______ ____
ROOT
ATOM      1  C   UNL     1      48.242   4.954  18.009  0.00  0.00    +0.000 A 
ATOM      2  C   UNL     1      48.928   3.746  18.178  0.00  0.00    +0.000 A 
ATOM      3  N   UNL     1      48.933   2.716  17.294  0.00  0.00    +0.000 NA
ATOM      4  C   UNL     1      48.205   2.881  16.167  0.00  0.00    +0.000 A 
ATOM      5  C   UNL     1      47.480   4.026  15.886  0.00  0.00    +0.000 A 
ATOM      6  C   UNL     1      47.506   5.069  16.817  0.00  0.00    +0.000 A 
ENDROOT
BRANCH   1  12
ATOM      7  F   UNL     1      50.002   9.206  19.624  0.00  0.00    +0.000 F 
ATOM      8  C   UNL     1      49.177   8.166  19.809  0.00  0.00    +0.000 A 
ATOM      9  C   UNL     1      48.395   8.111  20.952  0.00  0.00    +0.000 A 
ATOM     10  C   UNL     1      47.544   7.028  21.137  0.00  0.00    +0.000 A 
ATOM     11  C   UNL     1      47.495   6.005  20.182  0.00  0.00    +0.000 A 
ATOM     12  C   UNL     1      48.284   6.041  19.013  0.00  0.00    +0.000 A 
ATOM     13  C   UNL     1      49.125   7.158  18.848  0.00  0.00    +0.000 A 
ENDBRANCH   1  12
BRANCH   5  14
ATOM     14  C   UNL     1      46.715   4.145  14.685  0.00  0.00    +0.000 C 
ATOM     15  C   UNL     1      46.067   4.219  13.675  0.00  0.00    +0.000 C 
BRANCH  15  16
ATOM     16  C   UNL     1      45.299   4.271  12.473  0.00  0.00    +0.000 A 
ATOM     17  C   UNL     1      45.471   3.335  11.466  0.00  0.00    +0.000 A 
ATOM     18  C   UNL     1      44.723   3.474  10.289  0.00  0.00    +0.000 A 
ATOM     19  C   UNL     1      43.826   4.545  10.193  0.00  0.00    +0.000 A 
ATOM     20  C   UNL     1      43.719   5.421  11.260  0.00  0.00    +0.000 A 
ATOM     21  N   UNL     1      44.439   5.308  12.396  0.00  0.00    +0.000 NA
BRANCH  18  22
ATOM     22  C   UNL     1      44.879   2.514   9.143  0.00  0.00    +0.000 C 
ATOM     23  F   UNL     1      46.165   2.117   8.938  0.00  0.00    +0.000 F 
ATOM     24  F   UNL     1      44.157   1.373   9.317  0.00  0.00    +0.000 F 
ATOM     25  F   UNL     1      44.460   3.047   7.962  0.00  0.00    +0.000 F 
ENDBRANCH  18  22
ENDBRANCH  15  16
ENDBRANCH   5  14
TORSDOF 4
ENDMDL
MODEL 7
REMARK VINA RESULT:    -6.343      3.850      5.228
REMARK INTER + INTRA:          -8.299
REMARK INTER:                  -7.785
REMARK INTRA:                  -0.514
REMARK UNBOUND:                -0.472
REMARK  Name = 
REMARK  4 active torsions:
REMARK  status: ('A' for Active; 'I' for Inactive)
REMARK    1  A    between atoms: C_6  and  C_7
REMARK    2  A    between atoms: C_11  and  C_12
REMARK    3  A    between atoms: C_13  and  C_14
REMARK    4  A    between atoms: C_16  and  C_17
REMARK                            x       y       z     vdW  Elec       q    Type
REMARK                         _______ _______ _______ _____ _____    ______ ____
ROOT
ATOM      1  C   UNL     1      44.449   7.091  11.746  0.00  0.00    +0.000 A 
ATOM      2  C   UNL     1      43.683   6.137  11.067  0.00  0.00    +0.000 A 
ATOM      3  N   UNL     1      43.694   4.801  11.313  0.00  0.00    +0.000 NA
ATOM      4  C   UNL     1      44.523   4.373  12.292  0.00  0.00    +0.000 A 
ATOM      5  C   UNL     1      45.333   5.216  13.033  0.00  0.00    +0.000 A 
ATOM      6  C   UNL     1      45.287   6.586  12.756  0.00  0.00    +0.000 A 
ENDROOT
BRANCH   1  12
ATOM      7  F   UNL     1      42.292  10.896   9.590  0.00  0.00    +0.000 F 
ATOM      8  C   UNL     1      43.296  10.428  10.343  0.00  0.00    +0.000 A 
ATOM      9  C   UNL     1      44.275  11.300  10.793  0.00  0.00    +0.000 A 
ATOM     10  C   UNL     1      45.315  10.805  11.572  0.00  0.00    +0.000 A 
ATOM     11  C   UNL     1      45.370   9.439  11.881  0.00  0.00    +0.000 A 
ATOM     12  C   UNL     1      44.384   8.536  11.430  0.00  0.00    +0.000 A 
ATOM     13  C   UNL     1      43.337   9.071  10.656  0.00  0.00    +0.000 A 
ENDBRANCH   1  12
BRANCH   5  14
ATOM     14  C   UNL     1      46.201   4.710  14.048  0.00  0.00    +0.000 C 
ATOM     15  C   UNL     1      46.911   4.282  14.919  0.00  0.00    +0.000 C 
BRANCH  15  16
ATOM     16  C   UNL     1      47.727   3.777  15.976  0.00  0.00    +0.000 A 
ATOM     17  C   UNL     1      47.825   4.437  17.190  0.00  0.00    +0.000 A 
ATOM     18  C   UNL     1      48.684   3.917  18.166  0.00  0.00    +0.000 A 
ATOM     19  C   UNL     1      49.393   2.746  17.874  0.00  0.00    +0.000 A 
ATOM     20  C   UNL     1      49.219   2.155  16.633  0.00  0.00    +0.000 A 
ATOM     21  N   UNL     1      48.403   2.648  15.678  0.00  0.00    +0.000 NA
BRANCH  18  22
ATOM     22  C   UNL     1      48.864   4.597  19.496  0.00  0.00    +0.000 C 
ATOM     23  F   UNL     1      50.158   4.909  19.776  0.00  0.00    +0.000 F 
ATOM     24  F   UNL     1      48.168   5.764  19.580  0.00  0.00    +0.000 F 
ATOM     25  F   UNL     1      48.431   3.826  20.531  0.00  0.00    +0.000 F 
ENDBRANCH  18  22
ENDBRANCH  15  16
ENDBRANCH   5  14
TORSDOF 4
ENDMDL
MODEL 8
REMARK VINA RESULT:    -6.265      2.456      3.319
REMARK INTER + INTRA:          -8.202
REMARK INTER:                  -7.724
REMARK INTRA:                  -0.478
REMARK UNBOUND:                -0.472
REMARK  Name = 
REMARK  4 active torsions:
REMARK  status: ('A' for Active; 'I' for Inactive)
REMARK    1  A    between atoms: C_6  and  C_7
REMARK    2  A    between atoms: C_11  and  C_12
REMARK    3  A    between atoms: C_13  and  C_14
REMARK    4  A    between atoms: C_16  and  C_17
REMARK                            x       y       z     vdW  Elec       q    Type
REMARK                         _______ _______ _______ _____ _____    ______ ____
ROOT
ATOM      1  C   UNL     1      45.470   5.831  11.145  0.00  0.00    +0.000 A 
ATOM      2  C   UNL     1      44.720   7.010  11.081  0.00  0.00    +0.000 A 
ATOM      3  N   UNL     1      44.891   8.093  11.883  0.00  0.00    +0.000 NA
ATOM      4  C   UNL     1      45.862   8.007  12.819  0.00  0.00    +0.000 A 
ATOM      5  C   UNL     1      46.668   6.894  12.985  0.00  0.00    +0.000 A 
ATOM      6  C   UNL     1      46.468   5.802  12.134  0.00  0.00    +0.000 A 
ENDROOT
BRANCH   1  12
ATOM      7  F   UNL     1      45.803   3.733   6.755  0.00  0.00    +0.000 F 
ATOM      8  C   UNL     1      45.405   3.654   8.031  0.00  0.00    +0.000 A 
ATOM      9  C   UNL     1      44.755   2.513   8.474  0.00  0.00    +0.000 A 
ATOM     10  C   UNL     1      44.344   2.440   9.800  0.00  0.00    +0.000 A 
ATOM     11  C   UNL     1      44.577   3.517  10.665  0.00  0.00    +0.000 A 
ATOM     12  C   UNL     1      45.235   4.688  10.233  0.00  0.00    +0.000 A 
ATOM     13  C   UNL     1      45.651   4.725   8.890  0.00  0.00    +0.000 A 
ENDBRANCH   1  12
BRANCH   5  14
ATOM     14  C   UNL     1      47.673   6.848  13.999  0.00  0.00    +0.000 C 
ATOM     15  C   UNL     1      48.517   6.782  14.854  0.00  0.00    +0.000 C 
BRANCH  15  16
ATOM     16  C   UNL     1      49.511   6.669  15.872  0.00  0.00    +0.000 A 
ATOM     17  C   UNL     1      49.463   5.658  16.818  0.00  0.00    +0.000 A 
ATOM     18  C   UNL     1      50.439   5.636  17.823  0.00  0.00    +0.000 A 
ATOM     19  C   UNL     1      51.426   6.629  17.814  0.00  0.00    +0.000 A 
ATOM     20  C   UNL     1      51.393   7.590  16.818  0.00  0.00    +0.000 A 
ATOM     21  N   UNL     1      50.454   7.633  15.850  0.00  0.00    +0.000 NA
BRANCH  18  22
ATOM     22  C   UNL     1      50.432   4.587  18.900  0.00  0.00    +0.000 C 
ATOM     23  F   UNL     1      51.642   3.993  19.088  0.00  0.00    +0.000 F 
ATOM     24  F   UNL     1      50.067   5.088  20.112  0.00  0.00    +0.000 F 
ATOM     25  F   UNL     1      49.557   3.579  18.632  0.00  0.00    +0.000 F 
ENDBRANCH  18  22
ENDBRANCH  15  16
ENDBRANCH   5  14
TORSDOF 4
ENDMDL
MODEL 9
REMARK VINA RESULT:    -6.078      5.666      8.697
REMARK INTER + INTRA:          -7.972
REMARK INTER:                  -7.486
REMARK INTRA:                  -0.486
REMARK UNBOUND:                -0.472
REMARK  Name = 
REMARK  4 active torsions:
REMARK  status: ('A' for Active; 'I' for Inactive)
REMARK    1  A    between atoms: C_6  and  C_7
REMARK    2  A    between atoms: C_11  and  C_12
REMARK    3  A    between atoms: C_13  and  C_14
REMARK    4  A    between atoms: C_16  and  C_17
REMARK                            x       y       z     vdW  Elec       q    Type
REMARK                         _______ _______ _______ _____ _____    ______ ____
ROOT
ATOM      1  C   UNL     1      48.762  10.096  12.038  0.00  0.00    +0.000 A 
ATOM      2  C   UNL     1      48.943  10.396  13.393  0.00  0.00    +0.000 A 
ATOM      3  N   UNL     1      48.462   9.663  14.431  0.00  0.00    +0.000 NA
ATOM      4  C   UNL     1      47.746   8.562  14.113  0.00  0.00    +0.000 A 
ATOM      5  C   UNL     1      47.494   8.161  12.813  0.00  0.00    +0.000 A 
ATOM      6  C   UNL     1      48.013   8.936  11.771  0.00  0.00    +0.000 A 
ENDROOT
BRANCH   1  12
ATOM      7  F   UNL     1      52.551  11.862   9.528  0.00  0.00    +0.000 F 
ATOM      8  C   UNL     1      51.226  11.814   9.712  0.00  0.00    +0.000 A 
ATOM      9  C   UNL     1      50.396  12.574   8.901  0.00  0.00    +0.000 A 
ATOM     10  C   UNL     1      49.022  12.520   9.101  0.00  0.00    +0.000 A 
ATOM     11  C   UNL     1      48.493  11.715  10.119  0.00  0.00    +0.000 A 
ATOM     12  C   UNL     1      49.320  10.937  10.955  0.00  0.00    +0.000 A 
ATOM     13  C   UNL     1      50.706  11.002  10.718  0.00  0.00    +0.000 A 
ENDBRANCH   1  12
BRANCH   5  14
ATOM     14  C   UNL     1      46.718   6.994  12.531  0.00  0.00    +0.000 C 
ATOM     15  C   UNL     1      46.054   6.026  12.273  0.00  0.00    +0.000 C 
BRANCH  15  16
ATOM     16  C   UNL     1      45.247   4.895  11.944  0.00  0.00    +0.000 A 
ATOM     17  C   UNL     1      45.445   4.185  10.772  0.00  0.00    +0.000 A 
ATOM     18  C   UNL     1      44.584   3.118  10.483  0.00  0.00    +0.000 A 
ATOM     19  C   UNL     1      43.572   2.812  11.402  0.00  0.00    +0.000 A 
ATOM     20  C   UNL     1      43.464   3.576  12.551  0.00  0.00    +0.000 A 
ATOM     21  N   UNL     1      44.278   4.614  12.839  0.00  0.00    +0.000 NA
BRANCH  18  22
ATOM     22  C   UNL     1      44.720   2.321   9.215  0.00  0.00    +0.000 C 
ATOM     23  F   UNL     1      45.996   1.924   8.957  0.00  0.00    +0.000 F 
ATOM     24  F   UNL     1      43.969   1.185   9.231  0.00  0.00    +0.000 F 
ATOM     25  F   UNL     1      44.317   3.022   8.120  0.00  0.00    +0.000 F 
ENDBRANCH  18  22
ENDBRANCH  15  16
ENDBRANCH   5  14
TORSDOF 4
ENDMDL
