MODEL 1
REMARK VINA RESULT:    -8.307      0.000      0.000
REMARK INTER + INTRA:         -11.379
REMARK INTER:                 -10.736
REMARK INTRA:                  -0.643
REMARK UNBOUND:                -0.643
REMARK  Name = 
REMARK  5 active torsions:
REMARK  status: ('A' for Active; 'I' for Inactive)
REMARK    1  A    between atoms: C_2  and  C_4
REMARK    2  A    between atoms: C_8  and  N_9
REMARK    3  A    between atoms: N_9  and  C_10
REMARK    4  A    between atoms: C_10  and  C_11
REMARK    5  A    between atoms: C_15  and  N_16
REMARK                            x       y       z     vdW  Elec       q    Type
REMARK                         _______ _______ _______ _____ _____    ______ ____
ROOT
ATOM      1  N   UNL     1      44.011   2.609  10.524  0.00  0.00    +0.000 N 
ATOM      2  H   UNL     1      44.233   1.712  10.955  0.00  0.00    +0.000 HD
ENDROOT
BRANCH   1   7
ATOM      3  C   UNL     1      46.465   2.369   7.728  0.00  0.00    +0.000 A 
ATOM      4  C   UNL     1      46.517   3.709   7.385  0.00  0.00    +0.000 A 
ATOM      5  N   UNL     1      45.756   4.656   7.980  0.00  0.00    +0.000 NA
ATOM      6  C   UNL     1      44.935   4.234   8.975  0.00  0.00    +0.000 A 
ATOM      7  C   UNL     1      44.804   2.911   9.417  0.00  0.00    +0.000 A 
ATOM      8  C   UNL     1      45.622   1.978   8.774  0.00  0.00    +0.000 A 
BRANCH   3  10
ATOM      9  N   UNL     1      48.444   1.891   6.408  0.00  0.00    +0.000 N 
ATOM     10  C   UNL     1      47.309   1.404   6.999  0.00  0.00    +0.000 C 
ATOM     11  O   UNL     1      47.035   0.212   6.959  0.00  0.00    +0.000 OA
ATOM     12  H   UNL     1      49.070   1.203   6.012  0.00  0.00    +0.000 HD
ATOM     13  H   UNL     1      48.833   2.793   6.646  0.00  0.00    +0.000 HD
ENDBRANCH   3  10
ENDBRANCH   1   7
BRANCH   1  14
ATOM     14  C   UNL     1      43.632   3.651  11.467  0.00  0.00    +0.000 C 
BRANCH  14  15
ATOM     15  C   UNL     1      44.818   4.102  12.266  0.00  0.00    +0.000 A 
ATOM     16  C   UNL     1      45.658   3.190  12.887  0.00  0.00    +0.000 A 
ATOM     17  N   UNL     1      46.728   3.544  13.629  0.00  0.00    +0.000 NA
ATOM     18  C   UNL     1      46.973   4.875  13.744  0.00  0.00    +0.000 A 
ATOM     19  C   UNL     1      46.213   5.897  13.171  0.00  0.00    +0.000 A 
ATOM     20  C   UNL     1      45.119   5.462  12.411  0.00  0.00    +0.000 A 
BRANCH  19  21
ATOM     21  N   UNL     1      46.495   7.243  13.305  0.00  0.00    +0.000 N 
ATOM     22  C   UNL     1      45.511   8.278  12.983  0.00  0.00    +0.000 C 
ATOM     23  C   UNL     1      45.962   9.094  11.775  0.00  0.00    +0.000 C 
ATOM     24  C   UNL     1      47.382   9.625  11.962  0.00  0.00    +0.000 C 
ATOM     25  C   UNL     1      48.346   8.489  12.291  0.00  0.00    +0.000 C 
ATOM     26  C   UNL     1      47.875   7.694  13.509  0.00  0.00    +0.000 C 
ENDBRANCH  19  21
ENDBRANCH  14  15
ENDBRANCH   1  14
TORSDOF 5
ENDMDL
MODEL 2
REMARK VINA RESULT:    -8.251      1.246      1.662
REMARK INTER + INTRA:         -11.307
REMARK INTER:                 -10.623
REMARK INTRA:                  -0.684
REMARK UNBOUND:                -0.643
REMARK  Name = 
REMARK  5 active torsions:
REMARK  status: ('A' for Active; 'I' for Inactive)
REMARK    1  A    between atoms: C_2  and  C_4
REMARK    2  A    between atoms: C_8  and  N_9
REMARK    3  A    between atoms: N_9  and  C_10
REMARK    4  A    between atoms: C_10  and  C_11
REMARK    5  A    between atoms: C_15  and  N_16
REMARK                            x       y       z     vdW  Elec       q    Type
REMARK                         _______ _______ _______ _____ _____    ______ ____
ROOT
ATOM      1  N   UNL     1      44.374   4.895   9.355  0.00  0.00    +0.000 N 
ATOM      2  H   UNL     1      43.868   5.374   8.612  0.00  0.00    +0.000 HD
ENDROOT
BRANCH   1   7
ATOM      3  C   UNL     1      46.505   2.480   7.477  0.00  0.00    +0.000 A 
ATOM      4  C   UNL     1      46.025   1.306   8.034  0.00  0.00    +0.000 A 
ATOM      5  N   UNL     1      45.096   1.278   9.017  0.00  0.00    +0.000 NA
ATOM      6  C   UNL     1      44.616   2.480   9.429  0.00  0.00    +0.000 A 
ATOM      7  C   UNL     1      45.016   3.728   8.935  0.00  0.00    +0.000 A 
ATOM      8  C   UNL     1      45.970   3.696   7.915  0.00  0.00    +0.000 A 
BRANCH   3  10
ATOM      9  N   UNL     1      47.395   3.233   5.350  0.00  0.00    +0.000 N 
ATOM     10  C   UNL     1      47.545   2.411   6.433  0.00  0.00    +0.000 C 
ATOM     11  O   UNL     1      48.523   1.686   6.548  0.00  0.00    +0.000 OA
ATOM     12  H   UNL     1      48.169   3.260   4.700  0.00  0.00    +0.000 HD
ATOM     13  H   UNL     1      46.761   4.021   5.352  0.00  0.00    +0.000 HD
ENDBRANCH   3  10
ENDBRANCH   1   7
BRANCH   1  14
ATOM     14  C   UNL     1      43.726   4.952  10.657  0.00  0.00    +0.000 C 
BRANCH  14  15
ATOM     15  C   UNL     1      44.744   4.948  11.758  0.00  0.00    +0.000 A 
ATOM     16  C   UNL     1      44.820   3.903  12.666  0.00  0.00    +0.000 A 
ATOM     17  N   UNL     1      45.705   3.858  13.683  0.00  0.00    +0.000 NA
ATOM     18  C   UNL     1      46.562   4.907  13.788  0.00  0.00    +0.000 A 
ATOM     19  C   UNL     1      46.597   6.020  12.944  0.00  0.00    +0.000 A 
ATOM     20  C   UNL     1      45.654   6.002  11.907  0.00  0.00    +0.000 A 
BRANCH  19  21
ATOM     21  N   UNL     1      47.487   7.067  13.077  0.00  0.00    +0.000 N 
ATOM     22  C   UNL     1      47.039   8.441  13.317  0.00  0.00    +0.000 C 
ATOM     23  C   UNL     1      47.366   9.331  12.121  0.00  0.00    +0.000 C 
ATOM     24  C   UNL     1      48.838   9.218  11.730  0.00  0.00    +0.000 C 
ATOM     25  C   UNL     1      49.226   7.761  11.495  0.00  0.00    +0.000 C 
ATOM     26  C   UNL     1      48.896   6.895  12.711  0.00  0.00    +0.000 C 
ENDBRANCH  19  21
ENDBRANCH  14  15
ENDBRANCH   1  14
TORSDOF 5
ENDMDL
MODEL 3
REMARK VINA RESULT:    -7.803      1.740      3.165
REMARK INTER + INTRA:         -10.727
REMARK INTER:                  -9.984
REMARK INTRA:                  -0.743
REMARK UNBOUND:                -0.643
REMARK  Name = 
REMARK  5 active torsions:
REMARK  status: ('A' for Active; 'I' for Inactive)
REMARK    1  A    between atoms: C_2  and  C_4
REMARK    2  A    between atoms: C_8  and  N_9
REMARK    3  A    between atoms: N_9  and  C_10
REMARK    4  A    between atoms: C_10  and  C_11
REMARK    5  A    between atoms: C_15  and  N_16
REMARK                            x       y       z     vdW  Elec       q    Type
REMARK                         _______ _______ _______ _____ _____    ______ ____
ROOT
ATOM      1  N   UNL     1      44.074   4.743   9.250  0.00  0.00    +0.000 N 
ATOM      2  H   UNL     1      43.373   5.024   8.566  0.00  0.00    +0.000 HD
ENDROOT
BRANCH   1   7
ATOM      3  C   UNL     1      46.470   2.664   7.291  0.00  0.00    +0.000 A 
ATOM      4  C   UNL     1      46.260   1.453   7.928  0.00  0.00    +0.000 A 
ATOM      5  N   UNL     1      45.429   1.306   8.985  0.00  0.00    +0.000 NA
ATOM      6  C   UNL     1      44.766   2.420   9.392  0.00  0.00    +0.000 A 
ATOM      7  C   UNL     1      44.888   3.693   8.821  0.00  0.00    +0.000 A 
ATOM      8  C   UNL     1      45.751   3.783   7.726  0.00  0.00    +0.000 A 
BRANCH   3  10
ATOM      9  N   UNL     1      48.738   2.483   6.450  0.00  0.00    +0.000 N 
ATOM     10  C   UNL     1      47.423   2.733   6.167  0.00  0.00    +0.000 C 
ATOM     11  O   UNL     1      47.052   2.959   5.023  0.00  0.00    +0.000 OA
ATOM     12  H   UNL     1      49.361   2.420   5.656  0.00  0.00    +0.000 HD
ATOM     13  H   UNL     1      49.032   2.036   7.308  0.00  0.00    +0.000 HD
ENDBRANCH   3  10
ENDBRANCH   1   7
BRANCH   1  14
ATOM     14  C   UNL     1      43.624   4.809  10.632  0.00  0.00    +0.000 C 
BRANCH  14  15
ATOM     15  C   UNL     1      44.518   5.700  11.441  0.00  0.00    +0.000 A 
ATOM     16  C   UNL     1      44.377   7.080  11.414  0.00  0.00    +0.000 A 
ATOM     17  N   UNL     1      45.164   7.926  12.110  0.00  0.00    +0.000 NA
ATOM     18  C   UNL     1      46.133   7.361  12.877  0.00  0.00    +0.000 A 
ATOM     19  C   UNL     1      46.384   5.992  12.997  0.00  0.00    +0.000 A 
ATOM     20  C   UNL     1      45.529   5.169  12.253  0.00  0.00    +0.000 A 
BRANCH  19  21
ATOM     21  N   UNL     1      47.376   5.453  13.792  0.00  0.00    +0.000 N 
ATOM     22  C   UNL     1      47.200   4.182  14.498  0.00  0.00    +0.000 C 
ATOM     23  C   UNL     1      47.181   4.401  16.008  0.00  0.00    +0.000 C 
ATOM     24  C   UNL     1      48.397   5.202  16.468  0.00  0.00    +0.000 C 
ATOM     25  C   UNL     1      48.510   6.511  15.691  0.00  0.00    +0.000 C 
ATOM     26  C   UNL     1      48.535   6.261  14.183  0.00  0.00    +0.000 C 
ENDBRANCH  19  21
ENDBRANCH  14  15
ENDBRANCH   1  14
TORSDOF 5
ENDMDL
MODEL 4
REMARK VINA RESULT:    -7.746      2.992      7.080
REMARK INTER + INTRA:         -10.654
REMARK INTER:                  -9.966
REMARK INTRA:                  -0.688
REMARK UNBOUND:                -0.643
REMARK  Name = 
REMARK  5 active torsions:
REMARK  status: ('A' for Active; 'I' for Inactive)
REMARK    1  A    between atoms: C_2  and  C_4
REMARK    2  A    between atoms: C_8  and  N_9
REMARK    3  A    between atoms: N_9  and  C_10
REMARK    4  A    between atoms: C_10  and  C_11
REMARK    5  A    between atoms: C_15  and  N_16
REMARK                            x       y       z     vdW  Elec       q    Type
REMARK                         _______ _______ _______ _____ _____    ______ ____
ROOT
ATOM      1  N   UNL     1      47.086   6.263  12.734  0.00  0.00    +0.000 N 
ATOM      2  H   UNL     1      47.531   5.750  11.974  0.00  0.00    +0.000 HD
ENDROOT
BRANCH   1   7
ATOM      3  C   UNL     1      47.821   4.607  15.993  0.00  0.00    +0.000 A 
ATOM      4  C   UNL     1      48.535   5.633  16.588  0.00  0.00    +0.000 A 
ATOM      5  N   UNL     1      48.827   6.794  15.959  0.00  0.00    +0.000 NA
ATOM      6  C   UNL     1      48.356   6.931  14.693  0.00  0.00    +0.000 A 
ATOM      7  C   UNL     1      47.615   5.971  13.992  0.00  0.00    +0.000 A 
ATOM      8  C   UNL     1      47.334   4.796  14.695  0.00  0.00    +0.000 A 
BRANCH   3  10
ATOM      9  N   UNL     1      48.576   2.424  16.734  0.00  0.00    +0.000 N 
ATOM     10  C   UNL     1      47.581   3.363  16.748  0.00  0.00    +0.000 C 
ATOM     11  O   UNL     1      46.557   3.192  17.395  0.00  0.00    +0.000 OA
ATOM     12  H   UNL     1      48.448   1.629  17.346  0.00  0.00    +0.000 HD
ATOM     13  H   UNL     1      49.520   2.641  16.444  0.00  0.00    +0.000 HD
ENDBRANCH   3  10
ENDBRANCH   1   7
BRANCH   1  14
ATOM     14  C   UNL     1      45.656   6.466  12.565  0.00  0.00    +0.000 C 
BRANCH  14  15
ATOM     15  C   UNL     1      44.987   5.199  12.122  0.00  0.00    +0.000 A 
ATOM     16  C   UNL     1      44.204   4.454  12.991  0.00  0.00    +0.000 A 
ATOM     17  N   UNL     1      43.594   3.302  12.647  0.00  0.00    +0.000 NA
ATOM     18  C   UNL     1      43.768   2.881  11.367  0.00  0.00    +0.000 A 
ATOM     19  C   UNL     1      44.526   3.533  10.391  0.00  0.00    +0.000 A 
ATOM     20  C   UNL     1      45.129   4.725  10.811  0.00  0.00    +0.000 A 
BRANCH  19  21
ATOM     21  N   UNL     1      44.677   3.077   9.095  0.00  0.00    +0.000 N 
ATOM     22  C   UNL     1      44.871   1.659   8.789  0.00  0.00    +0.000 C 
ATOM     23  C   UNL     1      46.264   1.416   8.216  0.00  0.00    +0.000 C 
ATOM     24  C   UNL     1      46.552   2.349   7.041  0.00  0.00    +0.000 C 
ATOM     25  C   UNL     1      46.330   3.806   7.439  0.00  0.00    +0.000 C 
ATOM     26  C   UNL     1      44.925   4.021   8.002  0.00  0.00    +0.000 C 
ENDBRANCH  19  21
ENDBRANCH  14  15
ENDBRANCH   1  14
TORSDOF 5
ENDMDL
MODEL 5
REMARK VINA RESULT:    -7.427      1.613      2.221
REMARK INTER + INTRA:         -10.241
REMARK INTER:                  -9.508
REMARK INTRA:                  -0.732
REMARK UNBOUND:                -0.643
REMARK  Name = 
REMARK  5 active torsions:
REMARK  status: ('A' for Active; 'I' for Inactive)
REMARK    1  A    between atoms: C_2  and  C_4
REMARK    2  A    between atoms: C_8  and  N_9
REMARK    3  A    between atoms: N_9  and  C_10
REMARK    4  A    between atoms: C_10  and  C_11
REMARK    5  A    between atoms: C_15  and  N_16
REMARK                            x       y       z     vdW  Elec       q    Type
REMARK                         _______ _______ _______ _____ _____    ______ ____
ROOT
ATOM      1  N   UNL     1      44.478   4.954   9.341  0.00  0.00    +0.000 N 
ATOM      2  H   UNL     1      43.818   5.347   8.672  0.00  0.00    +0.000 HD
ENDROOT
BRANCH   1   7
ATOM      3  C   UNL     1      46.579   2.675   7.268  0.00  0.00    +0.000 A 
ATOM      4  C   UNL     1      46.248   1.478   7.879  0.00  0.00    +0.000 A 
ATOM      5  N   UNL     1      45.429   1.396   8.953  0.00  0.00    +0.000 NA
ATOM      6  C   UNL     1      44.906   2.564   9.405  0.00  0.00    +0.000 A 
ATOM      7  C   UNL     1      45.158   3.832   8.864  0.00  0.00    +0.000 A 
ATOM      8  C   UNL     1      46.002   3.855   7.751  0.00  0.00    +0.000 A 
BRANCH   3  10
ATOM      9  N   UNL     1      48.837   2.497   6.399  0.00  0.00    +0.000 N 
ATOM     10  C   UNL     1      47.508   2.668   6.122  0.00  0.00    +0.000 C 
ATOM     11  O   UNL     1      47.108   2.765   4.970  0.00  0.00    +0.000 OA
ATOM     12  H   UNL     1      49.447   2.380   5.602  0.00  0.00    +0.000 HD
ATOM     13  H   UNL     1      49.164   2.150   7.291  0.00  0.00    +0.000 HD
ENDBRANCH   3  10
ENDBRANCH   1   7
BRANCH   1  14
ATOM     14  C   UNL     1      44.038   5.015  10.727  0.00  0.00    +0.000 C 
BRANCH  14  15
ATOM     15  C   UNL     1      45.015   5.789  11.561  0.00  0.00    +0.000 A 
ATOM     16  C   UNL     1      45.971   5.146  12.334  0.00  0.00    +0.000 A 
ATOM     17  N   UNL     1      46.862   5.793  13.113  0.00  0.00    +0.000 NA
ATOM     18  C   UNL     1      46.798   7.151  13.108  0.00  0.00    +0.000 A 
ATOM     19  C   UNL     1      45.892   7.922  12.378  0.00  0.00    +0.000 A 
ATOM     20  C   UNL     1      44.997   7.189  11.587  0.00  0.00    +0.000 A 
BRANCH  19  21
ATOM     21  N   UNL     1      45.860   9.303  12.393  0.00  0.00    +0.000 N 
ATOM     22  C   UNL     1      44.679  10.057  11.967  0.00  0.00    +0.000 C 
ATOM     23  C   UNL     1      44.973  10.848  10.696  0.00  0.00    +0.000 C 
ATOM     24  C   UNL     1      46.230  11.701  10.851  0.00  0.00    +0.000 C 
ATOM     25  C   UNL     1      47.414  10.846  11.293  0.00  0.00    +0.000 C 
ATOM     26  C   UNL     1      47.095  10.072  12.572  0.00  0.00    +0.000 C 
ENDBRANCH  19  21
ENDBRANCH  14  15
ENDBRANCH   1  14
TORSDOF 5
ENDMDL
MODEL 6
REMARK VINA RESULT:    -7.367      2.864      6.767
REMARK INTER + INTRA:         -10.163
REMARK INTER:                  -9.170
REMARK INTRA:                  -0.993
REMARK UNBOUND:                -0.643
REMARK  Name = 
REMARK  5 active torsions:
REMARK  status: ('A' for Active; 'I' for Inactive)
REMARK    1  A    between atoms: C_2  and  C_4
REMARK    2  A    between atoms: C_8  and  N_9
REMARK    3  A    between atoms: N_9  and  C_10
REMARK    4  A    between atoms: C_10  and  C_11
REMARK    5  A    between atoms: C_15  and  N_16
REMARK                            x       y       z     vdW  Elec       q    Type
REMARK                         _______ _______ _______ _____ _____    ______ ____
ROOT
ATOM      1  N   UNL     1      46.808   5.594  14.323  0.00  0.00    +0.000 N 
ATOM      2  H   UNL     1      46.094   5.810  15.016  0.00  0.00    +0.000 HD
ENDROOT
BRANCH   1   7
ATOM      3  C   UNL     1      46.755   8.760  12.353  0.00  0.00    +0.000 A 
ATOM      4  C   UNL     1      48.028   8.687  11.814  0.00  0.00    +0.000 A 
ATOM      5  N   UNL     1      48.902   7.697  12.107  0.00  0.00    +0.000 NA
ATOM      6  C   UNL     1      48.460   6.733  12.955  0.00  0.00    +0.000 A 
ATOM      7  C   UNL     1      47.194   6.693  13.554  0.00  0.00    +0.000 A 
ATOM      8  C   UNL     1      46.330   7.735  13.206  0.00  0.00    +0.000 A 
BRANCH   3  10
ATOM      9  N   UNL     1      44.656   9.951  12.600  0.00  0.00    +0.000 N 
ATOM     10  C   UNL     1      45.885   9.897  12.000  0.00  0.00    +0.000 C 
ATOM     11  O   UNL     1      46.258  10.780  11.240  0.00  0.00    +0.000 OA
ATOM     12  H   UNL     1      44.117  10.791  12.439  0.00  0.00    +0.000 HD
ATOM     13  H   UNL     1      44.429   9.401  13.418  0.00  0.00    +0.000 HD
ENDBRANCH   3  10
ENDBRANCH   1   7
BRANCH   1  14
ATOM     14  C   UNL     1      46.678   4.278  13.715  0.00  0.00    +0.000 C 
BRANCH  14  15
ATOM     15  C   UNL     1      45.466   4.217  12.834  0.00  0.00    +0.000 A 
ATOM     16  C   UNL     1      44.216   4.595  13.300  0.00  0.00    +0.000 A 
ATOM     17  N   UNL     1      43.093   4.546  12.554  0.00  0.00    +0.000 NA
ATOM     18  C   UNL     1      43.232   4.105  11.277  0.00  0.00    +0.000 A 
ATOM     19  C   UNL     1      44.428   3.696  10.680  0.00  0.00    +0.000 A 
ATOM     20  C   UNL     1      45.555   3.776  11.507  0.00  0.00    +0.000 A 
BRANCH  19  21
ATOM     21  N   UNL     1      44.533   3.258   9.375  0.00  0.00    +0.000 N 
ATOM     22  C   UNL     1      44.654   1.837   9.040  0.00  0.00    +0.000 C 
ATOM     23  C   UNL     1      46.023   1.540   8.436  0.00  0.00    +0.000 C 
ATOM     24  C   UNL     1      46.333   2.479   7.273  0.00  0.00    +0.000 C 
ATOM     25  C   UNL     1      46.188   3.937   7.700  0.00  0.00    +0.000 C 
ATOM     26  C   UNL     1      44.806   4.208   8.293  0.00  0.00    +0.000 C 
ENDBRANCH  19  21
ENDBRANCH  14  15
ENDBRANCH   1  14
TORSDOF 5
ENDMDL
MODEL 7
REMARK VINA RESULT:    -7.259      3.654      7.623
REMARK INTER + INTRA:         -10.025
REMARK INTER:                  -9.430
REMARK INTRA:                  -0.594
REMARK UNBOUND:                -0.643
REMARK  Name = 
REMARK  5 active torsions:
REMARK  status: ('A' for Active; 'I' for Inactive)
REMARK    1  A    between atoms: C_2  and  C_4
REMARK    2  A    between atoms: C_8  and  N_9
REMARK    3  A    between atoms: N_9  and  C_10
REMARK    4  A    between atoms: C_10  and  C_11
REMARK    5  A    between atoms: C_15  and  N_16
REMARK                            x       y       z     vdW  Elec       q    Type
REMARK                         _______ _______ _______ _____ _____    ______ ____
ROOT
ATOM      1  N   UNL     1      46.370   4.264  15.192  0.00  0.00    +0.000 N 
ATOM      2  H   UNL     1      45.689   5.010  15.326  0.00  0.00    +0.000 HD
ENDROOT
BRANCH   1   7
ATOM      3  C   UNL     1      49.270   3.206  17.283  0.00  0.00    +0.000 A 
ATOM      4  C   UNL     1      49.027   4.003  18.389  0.00  0.00    +0.000 A 
ATOM      5  N   UNL     1      48.010   4.892  18.453  0.00  0.00    +0.000 NA
ATOM      6  C   UNL     1      47.194   4.956  17.369  0.00  0.00    +0.000 A 
ATOM      7  C   UNL     1      47.333   4.195  16.201  0.00  0.00    +0.000 A 
ATOM      8  C   UNL     1      48.394   3.286  16.195  0.00  0.00    +0.000 A 
BRANCH   3  10
ATOM      9  N   UNL     1      51.412   2.542  18.207  0.00  0.00    +0.000 N 
ATOM     10  C   UNL     1      50.426   2.290  17.293  0.00  0.00    +0.000 C 
ATOM     11  O   UNL     1      50.483   1.320  16.550  0.00  0.00    +0.000 OA
ATOM     12  H   UNL     1      52.140   1.844  18.282  0.00  0.00    +0.000 HD
ATOM     13  H   UNL     1      51.272   3.155  18.999  0.00  0.00    +0.000 HD
ENDBRANCH   3  10
ENDBRANCH   1   7
BRANCH   1  14
ATOM     14  C   UNL     1      46.737   4.027  13.805  0.00  0.00    +0.000 C 
BRANCH  14  15
ATOM     15  C   UNL     1      45.528   4.076  12.919  0.00  0.00    +0.000 A 
ATOM     16  C   UNL     1      44.306   4.532  13.390  0.00  0.00    +0.000 A 
ATOM     17  N   UNL     1      43.186   4.583  12.640  0.00  0.00    +0.000 NA
ATOM     18  C   UNL     1      43.300   4.164  11.352  0.00  0.00    +0.000 A 
ATOM     19  C   UNL     1      44.465   3.684  10.750  0.00  0.00    +0.000 A 
ATOM     20  C   UNL     1      45.592   3.662  11.582  0.00  0.00    +0.000 A 
BRANCH  19  21
ATOM     21  N   UNL     1      44.544   3.271   9.434  0.00  0.00    +0.000 N 
ATOM     22  C   UNL     1      44.637   1.856   9.069  0.00  0.00    +0.000 C 
ATOM     23  C   UNL     1      45.992   1.548   8.439  0.00  0.00    +0.000 C 
ATOM     24  C   UNL     1      46.301   2.506   7.290  0.00  0.00    +0.000 C 
ATOM     25  C   UNL     1      46.187   3.957   7.750  0.00  0.00    +0.000 C 
ATOM     26  C   UNL     1      44.818   4.239   8.368  0.00  0.00    +0.000 C 
ENDBRANCH  19  21
ENDBRANCH  14  15
ENDBRANCH   1  14
TORSDOF 5
ENDMDL
MODEL 8
REMARK VINA RESULT:    -7.222      4.171      8.143
REMARK INTER + INTRA:          -9.977
REMARK INTER:                  -9.355
REMARK INTRA:                  -0.621
REMARK UNBOUND:                -0.643
REMARK  Name = 
REMARK  5 active torsions:
REMARK  status: ('A' for Active; 'I' for Inactive)
REMARK    1  A    between atoms: C_2  and  C_4
REMARK    2  A    between atoms: C_8  and  N_9
REMARK    3  A    between atoms: N_9  and  C_10
REMARK    4  A    between atoms: C_10  and  C_11
REMARK    5  A    between atoms: C_15  and  N_16
REMARK                            x       y       z     vdW  Elec       q    Type
REMARK                         _______ _______ _______ _____ _____    ______ ____
ROOT
ATOM      1  N   UNL     1      46.575   4.835  15.000  0.00  0.00    +0.000 N 
ATOM      2  H   UNL     1      46.342   5.810  15.186  0.00  0.00    +0.000 HD
ENDROOT
BRANCH   1   7
ATOM      3  C   UNL     1      48.324   4.189  18.229  0.00  0.00    +0.000 A 
ATOM      4  C   UNL     1      48.994   3.032  17.872  0.00  0.00    +0.000 A 
ATOM      5  N   UNL     1      48.855   2.438  16.664  0.00  0.00    +0.000 NA
ATOM      6  C   UNL     1      48.029   3.054  15.779  0.00  0.00    +0.000 A 
ATOM      7  C   UNL     1      47.308   4.230  16.022  0.00  0.00    +0.000 A 
ATOM      8  C   UNL     1      47.499   4.805  17.281  0.00  0.00    +0.000 A 
BRANCH   3  10
ATOM      9  N   UNL     1      48.647   3.850  20.610  0.00  0.00    +0.000 N 
ATOM     10  C   UNL     1      48.514   4.745  19.582  0.00  0.00    +0.000 C 
ATOM     11  O   UNL     1      48.595   5.950  19.777  0.00  0.00    +0.000 OA
ATOM     12  H   UNL     1      48.890   4.239  21.511  0.00  0.00    +0.000 HD
ATOM     13  H   UNL     1      48.853   2.873  20.453  0.00  0.00    +0.000 HD
ENDBRANCH   3  10
ENDBRANCH   1   7
BRANCH   1  14
ATOM     14  C   UNL     1      46.873   4.544  13.607  0.00  0.00    +0.000 C 
BRANCH  14  15
ATOM     15  C   UNL     1      45.610   4.353  12.821  0.00  0.00    +0.000 A 
ATOM     16  C   UNL     1      44.367   4.610  13.380  0.00  0.00    +0.000 A 
ATOM     17  N   UNL     1      43.202   4.441  12.722  0.00  0.00    +0.000 NA
ATOM     18  C   UNL     1      43.287   4.001  11.440  0.00  0.00    +0.000 A 
ATOM     19  C   UNL     1      44.469   3.706  10.755  0.00  0.00    +0.000 A 
ATOM     20  C   UNL     1      45.643   3.907  11.493  0.00  0.00    +0.000 A 
BRANCH  19  21
ATOM     21  N   UNL     1      44.518   3.265   9.447  0.00  0.00    +0.000 N 
ATOM     22  C   UNL     1      44.639   1.845   9.111  0.00  0.00    +0.000 C 
ATOM     23  C   UNL     1      45.982   1.560   8.445  0.00  0.00    +0.000 C 
ATOM     24  C   UNL     1      46.227   2.499   7.266  0.00  0.00    +0.000 C 
ATOM     25  C   UNL     1      46.087   3.957   7.696  0.00  0.00    +0.000 C 
ATOM     26  C   UNL     1      44.730   4.215   8.352  0.00  0.00    +0.000 C 
ENDBRANCH  19  21
ENDBRANCH  14  15
ENDBRANCH   1  14
TORSDOF 5
ENDMDL
MODEL 9
REMARK VINA RESULT:    -7.074      2.822      6.655
REMARK INTER + INTRA:          -9.785
REMARK INTER:                  -8.932
REMARK INTRA:                  -0.853
REMARK UNBOUND:                -0.643
REMARK  Name = 
REMARK  5 active torsions:
REMARK  status: ('A' for Active; 'I' for Inactive)
REMARK    1  A    between atoms: C_2  and  C_4
REMARK    2  A    between atoms: C_8  and  N_9
REMARK    3  A    between atoms: N_9  and  C_10
REMARK    4  A    between atoms: C_10  and  C_11
REMARK    5  A    between atoms: C_15  and  N_16
REMARK                            x       y       z     vdW  Elec       q    Type
REMARK                         _______ _______ _______ _____ _____    ______ ____
ROOT
ATOM      1  N   UNL     1      44.718   6.876  12.863  0.00  0.00    +0.000 N 
ATOM      2  H   UNL     1      44.272   7.564  13.468  0.00  0.00    +0.000 HD
ENDROOT
BRANCH   1   7
ATOM      3  C   UNL     1      48.218   8.003  12.243  0.00  0.00    +0.000 A 
ATOM      4  C   UNL     1      48.880   6.869  12.685  0.00  0.00    +0.000 A 
ATOM      5  N   UNL     1      48.244   5.800  13.217  0.00  0.00    +0.000 NA
ATOM      6  C   UNL     1      46.889   5.871  13.278  0.00  0.00    +0.000 A 
ATOM      7  C   UNL     1      46.112   6.957  12.855  0.00  0.00    +0.000 A 
ATOM      8  C   UNL     1      46.820   8.028  12.304  0.00  0.00    +0.000 A 
BRANCH   3  10
ATOM      9  N   UNL     1      50.363   9.043  11.795  0.00  0.00    +0.000 N 
ATOM     10  C   UNL     1      49.001   9.133  11.709  0.00  0.00    +0.000 C 
ATOM     11  O   UNL     1      48.461  10.090  11.170  0.00  0.00    +0.000 OA
ATOM     12  H   UNL     1      50.889   9.767  11.324  0.00  0.00    +0.000 HD
ATOM     13  H   UNL     1      50.837   8.169  11.980  0.00  0.00    +0.000 HD
ENDBRANCH   3  10
ENDBRANCH   1   7
BRANCH   1  14
ATOM     14  C   UNL     1      43.989   6.591  11.637  0.00  0.00    +0.000 C 
BRANCH  14  15
ATOM     15  C   UNL     1      43.956   5.116  11.369  0.00  0.00    +0.000 A 
ATOM     16  C   UNL     1      43.553   4.214  12.342  0.00  0.00    +0.000 A 
ATOM     17  N   UNL     1      43.519   2.879  12.157  0.00  0.00    +0.000 NA
ATOM     18  C   UNL     1      43.899   2.426  10.933  0.00  0.00    +0.000 A 
ATOM     19  C   UNL     1      44.324   3.220   9.866  0.00  0.00    +0.000 A 
ATOM     20  C   UNL     1      44.332   4.597  10.122  0.00  0.00    +0.000 A 
BRANCH  19  21
ATOM     21  N   UNL     1      44.698   2.725   8.632  0.00  0.00    +0.000 N 
ATOM     22  C   UNL     1      45.090   1.327   8.443  0.00  0.00    +0.000 C 
ATOM     23  C   UNL     1      46.567   1.226   8.070  0.00  0.00    +0.000 C 
ATOM     24  C   UNL     1      46.902   2.129   6.885  0.00  0.00    +0.000 C 
ATOM     25  C   UNL     1      46.467   3.566   7.158  0.00  0.00    +0.000 C 
ATOM     26  C   UNL     1      44.984   3.638   7.521  0.00  0.00    +0.000 C 
ENDBRANCH  19  21
ENDBRANCH  14  15
ENDBRANCH   1  14
TORSDOF 5
ENDMDL
