MODEL 1
REMARK VINA RESULT:    -7.449      0.000      0.000
REMARK INTER + INTRA:         -11.306
REMARK INTER:                 -10.279
REMARK INTRA:                  -1.026
REMARK UNBOUND:                -1.026
REMARK  Name = 
REMARK  7 active torsions:
REMARK  status: ('A' for Active; 'I' for Inactive)
REMARK    1  A    between atoms: N_1  and  C_2
REMARK    2  A    between atoms: C_2  and  C_3
REMARK    3  A    between atoms: C_2  and  C_24
REMARK    4  A    between atoms: C_3  and  C_4
REMARK    5  A    between atoms: C_7  and  C_8
REMARK    6  A    between atoms: C_8  and  N_9
REMARK    7  A    between atoms: C_10  and  C_12
REMARK                            x       y       z     vdW  Elec       q    Type
REMARK                         _______ _______ _______ _____ _____    ______ ____
ROOT
ATOM      1  C   UNL     1      45.202   6.868  11.853  0.00  0.00    +0.000 A 
ATOM      2  C   UNL     1      46.364   6.100  11.710  0.00  0.00    +0.000 A 
ATOM      3  C   UNL     1      47.571   6.502  12.290  0.00  0.00    +0.000 A 
ATOM      4  C   UNL     1      47.654   7.695  13.013  0.00  0.00    +0.000 A 
ATOM      5  C   UNL     1      46.519   8.509  13.094  0.00  0.00    +0.000 A 
ATOM      6  C   UNL     1      45.309   8.097  12.524  0.00  0.00    +0.000 A 
ENDROOT
BRANCH   1   7
ATOM      7  C   UNL     1      43.875   6.476  11.233  0.00  0.00    +0.000 C 
BRANCH   7   8
ATOM      8  C   UNL     1      43.062   5.295  11.815  0.00  0.00    +0.000 C 
BRANCH   8   9
ATOM      9  C   UNL     1      43.573   3.872  11.447  0.00  0.00    +0.000 C 
ATOM     10  O   UNL     1      43.648   3.001  12.324  0.00  0.00    +0.000 OA
ATOM     11  N   UNL     1      43.913   3.582  10.134  0.00  0.00    +0.000 N 
ATOM     12  C   UNL     1      44.199   2.192   9.772  0.00  0.00    +0.000 C 
ATOM     13  C   UNL     1      45.610   2.060   9.209  0.00  0.00    +0.000 C 
ATOM     14  C   UNL     1      45.817   3.023   8.042  0.00  0.00    +0.000 C 
ATOM     15  C   UNL     1      45.453   4.456   8.439  0.00  0.00    +0.000 C 
ATOM     16  C   UNL     1      44.044   4.532   9.031  0.00  0.00    +0.000 C 
ENDBRANCH   8   9
BRANCH   8  17
ATOM     17  N   UNL     1      42.912   5.388  13.289  0.00  0.00    +0.000 NA
ATOM     18  H   UNL     1      43.683   5.913  13.691  0.00  0.00    +0.000 HD
ATOM     19  H   UNL     1      43.001   4.433  13.658  0.00  0.00    +0.000 HD
ENDBRANCH   8  17
ENDBRANCH   7   8
ENDBRANCH   1   7
BRANCH   4  20
ATOM     20  C   UNL     1      48.955   8.120  13.637  0.00  0.00    +0.000 C 
BRANCH  20  21
ATOM     21  N   UNL     1      49.197   7.397  14.858  0.00  0.00    +0.000 N 
ATOM     22  C   UNL     1      48.800   7.890  16.070  0.00  0.00    +0.000 C 
ATOM     23  O   UNL     1      48.197   8.956  16.176  0.00  0.00    +0.000 OA
ATOM     24  H   UNL     1      49.865   6.633  14.814  0.00  0.00    +0.000 HD
BRANCH  22  25
ATOM     25  C   UNL     1      49.079   7.049  17.241  0.00  0.00    +0.000 A 
ATOM     26  C   UNL     1      49.749   7.591  18.330  0.00  0.00    +0.000 A 
ATOM     27  S   UNL     1      49.938   6.503  19.628  0.00  0.00    +0.000 S 
ATOM     28  C   UNL     1      49.177   5.251  18.761  0.00  0.00    +0.000 A 
ATOM     29  N   UNL     1      49.026   4.015  19.310  0.00  0.00    +0.000 NA
ATOM     30  C   UNL     1      48.451   3.156  18.535  0.00  0.00    +0.000 A 
ATOM     31  N   UNL     1      48.017   3.422  17.261  0.00  0.00    +0.000 N 
ATOM     32  C   UNL     1      48.127   4.659  16.676  0.00  0.00    +0.000 A 
ATOM     33  O   UNL     1      47.694   4.868  15.547  0.00  0.00    +0.000 OA
ATOM     34  C   UNL     1      48.772   5.664  17.502  0.00  0.00    +0.000 A 
ATOM     35  H   UNL     1      47.570   2.704  16.708  0.00  0.00    +0.000 HD
ENDBRANCH  22  25
ENDBRANCH  20  21
ENDBRANCH   4  20
TORSDOF 7
ENDMDL
MODEL 2
REMARK VINA RESULT:    -7.432      1.924      2.177
REMARK INTER + INTRA:         -11.282
REMARK INTER:                 -10.232
REMARK INTRA:                  -1.050
REMARK UNBOUND:                -1.026
REMARK  Name = 
REMARK  7 active torsions:
REMARK  status: ('A' for Active; 'I' for Inactive)
REMARK    1  A    between atoms: N_1  and  C_2
REMARK    2  A    between atoms: C_2  and  C_3
REMARK    3  A    between atoms: C_2  and  C_24
REMARK    4  A    between atoms: C_3  and  C_4
REMARK    5  A    between atoms: C_7  and  C_8
REMARK    6  A    between atoms: C_8  and  N_9
REMARK    7  A    between atoms: C_10  and  C_12
REMARK                            x       y       z     vdW  Elec       q    Type
REMARK                         _______ _______ _______ _____ _____    ______ ____
ROOT
ATOM      1  C   UNL     1      45.523   6.230  12.643  0.00  0.00    +0.000 A 
ATOM      2  C   UNL     1      45.687   7.582  12.322  0.00  0.00    +0.000 A 
ATOM      3  C   UNL     1      46.955   8.170  12.304  0.00  0.00    +0.000 A 
ATOM      4  C   UNL     1      48.093   7.426  12.626  0.00  0.00    +0.000 A 
ATOM      5  C   UNL     1      47.931   6.096  13.026  0.00  0.00    +0.000 A 
ATOM      6  C   UNL     1      46.662   5.506  13.030  0.00  0.00    +0.000 A 
ENDROOT
BRANCH   1   7
ATOM      7  C   UNL     1      44.166   5.554  12.686  0.00  0.00    +0.000 C 
BRANCH   7   8
ATOM      8  C   UNL     1      43.488   5.083  11.377  0.00  0.00    +0.000 C 
BRANCH   8   9
ATOM      9  C   UNL     1      43.809   3.627  10.931  0.00  0.00    +0.000 C 
ATOM     10  O   UNL     1      43.666   2.695  11.733  0.00  0.00    +0.000 OA
ATOM     11  N   UNL     1      44.224   3.382   9.630  0.00  0.00    +0.000 N 
ATOM     12  C   UNL     1      44.327   1.994   9.175  0.00  0.00    +0.000 C 
ATOM     13  C   UNL     1      45.749   1.680   8.722  0.00  0.00    +0.000 C 
ATOM     14  C   UNL     1      46.211   2.679   7.662  0.00  0.00    +0.000 C 
ATOM     15  C   UNL     1      46.033   4.119   8.150  0.00  0.00    +0.000 C 
ATOM     16  C   UNL     1      44.602   4.376   8.628  0.00  0.00    +0.000 C 
ENDBRANCH   8   9
BRANCH   8  17
ATOM     17  N   UNL     1      42.015   5.265  11.410  0.00  0.00    +0.000 NA
ATOM     18  H   UNL     1      41.770   6.065  11.985  0.00  0.00    +0.000 HD
ATOM     19  H   UNL     1      41.626   4.444  11.889  0.00  0.00    +0.000 HD
ENDBRANCH   8  17
ENDBRANCH   7   8
ENDBRANCH   1   7
BRANCH   4  20
ATOM     20  C   UNL     1      49.454   8.064  12.601  0.00  0.00    +0.000 C 
BRANCH  20  21
ATOM     21  N   UNL     1      50.337   7.428  13.543  0.00  0.00    +0.000 N 
ATOM     22  C   UNL     1      50.475   7.896  14.821  0.00  0.00    +0.000 C 
ATOM     23  O   UNL     1      49.838   8.862  15.234  0.00  0.00    +0.000 OA
ATOM     24  H   UNL     1      51.014   6.771  13.167  0.00  0.00    +0.000 HD
BRANCH  22  25
ATOM     25  C   UNL     1      51.384   7.146  15.697  0.00  0.00    +0.000 A 
ATOM     26  C   UNL     1      52.751   7.375  15.623  0.00  0.00    +0.000 A 
ATOM     27  S   UNL     1      53.658   6.471  16.748  0.00  0.00    +0.000 S 
ATOM     28  C   UNL     1      52.261   5.702  17.340  0.00  0.00    +0.000 A 
ATOM     29  N   UNL     1      52.343   4.772  18.330  0.00  0.00    +0.000 NA
ATOM     30  C   UNL     1      51.208   4.254  18.669  0.00  0.00    +0.000 A 
ATOM     31  N   UNL     1      50.002   4.580  18.104  0.00  0.00    +0.000 N 
ATOM     32  C   UNL     1      49.868   5.528  17.119  0.00  0.00    +0.000 A 
ATOM     33  O   UNL     1      48.767   5.819  16.663  0.00  0.00    +0.000 OA
ATOM     34  C   UNL     1      51.114   6.141  16.695  0.00  0.00    +0.000 A 
ATOM     35  H   UNL     1      49.149   4.139  18.418  0.00  0.00    +0.000 HD
ENDBRANCH  22  25
ENDBRANCH  20  21
ENDBRANCH   4  20
TORSDOF 7
ENDMDL
MODEL 3
REMARK VINA RESULT:    -7.278      2.066      2.373
REMARK INTER + INTRA:         -11.070
REMARK INTER:                 -10.291
REMARK INTRA:                  -0.779
REMARK UNBOUND:                -1.026
REMARK  Name = 
REMARK  7 active torsions:
REMARK  status: ('A' for Active; 'I' for Inactive)
REMARK    1  A    between atoms: N_1  and  C_2
REMARK    2  A    between atoms: C_2  and  C_3
REMARK    3  A    between atoms: C_2  and  C_24
REMARK    4  A    between atoms: C_3  and  C_4
REMARK    5  A    between atoms: C_7  and  C_8
REMARK    6  A    between atoms: C_8  and  N_9
REMARK    7  A    between atoms: C_10  and  C_12
REMARK                            x       y       z     vdW  Elec       q    Type
REMARK                         _______ _______ _______ _____ _____    ______ ____
ROOT
ATOM      1  C   UNL     1      46.597   6.639  12.231  0.00  0.00    +0.000 A 
ATOM      2  C   UNL     1      46.510   7.964  12.674  0.00  0.00    +0.000 A 
ATOM      3  C   UNL     1      47.230   8.401  13.790  0.00  0.00    +0.000 A 
ATOM      4  C   UNL     1      48.042   7.517  14.507  0.00  0.00    +0.000 A 
ATOM      5  C   UNL     1      48.073   6.174  14.120  0.00  0.00    +0.000 A 
ATOM      6  C   UNL     1      47.362   5.743  12.995  0.00  0.00    +0.000 A 
ENDROOT
BRANCH   1   7
ATOM      7  C   UNL     1      45.826   6.121  11.032  0.00  0.00    +0.000 C 
BRANCH   7   8
ATOM      8  C   UNL     1      44.570   5.239  11.236  0.00  0.00    +0.000 C 
BRANCH   8   9
ATOM      9  C   UNL     1      44.724   3.740  10.850  0.00  0.00    +0.000 C 
ATOM     10  O   UNL     1      44.748   2.877  11.738  0.00  0.00    +0.000 OA
ATOM     11  N   UNL     1      44.803   3.379   9.512  0.00  0.00    +0.000 N 
ATOM     12  C   UNL     1      44.746   1.957   9.163  0.00  0.00    +0.000 C 
ATOM     13  C   UNL     1      46.004   1.536   8.412  0.00  0.00    +0.000 C 
ATOM     14  C   UNL     1      46.230   2.429   7.193  0.00  0.00    +0.000 C 
ATOM     15  C   UNL     1      46.224   3.908   7.587  0.00  0.00    +0.000 C 
ATOM     16  C   UNL     1      44.961   4.275   8.370  0.00  0.00    +0.000 C 
ENDBRANCH   8   9
BRANCH   8  17
ATOM     17  N   UNL     1      44.038   5.330  12.619  0.00  0.00    +0.000 NA
ATOM     18  H   UNL     1      44.281   6.225  13.033  0.00  0.00    +0.000 HD
ATOM     19  H   UNL     1      44.531   4.620  13.174  0.00  0.00    +0.000 HD
ENDBRANCH   8  17
ENDBRANCH   7   8
ENDBRANCH   1   7
BRANCH   4  20
ATOM     20  C   UNL     1      48.816   7.994  15.704  0.00  0.00    +0.000 C 
BRANCH  20  21
ATOM     21  N   UNL     1      49.830   7.041  16.073  0.00  0.00    +0.000 N 
ATOM     22  C   UNL     1      49.758   6.340  17.245  0.00  0.00    +0.000 C 
ATOM     23  O   UNL     1      48.819   6.469  18.026  0.00  0.00    +0.000 OA
ATOM     24  H   UNL     1      50.701   7.073  15.552  0.00  0.00    +0.000 HD
BRANCH  22  25
ATOM     25  C   UNL     1      50.837   5.376  17.497  0.00  0.00    +0.000 A 
ATOM     26  C   UNL     1      52.088   5.835  17.888  0.00  0.00    +0.000 A 
ATOM     27  S   UNL     1      53.207   4.587  18.199  0.00  0.00    +0.000 S 
ATOM     28  C   UNL     1      52.076   3.390  17.772  0.00  0.00    +0.000 A 
ATOM     29  N   UNL     1      52.410   2.071  17.805  0.00  0.00    +0.000 NA
ATOM     30  C   UNL     1      51.462   1.273  17.437  0.00  0.00    +0.000 A 
ATOM     31  N   UNL     1      50.214   1.677  17.037  0.00  0.00    +0.000 N 
ATOM     32  C   UNL     1      49.826   2.993  17.010  0.00  0.00    +0.000 A 
ATOM     33  O   UNL     1      48.688   3.313  16.680  0.00  0.00    +0.000 OA
ATOM     34  C   UNL     1      50.854   3.937  17.410  0.00  0.00    +0.000 A 
ATOM     35  H   UNL     1      49.517   0.999  16.764  0.00  0.00    +0.000 HD
ENDBRANCH  22  25
ENDBRANCH  20  21
ENDBRANCH   4  20
TORSDOF 7
ENDMDL
MODEL 4
REMARK VINA RESULT:    -7.246      2.867      7.943
REMARK INTER + INTRA:         -11.025
REMARK INTER:                  -9.525
REMARK INTRA:                  -1.500
REMARK UNBOUND:                -1.026
REMARK  Name = 
REMARK  7 active torsions:
REMARK  status: ('A' for Active; 'I' for Inactive)
REMARK    1  A    between atoms: N_1  and  C_2
REMARK    2  A    between atoms: C_2  and  C_3
REMARK    3  A    between atoms: C_2  and  C_24
REMARK    4  A    between atoms: C_3  and  C_4
REMARK    5  A    between atoms: C_7  and  C_8
REMARK    6  A    between atoms: C_8  and  N_9
REMARK    7  A    between atoms: C_10  and  C_12
REMARK                            x       y       z     vdW  Elec       q    Type
REMARK                         _______ _______ _______ _____ _____    ______ ____
ROOT
ATOM      1  C   UNL     1      48.972   8.236  16.103  0.00  0.00    +0.000 A 
ATOM      2  C   UNL     1      49.340   7.120  15.342  0.00  0.00    +0.000 A 
ATOM      3  C   UNL     1      48.922   6.981  14.015  0.00  0.00    +0.000 A 
ATOM      4  C   UNL     1      48.106   7.946  13.418  0.00  0.00    +0.000 A 
ATOM      5  C   UNL     1      47.668   9.024  14.194  0.00  0.00    +0.000 A 
ATOM      6  C   UNL     1      48.099   9.167  15.517  0.00  0.00    +0.000 A 
ENDROOT
BRANCH   1   7
ATOM      7  C   UNL     1      49.394   8.422  17.547  0.00  0.00    +0.000 C 
BRANCH   7   8
ATOM      8  C   UNL     1      48.844   7.481  18.646  0.00  0.00    +0.000 C 
BRANCH   8   9
ATOM      9  C   UNL     1      49.478   6.061  18.704  0.00  0.00    +0.000 C 
ATOM     10  O   UNL     1      50.649   5.927  19.083  0.00  0.00    +0.000 OA
ATOM     11  N   UNL     1      48.716   4.954  18.359  0.00  0.00    +0.000 N 
ATOM     12  C   UNL     1      49.263   3.619  18.609  0.00  0.00    +0.000 C 
ATOM     13  C   UNL     1      49.357   2.823  17.312  0.00  0.00    +0.000 C 
ATOM     14  C   UNL     1      48.003   2.778  16.606  0.00  0.00    +0.000 C 
ATOM     15  C   UNL     1      47.436   4.187  16.414  0.00  0.00    +0.000 C 
ATOM     16  C   UNL     1      47.394   4.959  17.736  0.00  0.00    +0.000 C 
ENDBRANCH   8   9
BRANCH   8  17
ATOM     17  N   UNL     1      48.911   8.095  19.996  0.00  0.00    +0.000 NA
ATOM     18  H   UNL     1      48.762   7.391  20.713  0.00  0.00    +0.000 HD
ATOM     19  H   UNL     1      48.115   8.741  20.069  0.00  0.00    +0.000 HD
ENDBRANCH   8  17
ENDBRANCH   7   8
ENDBRANCH   1   7
BRANCH   4  20
ATOM     20  C   UNL     1      47.663   7.792  11.990  0.00  0.00    +0.000 C 
BRANCH  20  21
ATOM     21  N   UNL     1      46.959   6.551  11.802  0.00  0.00    +0.000 N 
ATOM     22  C   UNL     1      45.593   6.505  11.755  0.00  0.00    +0.000 C 
ATOM     23  O   UNL     1      44.902   7.518  11.845  0.00  0.00    +0.000 OA
ATOM     24  H   UNL     1      47.492   5.696  11.933  0.00  0.00    +0.000 HD
BRANCH  22  25
ATOM     25  C   UNL     1      44.990   5.185  11.531  0.00  0.00    +0.000 A 
ATOM     26  C   UNL     1      44.291   4.568  12.560  0.00  0.00    +0.000 A 
ATOM     27  S   UNL     1      43.603   3.072  12.119  0.00  0.00    +0.000 S 
ATOM     28  C   UNL     1      44.260   3.170  10.552  0.00  0.00    +0.000 A 
ATOM     29  N   UNL     1      44.056   2.174   9.647  0.00  0.00    +0.000 NA
ATOM     30  C   UNL     1      44.629   2.368   8.505  0.00  0.00    +0.000 A 
ATOM     31  N   UNL     1      45.388   3.466   8.189  0.00  0.00    +0.000 N 
ATOM     32  C   UNL     1      45.601   4.504   9.062  0.00  0.00    +0.000 A 
ATOM     33  O   UNL     1      46.257   5.487   8.730  0.00  0.00    +0.000 OA
ATOM     34  C   UNL     1      44.984   4.337  10.365  0.00  0.00    +0.000 A 
ATOM     35  H   UNL     1      45.806   3.557   7.274  0.00  0.00    +0.000 HD
ENDBRANCH  22  25
ENDBRANCH  20  21
ENDBRANCH   4  20
TORSDOF 7
ENDMDL
MODEL 5
REMARK VINA RESULT:    -7.031      1.864      2.127
REMARK INTER + INTRA:         -10.729
REMARK INTER:                  -9.880
REMARK INTRA:                  -0.849
REMARK UNBOUND:                -1.026
REMARK  Name = 
REMARK  7 active torsions:
REMARK  status: ('A' for Active; 'I' for Inactive)
REMARK    1  A    between atoms: N_1  and  C_2
REMARK    2  A    between atoms: C_2  and  C_3
REMARK    3  A    between atoms: C_2  and  C_24
REMARK    4  A    between atoms: C_3  and  C_4
REMARK    5  A    between atoms: C_7  and  C_8
REMARK    6  A    between atoms: C_8  and  N_9
REMARK    7  A    between atoms: C_10  and  C_12
REMARK                            x       y       z     vdW  Elec       q    Type
REMARK                         _______ _______ _______ _____ _____    ______ ____
ROOT
ATOM      1  C   UNL     1      45.270   6.852  11.955  0.00  0.00    +0.000 A 
ATOM      2  C   UNL     1      46.391   6.013  11.933  0.00  0.00    +0.000 A 
ATOM      3  C   UNL     1      47.580   6.381  12.570  0.00  0.00    +0.000 A 
ATOM      4  C   UNL     1      47.687   7.607  13.231  0.00  0.00    +0.000 A 
ATOM      5  C   UNL     1      46.600   8.486  13.191  0.00  0.00    +0.000 A 
ATOM      6  C   UNL     1      45.407   8.110  12.564  0.00  0.00    +0.000 A 
ENDROOT
BRANCH   1   7
ATOM      7  C   UNL     1      43.965   6.498  11.268  0.00  0.00    +0.000 C 
BRANCH   7   8
ATOM      8  C   UNL     1      43.099   5.329  11.795  0.00  0.00    +0.000 C 
BRANCH   8   9
ATOM      9  C   UNL     1      43.596   3.900  11.431  0.00  0.00    +0.000 C 
ATOM     10  O   UNL     1      43.649   3.027  12.308  0.00  0.00    +0.000 OA
ATOM     11  N   UNL     1      43.946   3.606  10.121  0.00  0.00    +0.000 N 
ATOM     12  C   UNL     1      44.217   2.213   9.761  0.00  0.00    +0.000 C 
ATOM     13  C   UNL     1      45.632   2.064   9.213  0.00  0.00    +0.000 C 
ATOM     14  C   UNL     1      45.865   3.025   8.049  0.00  0.00    +0.000 C 
ATOM     15  C   UNL     1      45.516   4.462   8.444  0.00  0.00    +0.000 C 
ATOM     16  C   UNL     1      44.101   4.556   9.021  0.00  0.00    +0.000 C 
ENDBRANCH   8   9
BRANCH   8  17
ATOM     17  N   UNL     1      42.882   5.406  13.261  0.00  0.00    +0.000 NA
ATOM     18  H   UNL     1      41.978   5.823  13.464  0.00  0.00    +0.000 HD
ATOM     19  H   UNL     1      43.582   6.061  13.631  0.00  0.00    +0.000 HD
ENDBRANCH   8  17
ENDBRANCH   7   8
ENDBRANCH   1   7
BRANCH   4  20
ATOM     20  C   UNL     1      48.967   7.994  13.918  0.00  0.00    +0.000 C 
BRANCH  20  21
ATOM     21  N   UNL     1      49.405   6.953  14.811  0.00  0.00    +0.000 N 
ATOM     22  C   UNL     1      49.092   6.974  16.141  0.00  0.00    +0.000 C 
ATOM     23  O   UNL     1      48.404   7.864  16.635  0.00  0.00    +0.000 OA
ATOM     24  H   UNL     1      50.135   6.333  14.470  0.00  0.00    +0.000 HD
BRANCH  22  25
ATOM     25  C   UNL     1      49.572   5.842  16.945  0.00  0.00    +0.000 A 
ATOM     26  C   UNL     1      48.656   5.030  17.599  0.00  0.00    +0.000 A 
ATOM     27  S   UNL     1      49.372   3.728  18.435  0.00  0.00    +0.000 S 
ATOM     28  C   UNL     1      50.936   4.233  17.995  0.00  0.00    +0.000 A 
ATOM     29  N   UNL     1      52.034   3.545  18.411  0.00  0.00    +0.000 NA
ATOM     30  C   UNL     1      53.157   4.051  18.021  0.00  0.00    +0.000 A 
ATOM     31  N   UNL     1      53.280   5.183  17.257  0.00  0.00    +0.000 N 
ATOM     32  C   UNL     1      52.201   5.896  16.796  0.00  0.00    +0.000 A 
ATOM     33  O   UNL     1      52.350   6.884  16.084  0.00  0.00    +0.000 OA
ATOM     34  C   UNL     1      50.910   5.374  17.208  0.00  0.00    +0.000 A 
ATOM     35  H   UNL     1      54.191   5.523  16.983  0.00  0.00    +0.000 HD
ENDBRANCH  22  25
ENDBRANCH  20  21
ENDBRANCH   4  20
TORSDOF 7
ENDMDL
MODEL 6
REMARK VINA RESULT:    -6.900      1.464      1.713
REMARK INTER + INTRA:         -10.548
REMARK INTER:                  -9.624
REMARK INTRA:                  -0.924
REMARK UNBOUND:                -1.026
REMARK  Name = 
REMARK  7 active torsions:
REMARK  status: ('A' for Active; 'I' for Inactive)
REMARK    1  A    between atoms: N_1  and  C_2
REMARK    2  A    between atoms: C_2  and  C_3
REMARK    3  A    between atoms: C_2  and  C_24
REMARK    4  A    between atoms: C_3  and  C_4
REMARK    5  A    between atoms: C_7  and  C_8
REMARK    6  A    between atoms: C_8  and  N_9
REMARK    7  A    between atoms: C_10  and  C_12
REMARK                            x       y       z     vdW  Elec       q    Type
REMARK                         _______ _______ _______ _____ _____    ______ ____
ROOT
ATOM      1  C   UNL     1      45.868   5.838  12.968  0.00  0.00    +0.000 A 
ATOM      2  C   UNL     1      46.860   5.079  13.601  0.00  0.00    +0.000 A 
ATOM      3  C   UNL     1      48.017   5.679  14.104  0.00  0.00    +0.000 A 
ATOM      4  C   UNL     1      48.225   7.055  13.971  0.00  0.00    +0.000 A 
ATOM      5  C   UNL     1      47.279   7.809  13.270  0.00  0.00    +0.000 A 
ATOM      6  C   UNL     1      46.115   7.208  12.779  0.00  0.00    +0.000 A 
ENDROOT
BRANCH   1   7
ATOM      7  C   UNL     1      44.603   5.227  12.398  0.00  0.00    +0.000 C 
BRANCH   7   8
ATOM      8  C   UNL     1      44.501   4.915  10.886  0.00  0.00    +0.000 C 
BRANCH   8   9
ATOM      9  C   UNL     1      44.760   3.435  10.480  0.00  0.00    +0.000 C 
ATOM     10  O   UNL     1      44.719   2.547  11.341  0.00  0.00    +0.000 OA
ATOM     11  N   UNL     1      45.004   3.120   9.151  0.00  0.00    +0.000 N 
ATOM     12  C   UNL     1      45.046   1.709   8.760  0.00  0.00    +0.000 C 
ATOM     13  C   UNL     1      46.397   1.360   8.145  0.00  0.00    +0.000 C 
ATOM     14  C   UNL     1      46.721   2.299   6.984  0.00  0.00    +0.000 C 
ATOM     15  C   UNL     1      46.610   3.763   7.414  0.00  0.00    +0.000 C 
ATOM     16  C   UNL     1      45.252   4.057   8.058  0.00  0.00    +0.000 C 
ENDBRANCH   8   9
BRANCH   8  17
ATOM     17  N   UNL     1      43.208   5.356  10.306  0.00  0.00    +0.000 NA
ATOM     18  H   UNL     1      42.911   6.231  10.728  0.00  0.00    +0.000 HD
ATOM     19  H   UNL     1      42.506   4.659  10.583  0.00  0.00    +0.000 HD
ENDBRANCH   8  17
ENDBRANCH   7   8
ENDBRANCH   1   7
BRANCH   4  20
ATOM     20  C   UNL     1      49.471   7.694  14.518  0.00  0.00    +0.000 C 
BRANCH  20  21
ATOM     21  N   UNL     1      49.691   7.302  15.886  0.00  0.00    +0.000 N 
ATOM     22  C   UNL     1      49.423   8.150  16.924  0.00  0.00    +0.000 C 
ATOM     23  O   UNL     1      48.960   9.275  16.745  0.00  0.00    +0.000 OA
ATOM     24  H   UNL     1      50.257   6.473  16.040  0.00  0.00    +0.000 HD
BRANCH  22  25
ATOM     25  C   UNL     1      49.661   7.626  18.275  0.00  0.00    +0.000 A 
ATOM     26  C   UNL     1      50.468   8.337  19.153  0.00  0.00    +0.000 A 
ATOM     27  S   UNL     1      50.592   7.626  20.697  0.00  0.00    +0.000 S 
ATOM     28  C   UNL     1      49.614   6.314  20.231  0.00  0.00    +0.000 A 
ATOM     29  N   UNL     1      49.333   5.309  21.105  0.00  0.00    +0.000 NA
ATOM     30  C   UNL     1      48.596   4.367  20.614  0.00  0.00    +0.000 A 
ATOM     31  N   UNL     1      48.120   4.340  19.328  0.00  0.00    +0.000 N 
ATOM     32  C   UNL     1      48.359   5.341  18.420  0.00  0.00    +0.000 A 
ATOM     33  O   UNL     1      47.885   5.299  17.289  0.00  0.00    +0.000 OA
ATOM     34  C   UNL     1      49.187   6.425  18.917  0.00  0.00    +0.000 A 
ATOM     35  H   UNL     1      47.545   3.574  19.008  0.00  0.00    +0.000 HD
ENDBRANCH  22  25
ENDBRANCH  20  21
ENDBRANCH   4  20
TORSDOF 7
ENDMDL
MODEL 7
REMARK VINA RESULT:    -6.602      2.660      3.308
REMARK INTER + INTRA:         -10.136
REMARK INTER:                  -9.504
REMARK INTRA:                  -0.633
REMARK UNBOUND:                -1.026
REMARK  Name = 
REMARK  7 active torsions:
REMARK  status: ('A' for Active; 'I' for Inactive)
REMARK    1  A    between atoms: N_1  and  C_2
REMARK    2  A    between atoms: C_2  and  C_3
REMARK    3  A    between atoms: C_2  and  C_24
REMARK    4  A    between atoms: C_3  and  C_4
REMARK    5  A    between atoms: C_7  and  C_8
REMARK    6  A    between atoms: C_8  and  N_9
REMARK    7  A    between atoms: C_10  and  C_12
REMARK                            x       y       z     vdW  Elec       q    Type
REMARK                         _______ _______ _______ _____ _____    ______ ____
ROOT
ATOM      1  C   UNL     1      46.758   6.438  12.093  0.00  0.00    +0.000 A 
ATOM      2  C   UNL     1      47.140   7.728  12.481  0.00  0.00    +0.000 A 
ATOM      3  C   UNL     1      47.806   7.951  13.689  0.00  0.00    +0.000 A 
ATOM      4  C   UNL     1      48.091   6.891  14.554  0.00  0.00    +0.000 A 
ATOM      5  C   UNL     1      47.644   5.610  14.213  0.00  0.00    +0.000 A 
ATOM      6  C   UNL     1      46.989   5.389  12.996  0.00  0.00    +0.000 A 
ENDROOT
BRANCH   1   7
ATOM      7  C   UNL     1      46.025   6.152  10.797  0.00  0.00    +0.000 C 
BRANCH   7   8
ATOM      8  C   UNL     1      44.702   5.350  10.811  0.00  0.00    +0.000 C 
BRANCH   8   9
ATOM      9  C   UNL     1      44.829   3.825  10.528  0.00  0.00    +0.000 C 
ATOM     10  O   UNL     1      44.763   3.020  11.466  0.00  0.00    +0.000 OA
ATOM     11  N   UNL     1      44.986   3.379   9.223  0.00  0.00    +0.000 N 
ATOM     12  C   UNL     1      44.904   1.941   8.958  0.00  0.00    +0.000 C 
ATOM     13  C   UNL     1      46.194   1.435   8.323  0.00  0.00    +0.000 C 
ATOM     14  C   UNL     1      46.534   2.243   7.071  0.00  0.00    +0.000 C 
ATOM     15  C   UNL     1      46.553   3.743   7.374  0.00  0.00    +0.000 C 
ATOM     16  C   UNL     1      45.253   4.197   8.043  0.00  0.00    +0.000 C 
ENDBRANCH   8   9
BRANCH   8  17
ATOM     17  N   UNL     1      43.939   5.546  12.069  0.00  0.00    +0.000 NA
ATOM     18  H   UNL     1      43.351   4.740  12.256  0.00  0.00    +0.000 HD
ATOM     19  H   UNL     1      43.296   6.331  11.908  0.00  0.00    +0.000 HD
ENDBRANCH   8  17
ENDBRANCH   7   8
ENDBRANCH   1   7
BRANCH   4  20
ATOM     20  C   UNL     1      48.811   7.137  15.851  0.00  0.00    +0.000 C 
BRANCH  20  21
ATOM     21  N   UNL     1      49.665   6.027  16.183  0.00  0.00    +0.000 N 
ATOM     22  C   UNL     1      49.501   5.322  17.343  0.00  0.00    +0.000 C 
ATOM     23  O   UNL     1      48.606   5.582  18.144  0.00  0.00    +0.000 OA
ATOM     24  H   UNL     1      50.522   5.931  15.646  0.00  0.00    +0.000 HD
BRANCH  22  25
ATOM     25  C   UNL     1      50.416   4.193  17.556  0.00  0.00    +0.000 A 
ATOM     26  C   UNL     1      50.027   2.915  17.178  0.00  0.00    +0.000 A 
ATOM     27  S   UNL     1      51.225   1.730  17.437  0.00  0.00    +0.000 S 
ATOM     28  C   UNL     1      52.288   2.875  18.112  0.00  0.00    +0.000 A 
ATOM     29  N   UNL     1      53.516   2.503  18.566  0.00  0.00    +0.000 NA
ATOM     30  C   UNL     1      54.211   3.468  19.073  0.00  0.00    +0.000 A 
ATOM     31  N   UNL     1      53.786   4.769  19.168  0.00  0.00    +0.000 N 
ATOM     32  C   UNL     1      52.565   5.193  18.703  0.00  0.00    +0.000 A 
ATOM     33  O   UNL     1      52.235   6.373  18.774  0.00  0.00    +0.000 OA
ATOM     34  C   UNL     1      51.739   4.148  18.127  0.00  0.00    +0.000 A 
ATOM     35  H   UNL     1      54.381   5.477  19.573  0.00  0.00    +0.000 HD
ENDBRANCH  22  25
ENDBRANCH  20  21
ENDBRANCH   4  20
TORSDOF 7
ENDMDL
MODEL 8
REMARK VINA RESULT:    -6.496      3.890      8.652
REMARK INTER + INTRA:          -9.991
REMARK INTER:                  -8.421
REMARK INTRA:                  -1.570
REMARK UNBOUND:                -1.026
REMARK  Name = 
REMARK  7 active torsions:
REMARK  status: ('A' for Active; 'I' for Inactive)
REMARK    1  A    between atoms: N_1  and  C_2
REMARK    2  A    between atoms: C_2  and  C_3
REMARK    3  A    between atoms: C_2  and  C_24
REMARK    4  A    between atoms: C_3  and  C_4
REMARK    5  A    between atoms: C_7  and  C_8
REMARK    6  A    between atoms: C_8  and  N_9
REMARK    7  A    between atoms: C_10  and  C_12
REMARK                            x       y       z     vdW  Elec       q    Type
REMARK                         _______ _______ _______ _____ _____    ______ ____
ROOT
ATOM      1  C   UNL     1      50.413   8.928  11.320  0.00  0.00    +0.000 A 
ATOM      2  C   UNL     1      49.497   9.981  11.426  0.00  0.00    +0.000 A 
ATOM      3  C   UNL     1      48.217   9.775  11.947  0.00  0.00    +0.000 A 
ATOM      4  C   UNL     1      47.810   8.503  12.359  0.00  0.00    +0.000 A 
ATOM      5  C   UNL     1      48.689   7.429  12.183  0.00  0.00    +0.000 A 
ATOM      6  C   UNL     1      49.974   7.642  11.673  0.00  0.00    +0.000 A 
ENDROOT
BRANCH   1   7
ATOM      7  C   UNL     1      51.808   9.105  10.750  0.00  0.00    +0.000 C 
BRANCH   7   8
ATOM      8  C   UNL     1      52.980   9.514  11.674  0.00  0.00    +0.000 C 
BRANCH   8   9
ATOM      9  C   UNL     1      53.324   8.516  12.817  0.00  0.00    +0.000 C 
ATOM     10  O   UNL     1      54.081   7.563  12.592  0.00  0.00    +0.000 OA
ATOM     11  N   UNL     1      52.803   8.719  14.087  0.00  0.00    +0.000 N 
ATOM     12  C   UNL     1      53.294   7.890  15.190  0.00  0.00    +0.000 C 
ATOM     13  C   UNL     1      52.149   7.116  15.833  0.00  0.00    +0.000 C 
ATOM     14  C   UNL     1      51.033   8.064  16.267  0.00  0.00    +0.000 C 
ATOM     15  C   UNL     1      50.586   8.955  15.105  0.00  0.00    +0.000 C 
ATOM     16  C   UNL     1      51.772   9.682  14.468  0.00  0.00    +0.000 C 
ENDBRANCH   8   9
BRANCH   8  17
ATOM     17  N   UNL     1      54.216   9.819  10.911  0.00  0.00    +0.000 NA
ATOM     18  H   UNL     1      54.202  10.780  10.583  0.00  0.00    +0.000 HD
ATOM     19  H   UNL     1      54.195   9.234  10.066  0.00  0.00    +0.000 HD
ENDBRANCH   8  17
ENDBRANCH   7   8
ENDBRANCH   1   7
BRANCH   4  20
ATOM     20  C   UNL     1      46.432   8.289  12.923  0.00  0.00    +0.000 C 
BRANCH  20  21
ATOM     21  N   UNL     1      45.967   6.954  12.648  0.00  0.00    +0.000 N 
ATOM     22  C   UNL     1      45.005   6.713  11.707  0.00  0.00    +0.000 C 
ATOM     23  O   UNL     1      44.509   7.614  11.035  0.00  0.00    +0.000 OA
ATOM     24  H   UNL     1      46.208   6.236  13.325  0.00  0.00    +0.000 HD
BRANCH  22  25
ATOM     25  C   UNL     1      44.634   5.307  11.497  0.00  0.00    +0.000 A 
ATOM     26  C   UNL     1      43.923   4.633  12.481  0.00  0.00    +0.000 A 
ATOM     27  S   UNL     1      43.518   3.032  12.056  0.00  0.00    +0.000 S 
ATOM     28  C   UNL     1      44.324   3.167  10.563  0.00  0.00    +0.000 A 
ATOM     29  N   UNL     1      44.373   2.116   9.700  0.00  0.00    +0.000 NA
ATOM     30  C   UNL     1      45.034   2.349   8.614  0.00  0.00    +0.000 A 
ATOM     31  N   UNL     1      45.652   3.537   8.317  0.00  0.00    +0.000 N 
ATOM     32  C   UNL     1      45.611   4.630   9.147  0.00  0.00    +0.000 A 
ATOM     33  O   UNL     1      46.146   5.688   8.831  0.00  0.00    +0.000 OA
ATOM     34  C   UNL     1      44.883   4.423  10.386  0.00  0.00    +0.000 A 
ATOM     35  H   UNL     1      46.151   3.654   7.447  0.00  0.00    +0.000 HD
ENDBRANCH  22  25
ENDBRANCH  20  21
ENDBRANCH   4  20
TORSDOF 7
ENDMDL
MODEL 9
REMARK VINA RESULT:    -6.419      2.952      7.599
REMARK INTER + INTRA:          -9.884
REMARK INTER:                  -8.040
REMARK INTRA:                  -1.844
REMARK UNBOUND:                -1.026
REMARK  Name = 
REMARK  7 active torsions:
REMARK  status: ('A' for Active; 'I' for Inactive)
REMARK    1  A    between atoms: N_1  and  C_2
REMARK    2  A    between atoms: C_2  and  C_3
REMARK    3  A    between atoms: C_2  and  C_24
REMARK    4  A    between atoms: C_3  and  C_4
REMARK    5  A    between atoms: C_7  and  C_8
REMARK    6  A    between atoms: C_8  and  N_9
REMARK    7  A    between atoms: C_10  and  C_12
REMARK                            x       y       z     vdW  Elec       q    Type
REMARK                         _______ _______ _______ _____ _____    ______ ____
ROOT
ATOM      1  C   UNL     1      50.811   7.580  16.846  0.00  0.00    +0.000 A 
ATOM      2  C   UNL     1      49.512   8.075  17.012  0.00  0.00    +0.000 A 
ATOM      3  C   UNL     1      48.751   8.489  15.915  0.00  0.00    +0.000 A 
ATOM      4  C   UNL     1      49.276   8.437  14.621  0.00  0.00    +0.000 A 
ATOM      5  C   UNL     1      50.600   8.019  14.452  0.00  0.00    +0.000 A 
ATOM      6  C   UNL     1      51.355   7.593  15.551  0.00  0.00    +0.000 A 
ENDROOT
BRANCH   1   7
ATOM      7  C   UNL     1      51.675   7.131  18.008  0.00  0.00    +0.000 C 
BRANCH   7   8
ATOM      8  C   UNL     1      51.247   5.924  18.877  0.00  0.00    +0.000 C 
BRANCH   8   9
ATOM      9  C   UNL     1      50.921   4.613  18.105  0.00  0.00    +0.000 C 
ATOM     10  O   UNL     1      51.806   4.057  17.440  0.00  0.00    +0.000 OA
ATOM     11  N   UNL     1      49.651   4.061  18.192  0.00  0.00    +0.000 N 
ATOM     12  C   UNL     1      49.422   2.731  17.625  0.00  0.00    +0.000 C 
ATOM     13  C   UNL     1      48.338   2.780  16.554  0.00  0.00    +0.000 C 
ATOM     14  C   UNL     1      47.060   3.408  17.107  0.00  0.00    +0.000 C 
ATOM     15  C   UNL     1      47.348   4.770  17.743  0.00  0.00    +0.000 C 
ATOM     16  C   UNL     1      48.466   4.677  18.784  0.00  0.00    +0.000 C 
ENDBRANCH   8   9
BRANCH   8  17
ATOM     17  N   UNL     1      52.232   5.623  19.946  0.00  0.00    +0.000 NA
ATOM     18  H   UNL     1      52.617   6.484  20.324  0.00  0.00    +0.000 HD
ATOM     19  H   UNL     1      53.018   5.137  19.497  0.00  0.00    +0.000 HD
ENDBRANCH   8  17
ENDBRANCH   7   8
ENDBRANCH   1   7
BRANCH   4  20
ATOM     20  C   UNL     1      48.450   8.880  13.445  0.00  0.00    +0.000 C 
BRANCH  20  21
ATOM     21  N   UNL     1      47.585   7.820  12.997  0.00  0.00    +0.000 N 
ATOM     22  C   UNL     1      46.231   7.989  12.919  0.00  0.00    +0.000 C 
ATOM     23  O   UNL     1      45.688   9.054  13.202  0.00  0.00    +0.000 OA
ATOM     24  H   UNL     1      47.985   6.887  12.960  0.00  0.00    +0.000 HD
BRANCH  22  25
ATOM     25  C   UNL     1      45.457   6.844  12.421  0.00  0.00    +0.000 A 
ATOM     26  C   UNL     1      44.351   7.065  11.613  0.00  0.00    +0.000 A 
ATOM     27  S   UNL     1      43.603   5.632  11.070  0.00  0.00    +0.000 S 
ATOM     28  C   UNL     1      44.700   4.665  11.940  0.00  0.00    +0.000 A 
ATOM     29  N   UNL     1      44.603   3.308  11.918  0.00  0.00    +0.000 NA
ATOM     30  C   UNL     1      45.486   2.699  12.638  0.00  0.00    +0.000 A 
ATOM     31  N   UNL     1      46.455   3.326  13.379  0.00  0.00    +0.000 N 
ATOM     32  C   UNL     1      46.605   4.691  13.413  0.00  0.00    +0.000 A 
ATOM     33  O   UNL     1      47.507   5.214  14.060  0.00  0.00    +0.000 OA
ATOM     34  C   UNL     1      45.634   5.427  12.624  0.00  0.00    +0.000 A 
ATOM     35  H   UNL     1      47.119   2.790  13.919  0.00  0.00    +0.000 HD
ENDBRANCH  22  25
ENDBRANCH  20  21
ENDBRANCH   4  20
TORSDOF 7
ENDMDL
