MODEL 1
REMARK VINA RESULT:    -7.912      0.000      0.000
REMARK INTER + INTRA:         -13.903
REMARK INTER:                 -12.538
REMARK INTRA:                  -1.365
REMARK UNBOUND:                -1.365
REMARK  Name = 
REMARK  12 active torsions:
REMARK  status: ('A' for Active; 'I' for Inactive)
REMARK    1  A    between atoms: C_1  and  C_2
REMARK    2  A    between atoms: C_2  and  O_3
REMARK    3  A    between atoms: O_3  and  C_4
REMARK    4  A    between atoms: C_6  and  C_7
REMARK    5  A    between atoms: C_7  and  C_8
REMARK    6  A    between atoms: C_8  and  N_9
REMARK    7  A    between atoms: C_13  and  C_14
REMARK    8  A    between atoms: C_20  and  O_21
REMARK    9  A    between atoms: O_21  and  C_22
REMARK   10  A    between atoms: C_22  and  C_23
REMARK   11  A    between atoms: C_24  and  N_25
REMARK   12  A    between atoms: N_25  and  C_26
REMARK                            x       y       z     vdW  Elec       q    Type
REMARK                         _______ _______ _______ _____ _____    ______ ____
ROOT
ATOM      1  C   UNL     1      46.769   5.270  13.820  0.00  0.00    +0.000 A 
ATOM      2  C   UNL     1      45.581   4.682  13.360  0.00  0.00    +0.000 A 
ATOM      3  C   UNL     1      44.546   5.431  12.781  0.00  0.00    +0.000 A 
ATOM      4  C   UNL     1      44.755   6.798  12.595  0.00  0.00    +0.000 A 
ATOM      5  C   UNL     1      45.951   7.400  13.016  0.00  0.00    +0.000 A 
ATOM      6  C   UNL     1      47.002   6.635  13.587  0.00  0.00    +0.000 A 
ENDROOT
BRANCH   6   7
ATOM      7  N   UNL     1      48.174   7.326  13.995  0.00  0.00    +0.000 N 
ATOM      8  H   UNL     1      47.922   8.109  14.595  0.00  0.00    +0.000 HD
BRANCH   7   9
ATOM      9  C   UNL     1      49.437   7.425  13.341  0.00  0.00    +0.000 C 
ATOM     10  C   UNL     1      49.945   8.885  13.293  0.00  0.00    +0.000 C 
ATOM     11  C   UNL     1      50.208   8.715  11.791  0.00  0.00    +0.000 C 
ATOM     12  C   UNL     1      49.275   7.494  11.804  0.00  0.00    +0.000 C 
ENDBRANCH   7   9
ENDBRANCH   6   7
BRANCH   1  13
ATOM     13  O   UNL     1      47.731   4.526  14.462  0.00  0.00    +0.000 OA
BRANCH  13  15
ATOM     14  C   UNL     1      48.160   4.948  16.788  0.00  0.00    +0.000 C 
ATOM     15  C   UNL     1      47.403   4.097  15.787  0.00  0.00    +0.000 C 
ENDBRANCH  13  15
ENDBRANCH   1  13
BRANCH   3  16
ATOM     16  C   UNL     1      43.197   4.829  12.414  0.00  0.00    +0.000 C 
BRANCH  16  17
ATOM     17  C   UNL     1      43.190   4.139  11.049  0.00  0.00    +0.000 C 
BRANCH  17  18
ATOM     18  N   UNL     1      43.910   4.875  10.010  0.00  0.00    +0.000 N 
ATOM     19  C   UNL     1      44.734   3.995   9.265  0.00  0.00    +0.000 A 
ATOM     20  C   UNL     1      45.525   4.512   8.245  0.00  0.00    +0.000 A 
ATOM     21  C   UNL     1      46.355   3.650   7.522  0.00  0.00    +0.000 A 
ATOM     22  C   UNL     1      46.376   2.286   7.825  0.00  0.00    +0.000 A 
ATOM     23  C   UNL     1      45.536   1.854   8.831  0.00  0.00    +0.000 A 
ATOM     24  N   UNL     1      44.724   2.672   9.541  0.00  0.00    +0.000 NA
ATOM     25  H   UNL     1      44.494   5.616  10.390  0.00  0.00    +0.000 HD
BRANCH  22  26
ATOM     26  C   UNL     1      47.282   1.381   7.078  0.00  0.00    +0.000 C 
ATOM     27  N   UNL     1      48.420   1.892   6.518  0.00  0.00    +0.000 N 
ATOM     28  O   UNL     1      47.017   0.193   6.947  0.00  0.00    +0.000 OA
ATOM     29  H   UNL     1      48.712   2.857   6.527  0.00  0.00    +0.000 HD
ATOM     30  H   UNL     1      48.991   1.242   5.992  0.00  0.00    +0.000 HD
ENDBRANCH  22  26
ENDBRANCH  17  18
ENDBRANCH  16  17
ENDBRANCH   3  16
BRANCH   5  31
ATOM     31  O   UNL     1      46.160   8.761  12.938  0.00  0.00    +0.000 OA
BRANCH  31  32
ATOM     32  C   UNL     1      45.164   9.526  12.247  0.00  0.00    +0.000 C 
ATOM     33  C   UNL     1      45.710  10.769  11.554  0.00  0.00    +0.000 C 
ENDBRANCH  31  32
ENDBRANCH   5  31
TORSDOF 10
ENDMDL
MODEL 2
REMARK VINA RESULT:    -7.540      1.330      3.582
REMARK INTER + INTRA:         -13.313
REMARK INTER:                 -11.633
REMARK INTRA:                  -1.679
REMARK UNBOUND:                -1.365
REMARK  Name = 
REMARK  12 active torsions:
REMARK  status: ('A' for Active; 'I' for Inactive)
REMARK    1  A    between atoms: C_1  and  C_2
REMARK    2  A    between atoms: C_2  and  O_3
REMARK    3  A    between atoms: O_3  and  C_4
REMARK    4  A    between atoms: C_6  and  C_7
REMARK    5  A    between atoms: C_7  and  C_8
REMARK    6  A    between atoms: C_8  and  N_9
REMARK    7  A    between atoms: C_13  and  C_14
REMARK    8  A    between atoms: C_20  and  O_21
REMARK    9  A    between atoms: O_21  and  C_22
REMARK   10  A    between atoms: C_22  and  C_23
REMARK   11  A    between atoms: C_24  and  N_25
REMARK   12  A    between atoms: N_25  and  C_26
REMARK                            x       y       z     vdW  Elec       q    Type
REMARK                         _______ _______ _______ _____ _____    ______ ____
ROOT
ATOM      1  C   UNL     1      46.959   7.251  12.370  0.00  0.00    +0.000 A 
ATOM      2  C   UNL     1      45.600   7.032  12.098  0.00  0.00    +0.000 A 
ATOM      3  C   UNL     1      44.906   5.913  12.581  0.00  0.00    +0.000 A 
ATOM      4  C   UNL     1      45.590   5.036  13.423  0.00  0.00    +0.000 A 
ATOM      5  C   UNL     1      46.940   5.255  13.737  0.00  0.00    +0.000 A 
ATOM      6  C   UNL     1      47.633   6.397  13.258  0.00  0.00    +0.000 A 
ENDROOT
BRANCH   6   7
ATOM      7  N   UNL     1      49.001   6.536  13.615  0.00  0.00    +0.000 N 
ATOM      8  H   UNL     1      49.519   5.708  13.325  0.00  0.00    +0.000 HD
BRANCH   7   9
ATOM      9  C   UNL     1      49.587   7.298  14.667  0.00  0.00    +0.000 C 
ATOM     10  C   UNL     1      48.558   8.238  15.337  0.00  0.00    +0.000 C 
ATOM     11  C   UNL     1      49.554   9.395  15.178  0.00  0.00    +0.000 C 
ATOM     12  C   UNL     1      50.299   8.561  14.125  0.00  0.00    +0.000 C 
ENDBRANCH   7   9
ENDBRANCH   6   7
BRANCH   1  13
ATOM     13  O   UNL     1      47.638   8.309  11.813  0.00  0.00    +0.000 OA
BRANCH  13  15
ATOM     14  C   UNL     1      48.189  10.647  11.784  0.00  0.00    +0.000 C 
ATOM     15  C   UNL     1      47.147   9.610  12.154  0.00  0.00    +0.000 C 
ENDBRANCH  13  15
ENDBRANCH   1  13
BRANCH   3  16
ATOM     16  C   UNL     1      43.476   5.590  12.173  0.00  0.00    +0.000 C 
BRANCH  16  17
ATOM     17  C   UNL     1      43.359   5.037  10.752  0.00  0.00    +0.000 C 
BRANCH  17  18
ATOM     18  N   UNL     1      43.598   3.596  10.656  0.00  0.00    +0.000 N 
ATOM     19  C   UNL     1      44.559   3.323   9.652  0.00  0.00    +0.000 A 
ATOM     20  C   UNL     1      44.902   2.002   9.386  0.00  0.00    +0.000 A 
ATOM     21  C   UNL     1      45.835   1.728   8.382  0.00  0.00    +0.000 A 
ATOM     22  C   UNL     1      46.414   2.776   7.665  0.00  0.00    +0.000 A 
ATOM     23  C   UNL     1      46.041   4.058   8.015  0.00  0.00    +0.000 A 
ATOM     24  N   UNL     1      45.141   4.344   8.984  0.00  0.00    +0.000 NA
ATOM     25  H   UNL     1      42.752   3.075  10.439  0.00  0.00    +0.000 HD
BRANCH  22  26
ATOM     26  C   UNL     1      47.378   2.479   6.578  0.00  0.00    +0.000 C 
ATOM     27  N   UNL     1      47.269   3.148   5.390  0.00  0.00    +0.000 N 
ATOM     28  O   UNL     1      48.256   1.640   6.727  0.00  0.00    +0.000 OA
ATOM     29  H   UNL     1      46.563   3.824   5.145  0.00  0.00    +0.000 HD
ATOM     30  H   UNL     1      47.931   2.890   4.668  0.00  0.00    +0.000 HD
ENDBRANCH  22  26
ENDBRANCH  17  18
ENDBRANCH  16  17
ENDBRANCH   3  16
BRANCH   5  31
ATOM     31  O   UNL     1      47.677   4.363  14.487  0.00  0.00    +0.000 OA
BRANCH  31  32
ATOM     32  C   UNL     1      47.343   4.260  15.878  0.00  0.00    +0.000 C 
ATOM     33  C   UNL     1      48.006   3.086  16.587  0.00  0.00    +0.000 C 
ENDBRANCH  31  32
ENDBRANCH   5  31
TORSDOF 10
ENDMDL
MODEL 3
REMARK VINA RESULT:    -7.534      1.505      1.981
REMARK INTER + INTRA:         -13.303
REMARK INTER:                 -11.669
REMARK INTRA:                  -1.633
REMARK UNBOUND:                -1.365
REMARK  Name = 
REMARK  12 active torsions:
REMARK  status: ('A' for Active; 'I' for Inactive)
REMARK    1  A    between atoms: C_1  and  C_2
REMARK    2  A    between atoms: C_2  and  O_3
REMARK    3  A    between atoms: O_3  and  C_4
REMARK    4  A    between atoms: C_6  and  C_7
REMARK    5  A    between atoms: C_7  and  C_8
REMARK    6  A    between atoms: C_8  and  N_9
REMARK    7  A    between atoms: C_13  and  C_14
REMARK    8  A    between atoms: C_20  and  O_21
REMARK    9  A    between atoms: O_21  and  C_22
REMARK   10  A    between atoms: C_22  and  C_23
REMARK   11  A    between atoms: C_24  and  N_25
REMARK   12  A    between atoms: N_25  and  C_26
REMARK                            x       y       z     vdW  Elec       q    Type
REMARK                         _______ _______ _______ _____ _____    ______ ____
ROOT
ATOM      1  C   UNL     1      47.176   5.228  13.746  0.00  0.00    +0.000 A 
ATOM      2  C   UNL     1      45.863   4.937  13.345  0.00  0.00    +0.000 A 
ATOM      3  C   UNL     1      45.155   5.745  12.442  0.00  0.00    +0.000 A 
ATOM      4  C   UNL     1      45.825   6.829  11.875  0.00  0.00    +0.000 A 
ATOM      5  C   UNL     1      47.150   7.117  12.235  0.00  0.00    +0.000 A 
ATOM      6  C   UNL     1      47.867   6.288  13.137  0.00  0.00    +0.000 A 
ENDROOT
BRANCH   6   7
ATOM      7  N   UNL     1      49.201   6.659  13.456  0.00  0.00    +0.000 N 
ATOM      8  H   UNL     1      49.843   5.928  13.154  0.00  0.00    +0.000 HD
BRANCH   7   9
ATOM      9  C   UNL     1      49.676   7.516  14.491  0.00  0.00    +0.000 C 
ATOM     10  C   UNL     1      50.157   6.716  15.724  0.00  0.00    +0.000 C 
ATOM     11  C   UNL     1      49.302   7.628  16.614  0.00  0.00    +0.000 C 
ATOM     12  C   UNL     1      48.515   8.049  15.364  0.00  0.00    +0.000 C 
ENDBRANCH   7   9
ENDBRANCH   6   7
BRANCH   1  13
ATOM     13  O   UNL     1      47.816   4.470  14.698  0.00  0.00    +0.000 OA
BRANCH  13  15
ATOM     14  C   UNL     1      47.768   3.259  16.772  0.00  0.00    +0.000 C 
ATOM     15  C   UNL     1      47.171   4.400  15.974  0.00  0.00    +0.000 C 
ENDBRANCH  13  15
ENDBRANCH   1  13
BRANCH   3  16
ATOM     16  C   UNL     1      43.686   5.522  12.114  0.00  0.00    +0.000 C 
BRANCH  16  17
ATOM     17  C   UNL     1      43.454   4.956  10.712  0.00  0.00    +0.000 C 
BRANCH  17  18
ATOM     18  N   UNL     1      43.696   3.517  10.607  0.00  0.00    +0.000 N 
ATOM     19  C   UNL     1      44.659   3.251   9.602  0.00  0.00    +0.000 A 
ATOM     20  C   UNL     1      45.005   1.933   9.329  0.00  0.00    +0.000 A 
ATOM     21  C   UNL     1      45.939   1.667   8.323  0.00  0.00    +0.000 A 
ATOM     22  C   UNL     1      46.516   2.722   7.613  0.00  0.00    +0.000 A 
ATOM     23  C   UNL     1      46.140   4.000   7.970  0.00  0.00    +0.000 A 
ATOM     24  N   UNL     1      45.239   4.278   8.941  0.00  0.00    +0.000 NA
ATOM     25  H   UNL     1      42.852   2.994  10.387  0.00  0.00    +0.000 HD
BRANCH  22  26
ATOM     26  C   UNL     1      47.481   2.434   6.525  0.00  0.00    +0.000 C 
ATOM     27  N   UNL     1      47.374   3.112   5.342  0.00  0.00    +0.000 N 
ATOM     28  O   UNL     1      48.359   1.593   6.669  0.00  0.00    +0.000 OA
ATOM     29  H   UNL     1      46.668   3.789   5.101  0.00  0.00    +0.000 HD
ATOM     30  H   UNL     1      48.036   2.859   4.619  0.00  0.00    +0.000 HD
ENDBRANCH  22  26
ENDBRANCH  17  18
ENDBRANCH  16  17
ENDBRANCH   3  16
BRANCH   5  31
ATOM     31  O   UNL     1      47.816   8.232  11.771  0.00  0.00    +0.000 OA
BRANCH  31  32
ATOM     32  C   UNL     1      47.293   9.506  12.169  0.00  0.00    +0.000 C 
ATOM     33  C   UNL     1      48.341  10.610  12.235  0.00  0.00    +0.000 C 
ENDBRANCH  31  32
ENDBRANCH   5  31
TORSDOF 10
ENDMDL
MODEL 4
REMARK VINA RESULT:    -6.348      1.917      4.085
REMARK INTER + INTRA:         -11.423
REMARK INTER:                 -10.406
REMARK INTRA:                  -1.017
REMARK UNBOUND:                -1.365
REMARK  Name = 
REMARK  12 active torsions:
REMARK  status: ('A' for Active; 'I' for Inactive)
REMARK    1  A    between atoms: C_1  and  C_2
REMARK    2  A    between atoms: C_2  and  O_3
REMARK    3  A    between atoms: O_3  and  C_4
REMARK    4  A    between atoms: C_6  and  C_7
REMARK    5  A    between atoms: C_7  and  C_8
REMARK    6  A    between atoms: C_8  and  N_9
REMARK    7  A    between atoms: C_13  and  C_14
REMARK    8  A    between atoms: C_20  and  O_21
REMARK    9  A    between atoms: O_21  and  C_22
REMARK   10  A    between atoms: C_22  and  C_23
REMARK   11  A    between atoms: C_24  and  N_25
REMARK   12  A    between atoms: N_25  and  C_26
REMARK                            x       y       z     vdW  Elec       q    Type
REMARK                         _______ _______ _______ _____ _____    ______ ____
ROOT
ATOM      1  C   UNL     1      45.057   9.204  11.609  0.00  0.00    +0.000 A 
ATOM      2  C   UNL     1      44.185   8.109  11.516  0.00  0.00    +0.000 A 
ATOM      3  C   UNL     1      44.485   6.859  12.076  0.00  0.00    +0.000 A 
ATOM      4  C   UNL     1      45.664   6.740  12.813  0.00  0.00    +0.000 A 
ATOM      5  C   UNL     1      46.533   7.833  12.948  0.00  0.00    +0.000 A 
ATOM      6  C   UNL     1      46.218   9.101  12.393  0.00  0.00    +0.000 A 
ENDROOT
BRANCH   6   7
ATOM      7  N   UNL     1      47.159  10.150  12.568  0.00  0.00    +0.000 N 
ATOM      8  H   UNL     1      46.719  10.933  13.048  0.00  0.00    +0.000 HD
BRANCH   7   9
ATOM      9  C   UNL     1      48.311  10.467  11.790  0.00  0.00    +0.000 C 
ATOM     10  C   UNL     1      49.217  11.500  12.500  0.00  0.00    +0.000 C 
ATOM     11  C   UNL     1      49.243  12.325  11.207  0.00  0.00    +0.000 C 
ATOM     12  C   UNL     1      48.000  11.556  10.734  0.00  0.00    +0.000 C 
ENDBRANCH   7   9
ENDBRANCH   6   7
BRANCH   1  13
ATOM     13  O   UNL     1      44.780  10.394  10.978  0.00  0.00    +0.000 OA
BRANCH  13  15
ATOM     14  C   UNL     1      44.136  11.453   8.920  0.00  0.00    +0.000 C 
ATOM     15  C   UNL     1      43.859  10.317   9.884  0.00  0.00    +0.000 C 
ENDBRANCH  13  15
ENDBRANCH   1  13
BRANCH   3  16
ATOM     16  C   UNL     1      43.618   5.628  11.857  0.00  0.00    +0.000 C 
BRANCH  16  17
ATOM     17  C   UNL     1      43.702   5.069  10.436  0.00  0.00    +0.000 C 
BRANCH  17  18
ATOM     18  N   UNL     1      43.908   3.622  10.379  0.00  0.00    +0.000 N 
ATOM     19  C   UNL     1      44.855   3.298   9.377  0.00  0.00    +0.000 A 
ATOM     20  C   UNL     1      45.166   1.963   9.147  0.00  0.00    +0.000 A 
ATOM     21  C   UNL     1      46.085   1.639   8.144  0.00  0.00    +0.000 A 
ATOM     22  C   UNL     1      46.682   2.654   7.393  0.00  0.00    +0.000 A 
ATOM     23  C   UNL     1      46.341   3.953   7.709  0.00  0.00    +0.000 A 
ATOM     24  N   UNL     1      45.455   4.287   8.676  0.00  0.00    +0.000 NA
ATOM     25  H   UNL     1      43.049   3.113  10.183  0.00  0.00    +0.000 HD
BRANCH  22  26
ATOM     26  C   UNL     1      47.631   2.304   6.309  0.00  0.00    +0.000 C 
ATOM     27  N   UNL     1      47.725   3.122   5.216  0.00  0.00    +0.000 N 
ATOM     28  O   UNL     1      48.318   1.293   6.375  0.00  0.00    +0.000 OA
ATOM     29  H   UNL     1      47.180   3.951   5.039  0.00  0.00    +0.000 HD
ATOM     30  H   UNL     1      48.364   2.826   4.489  0.00  0.00    +0.000 HD
ENDBRANCH  22  26
ENDBRANCH  17  18
ENDBRANCH  16  17
ENDBRANCH   3  16
BRANCH   5  31
ATOM     31  O   UNL     1      47.751   7.732  13.587  0.00  0.00    +0.000 OA
BRANCH  31  32
ATOM     32  C   UNL     1      48.064   6.466  14.182  0.00  0.00    +0.000 C 
ATOM     33  C   UNL     1      48.780   6.573  15.523  0.00  0.00    +0.000 C 
ENDBRANCH  31  32
ENDBRANCH   5  31
TORSDOF 10
ENDMDL
MODEL 5
REMARK VINA RESULT:    -6.333      1.880      2.464
REMARK INTER + INTRA:         -11.401
REMARK INTER:                 -10.483
REMARK INTRA:                  -0.918
REMARK UNBOUND:                -1.365
REMARK  Name = 
REMARK  12 active torsions:
REMARK  status: ('A' for Active; 'I' for Inactive)
REMARK    1  A    between atoms: C_1  and  C_2
REMARK    2  A    between atoms: C_2  and  O_3
REMARK    3  A    between atoms: O_3  and  C_4
REMARK    4  A    between atoms: C_6  and  C_7
REMARK    5  A    between atoms: C_7  and  C_8
REMARK    6  A    between atoms: C_8  and  N_9
REMARK    7  A    between atoms: C_13  and  C_14
REMARK    8  A    between atoms: C_20  and  O_21
REMARK    9  A    between atoms: O_21  and  C_22
REMARK   10  A    between atoms: C_22  and  C_23
REMARK   11  A    between atoms: C_24  and  N_25
REMARK   12  A    between atoms: N_25  and  C_26
REMARK                            x       y       z     vdW  Elec       q    Type
REMARK                         _______ _______ _______ _____ _____    ______ ____
ROOT
ATOM      1  C   UNL     1      46.782   8.010  13.240  0.00  0.00    +0.000 A 
ATOM      2  C   UNL     1      46.048   6.838  13.005  0.00  0.00    +0.000 A 
ATOM      3  C   UNL     1      44.845   6.835  12.283  0.00  0.00    +0.000 A 
ATOM      4  C   UNL     1      44.419   8.039  11.722  0.00  0.00    +0.000 A 
ATOM      5  C   UNL     1      45.157   9.216  11.916  0.00  0.00    +0.000 A 
ATOM      6  C   UNL     1      46.382   9.211  12.634  0.00  0.00    +0.000 A 
ENDROOT
BRANCH   6   7
ATOM      7  N   UNL     1      47.059  10.450  12.792  0.00  0.00    +0.000 N 
ATOM      8  H   UNL     1      46.389  11.216  12.767  0.00  0.00    +0.000 HD
BRANCH   7   9
ATOM      9  C   UNL     1      48.405  10.791  12.465  0.00  0.00    +0.000 C 
ATOM     10  C   UNL     1      48.475  12.029  11.543  0.00  0.00    +0.000 C 
ATOM     11  C   UNL     1      49.411  11.248  10.612  0.00  0.00    +0.000 C 
ATOM     12  C   UNL     1      48.930   9.950  11.277  0.00  0.00    +0.000 C 
ENDBRANCH   7   9
ENDBRANCH   6   7
BRANCH   1  13
ATOM     13  O   UNL     1      47.912   7.999  14.024  0.00  0.00    +0.000 OA
BRANCH  13  15
ATOM     14  C   UNL     1      49.459   6.912  15.506  0.00  0.00    +0.000 C 
ATOM     15  C   UNL     1      48.259   6.735  14.597  0.00  0.00    +0.000 C 
ENDBRANCH  13  15
ENDBRANCH   1  13
BRANCH   3  16
ATOM     16  C   UNL     1      43.968   5.599  12.148  0.00  0.00    +0.000 C 
BRANCH  16  17
ATOM     17  C   UNL     1      43.801   5.126  10.703  0.00  0.00    +0.000 C 
BRANCH  17  18
ATOM     18  N   UNL     1      43.909   3.677  10.537  0.00  0.00    +0.000 N 
ATOM     19  C   UNL     1      44.825   3.365   9.503  0.00  0.00    +0.000 A 
ATOM     20  C   UNL     1      45.044   2.033   9.172  0.00  0.00    +0.000 A 
ATOM     21  C   UNL     1      45.932   1.724   8.137  0.00  0.00    +0.000 A 
ATOM     22  C   UNL     1      46.590   2.750   7.455  0.00  0.00    +0.000 A 
ATOM     23  C   UNL     1      46.339   4.042   7.869  0.00  0.00    +0.000 A 
ATOM     24  N   UNL     1      45.485   4.361   8.869  0.00  0.00    +0.000 NA
ATOM     25  H   UNL     1      43.016   3.242  10.316  0.00  0.00    +0.000 HD
BRANCH  22  26
ATOM     26  C   UNL     1      47.506   2.419   6.337  0.00  0.00    +0.000 C 
ATOM     27  N   UNL     1      47.348   3.056   5.136  0.00  0.00    +0.000 N 
ATOM     28  O   UNL     1      48.386   1.579   6.471  0.00  0.00    +0.000 OA
ATOM     29  H   UNL     1      46.635   3.728   4.903  0.00  0.00    +0.000 HD
ATOM     30  H   UNL     1      47.977   2.775   4.394  0.00  0.00    +0.000 HD
ENDBRANCH  22  26
ENDBRANCH  17  18
ENDBRANCH  16  17
ENDBRANCH   3  16
BRANCH   5  31
ATOM     31  O   UNL     1      44.723  10.444  11.460  0.00  0.00    +0.000 OA
BRANCH  31  32
ATOM     32  C   UNL     1      43.462  10.468  10.777  0.00  0.00    +0.000 C 
ATOM     33  C   UNL     1      42.460  11.453  11.366  0.00  0.00    +0.000 C 
ENDBRANCH  31  32
ENDBRANCH   5  31
TORSDOF 10
ENDMDL
MODEL 6
REMARK VINA RESULT:    -5.957      3.114      8.479
REMARK INTER + INTRA:         -10.804
REMARK INTER:                  -9.311
REMARK INTRA:                  -1.494
REMARK UNBOUND:                -1.365
REMARK  Name = 
REMARK  12 active torsions:
REMARK  status: ('A' for Active; 'I' for Inactive)
REMARK    1  A    between atoms: C_1  and  C_2
REMARK    2  A    between atoms: C_2  and  O_3
REMARK    3  A    between atoms: O_3  and  C_4
REMARK    4  A    between atoms: C_6  and  C_7
REMARK    5  A    between atoms: C_7  and  C_8
REMARK    6  A    between atoms: C_8  and  N_9
REMARK    7  A    between atoms: C_13  and  C_14
REMARK    8  A    between atoms: C_20  and  O_21
REMARK    9  A    between atoms: O_21  and  C_22
REMARK   10  A    between atoms: C_22  and  C_23
REMARK   11  A    between atoms: C_24  and  N_25
REMARK   12  A    between atoms: N_25  and  C_26
REMARK                            x       y       z     vdW  Elec       q    Type
REMARK                         _______ _______ _______ _____ _____    ______ ____
ROOT
ATOM      1  C   UNL     1      45.957   6.991  12.334  0.00  0.00    +0.000 A 
ATOM      2  C   UNL     1      47.256   7.520  12.294  0.00  0.00    +0.000 A 
ATOM      3  C   UNL     1      48.311   6.982  13.046  0.00  0.00    +0.000 A 
ATOM      4  C   UNL     1      48.057   5.834  13.797  0.00  0.00    +0.000 A 
ATOM      5  C   UNL     1      46.773   5.269  13.824  0.00  0.00    +0.000 A 
ATOM      6  C   UNL     1      45.713   5.807  13.048  0.00  0.00    +0.000 A 
ENDROOT
BRANCH   6   7
ATOM      7  N   UNL     1      44.442   5.180  13.142  0.00  0.00    +0.000 N 
ATOM      8  H   UNL     1      44.100   5.234  14.100  0.00  0.00    +0.000 HD
BRANCH   7   9
ATOM      9  C   UNL     1      43.890   4.136  12.344  0.00  0.00    +0.000 C 
ATOM     10  C   UNL     1      44.952   3.496  11.420  0.00  0.00    +0.000 C 
ATOM     11  C   UNL     1      43.987   3.667  10.239  0.00  0.00    +0.000 C 
ATOM     12  C   UNL     1      43.207   4.695  11.073  0.00  0.00    +0.000 C 
ENDBRANCH   7   9
ENDBRANCH   6   7
BRANCH   1  13
ATOM     13  O   UNL     1      44.922   7.589  11.654  0.00  0.00    +0.000 OA
BRANCH  13  15
ATOM     14  C   UNL     1      43.778   9.527  10.813  0.00  0.00    +0.000 C 
ATOM     15  C   UNL     1      44.869   9.017  11.733  0.00  0.00    +0.000 C 
ENDBRANCH  13  15
ENDBRANCH   1  13
BRANCH   3  16
ATOM     16  C   UNL     1      49.684   7.634  13.124  0.00  0.00    +0.000 C 
BRANCH  16  17
ATOM     17  C   UNL     1      50.088   8.036  14.543  0.00  0.00    +0.000 C 
BRANCH  17  18
ATOM     18  N   UNL     1      50.938   7.055  15.217  0.00  0.00    +0.000 N 
ATOM     19  C   UNL     1      50.318   6.600  16.407  0.00  0.00    +0.000 A 
ATOM     20  C   UNL     1      50.985   5.681  17.209  0.00  0.00    +0.000 A 
ATOM     21  C   UNL     1      50.384   5.246  18.393  0.00  0.00    +0.000 A 
ATOM     22  C   UNL     1      49.125   5.731  18.754  0.00  0.00    +0.000 A 
ATOM     23  C   UNL     1      48.520   6.615  17.885  0.00  0.00    +0.000 A 
ATOM     24  N   UNL     1      49.084   7.047  16.733  0.00  0.00    +0.000 NA
ATOM     25  H   UNL     1      51.852   7.431  15.457  0.00  0.00    +0.000 HD
BRANCH  22  26
ATOM     26  C   UNL     1      48.506   5.292  20.028  0.00  0.00    +0.000 C 
ATOM     27  N   UNL     1      48.614   3.981  20.404  0.00  0.00    +0.000 N 
ATOM     28  O   UNL     1      47.893   6.081  20.735  0.00  0.00    +0.000 OA
ATOM     29  H   UNL     1      49.055   3.242  19.881  0.00  0.00    +0.000 HD
ATOM     30  H   UNL     1      48.149   3.723  21.266  0.00  0.00    +0.000 HD
ENDBRANCH  22  26
ENDBRANCH  17  18
ENDBRANCH  16  17
ENDBRANCH   3  16
BRANCH   5  31
ATOM     31  O   UNL     1      46.457   4.193  14.626  0.00  0.00    +0.000 OA
BRANCH  31  32
ATOM     32  C   UNL     1      47.005   4.194  15.951  0.00  0.00    +0.000 C 
ATOM     33  C   UNL     1      47.998   3.067  16.210  0.00  0.00    +0.000 C 
ENDBRANCH  31  32
ENDBRANCH   5  31
TORSDOF 10
ENDMDL
MODEL 7
REMARK VINA RESULT:    -5.905      3.095      7.612
REMARK INTER + INTRA:         -10.721
REMARK INTER:                  -9.422
REMARK INTRA:                  -1.300
REMARK UNBOUND:                -1.365
REMARK  Name = 
REMARK  12 active torsions:
REMARK  status: ('A' for Active; 'I' for Inactive)
REMARK    1  A    between atoms: C_1  and  C_2
REMARK    2  A    between atoms: C_2  and  O_3
REMARK    3  A    between atoms: O_3  and  C_4
REMARK    4  A    between atoms: C_6  and  C_7
REMARK    5  A    between atoms: C_7  and  C_8
REMARK    6  A    between atoms: C_8  and  N_9
REMARK    7  A    between atoms: C_13  and  C_14
REMARK    8  A    between atoms: C_20  and  O_21
REMARK    9  A    between atoms: O_21  and  C_22
REMARK   10  A    between atoms: C_22  and  C_23
REMARK   11  A    between atoms: C_24  and  N_25
REMARK   12  A    between atoms: N_25  and  C_26
REMARK                            x       y       z     vdW  Elec       q    Type
REMARK                         _______ _______ _______ _____ _____    ______ ____
ROOT
ATOM      1  C   UNL     1      46.266   5.469  13.376  0.00  0.00    +0.000 A 
ATOM      2  C   UNL     1      47.552   6.030  13.393  0.00  0.00    +0.000 A 
ATOM      3  C   UNL     1      47.855   7.238  12.746  0.00  0.00    +0.000 A 
ATOM      4  C   UNL     1      46.809   7.929  12.134  0.00  0.00    +0.000 A 
ATOM      5  C   UNL     1      45.509   7.402  12.136  0.00  0.00    +0.000 A 
ATOM      6  C   UNL     1      45.205   6.188  12.805  0.00  0.00    +0.000 A 
ENDROOT
BRANCH   6   7
ATOM      7  N   UNL     1      43.864   5.721  12.747  0.00  0.00    +0.000 N 
ATOM      8  H   UNL     1      43.464   5.703  13.684  0.00  0.00    +0.000 HD
BRANCH   7   9
ATOM      9  C   UNL     1      43.249   4.859  11.793  0.00  0.00    +0.000 C 
ATOM     10  C   UNL     1      43.352   3.374  12.209  0.00  0.00    +0.000 C 
ATOM     11  C   UNL     1      43.880   3.045  10.807  0.00  0.00    +0.000 C 
ATOM     12  C   UNL     1      44.207   4.535  10.621  0.00  0.00    +0.000 C 
ENDBRANCH   7   9
ENDBRANCH   6   7
BRANCH   1  13
ATOM     13  O   UNL     1      46.016   4.241  13.944  0.00  0.00    +0.000 OA
BRANCH  13  15
ATOM     14  C   UNL     1      47.029   3.985  16.107  0.00  0.00    +0.000 C 
ATOM     15  C   UNL     1      47.116   3.640  14.634  0.00  0.00    +0.000 C 
ENDBRANCH  13  15
ENDBRANCH   1  13
BRANCH   3  16
ATOM     16  C   UNL     1      49.272   7.780  12.634  0.00  0.00    +0.000 C 
BRANCH  16  17
ATOM     17  C   UNL     1      50.057   7.709  13.945  0.00  0.00    +0.000 C 
BRANCH  17  18
ATOM     18  N   UNL     1      49.358   8.301  15.086  0.00  0.00    +0.000 N 
ATOM     19  C   UNL     1      49.382   7.415  16.191  0.00  0.00    +0.000 A 
ATOM     20  C   UNL     1      48.742   7.785  17.369  0.00  0.00    +0.000 A 
ATOM     21  C   UNL     1      48.746   6.904  18.454  0.00  0.00    +0.000 A 
ATOM     22  C   UNL     1      49.395   5.671  18.347  0.00  0.00    +0.000 A 
ATOM     23  C   UNL     1      50.032   5.398  17.154  0.00  0.00    +0.000 A 
ATOM     24  N   UNL     1      50.040   6.238  16.093  0.00  0.00    +0.000 NA
ATOM     25  H   UNL     1      48.388   8.524  14.876  0.00  0.00    +0.000 HD
BRANCH  22  26
ATOM     26  C   UNL     1      49.368   4.726  19.489  0.00  0.00    +0.000 C 
ATOM     27  N   UNL     1      48.576   3.613  19.415  0.00  0.00    +0.000 N 
ATOM     28  O   UNL     1      50.033   4.935  20.495  0.00  0.00    +0.000 OA
ATOM     29  H   UNL     1      47.959   3.366  18.657  0.00  0.00    +0.000 HD
ATOM     30  H   UNL     1      48.568   3.014  20.231  0.00  0.00    +0.000 HD
ENDBRANCH  22  26
ENDBRANCH  17  18
ENDBRANCH  16  17
ENDBRANCH   3  16
BRANCH   5  31
ATOM     31  O   UNL     1      44.467   8.005  11.461  0.00  0.00    +0.000 OA
BRANCH  31  32
ATOM     32  C   UNL     1      44.519   9.433  11.340  0.00  0.00    +0.000 C 
ATOM     33  C   UNL     1      43.348  10.030  10.570  0.00  0.00    +0.000 C 
ENDBRANCH  31  32
ENDBRANCH   5  31
TORSDOF 10
ENDMDL
MODEL 8
REMARK VINA RESULT:    -5.768      3.464      6.071
REMARK INTER + INTRA:         -10.504
REMARK INTER:                  -9.137
REMARK INTRA:                  -1.367
REMARK UNBOUND:                -1.365
REMARK  Name = 
REMARK  12 active torsions:
REMARK  status: ('A' for Active; 'I' for Inactive)
REMARK    1  A    between atoms: C_1  and  C_2
REMARK    2  A    between atoms: C_2  and  O_3
REMARK    3  A    between atoms: O_3  and  C_4
REMARK    4  A    between atoms: C_6  and  C_7
REMARK    5  A    between atoms: C_7  and  C_8
REMARK    6  A    between atoms: C_8  and  N_9
REMARK    7  A    between atoms: C_13  and  C_14
REMARK    8  A    between atoms: C_20  and  O_21
REMARK    9  A    between atoms: O_21  and  C_22
REMARK   10  A    between atoms: C_22  and  C_23
REMARK   11  A    between atoms: C_24  and  N_25
REMARK   12  A    between atoms: N_25  and  C_26
REMARK                            x       y       z     vdW  Elec       q    Type
REMARK                         _______ _______ _______ _____ _____    ______ ____
ROOT
ATOM      1  C   UNL     1      48.847   6.178  16.568  0.00  0.00    +0.000 A 
ATOM      2  C   UNL     1      48.752   6.867  15.350  0.00  0.00    +0.000 A 
ATOM      3  C   UNL     1      48.578   8.258  15.283  0.00  0.00    +0.000 A 
ATOM      4  C   UNL     1      48.578   8.973  16.480  0.00  0.00    +0.000 A 
ATOM      5  C   UNL     1      48.707   8.307  17.708  0.00  0.00    +0.000 A 
ATOM      6  C   UNL     1      48.898   6.902  17.770  0.00  0.00    +0.000 A 
ENDROOT
BRANCH   6   7
ATOM      7  N   UNL     1      49.009   6.307  19.056  0.00  0.00    +0.000 N 
ATOM      8  H   UNL     1      49.967   5.999  19.212  0.00  0.00    +0.000 HD
BRANCH   7   9
ATOM      9  C   UNL     1      48.011   5.654  19.837  0.00  0.00    +0.000 C 
ATOM     10  C   UNL     1      47.556   6.524  21.031  0.00  0.00    +0.000 C 
ATOM     11  C   UNL     1      47.769   5.317  21.955  0.00  0.00    +0.000 C 
ATOM     12  C   UNL     1      48.641   4.681  20.862  0.00  0.00    +0.000 C 
ENDBRANCH   7   9
ENDBRANCH   6   7
BRANCH   1  13
ATOM     13  O   UNL     1      48.930   4.806  16.608  0.00  0.00    +0.000 OA
BRANCH  13  15
ATOM     14  C   UNL     1      47.411   3.120  17.395  0.00  0.00    +0.000 C 
ATOM     15  C   UNL     1      47.728   4.101  16.284  0.00  0.00    +0.000 C 
ENDBRANCH  13  15
ENDBRANCH   1  13
BRANCH   3  16
ATOM     16  C   UNL     1      48.327   8.995  13.975  0.00  0.00    +0.000 C 
BRANCH  16  17
ATOM     17  C   UNL     1      46.946   8.723  13.378  0.00  0.00    +0.000 C 
BRANCH  17  18
ATOM     18  N   UNL     1      46.984   8.140  12.037  0.00  0.00    +0.000 N 
ATOM     19  C   UNL     1      46.172   6.981  11.979  0.00  0.00    +0.000 A 
ATOM     20  C   UNL     1      46.100   6.264  10.790  0.00  0.00    +0.000 A 
ATOM     21  C   UNL     1      45.316   5.108  10.737  0.00  0.00    +0.000 A 
ATOM     22  C   UNL     1      44.612   4.691  11.869  0.00  0.00    +0.000 A 
ATOM     23  C   UNL     1      44.714   5.479  12.997  0.00  0.00    +0.000 A 
ATOM     24  N   UNL     1      45.467   6.602  13.069  0.00  0.00    +0.000 NA
ATOM     25  H   UNL     1      47.926   7.886  11.749  0.00  0.00    +0.000 HD
BRANCH  22  26
ATOM     26  C   UNL     1      43.808   3.447  11.818  0.00  0.00    +0.000 C 
ATOM     27  N   UNL     1      44.202   2.368  12.561  0.00  0.00    +0.000 N 
ATOM     28  O   UNL     1      42.811   3.370  11.113  0.00  0.00    +0.000 OA
ATOM     29  H   UNL     1      45.025   2.307  13.140  0.00  0.00    +0.000 HD
ATOM     30  H   UNL     1      43.639   1.532  12.471  0.00  0.00    +0.000 HD
ENDBRANCH  22  26
ENDBRANCH  17  18
ENDBRANCH  16  17
ENDBRANCH   3  16
BRANCH   5  31
ATOM     31  O   UNL     1      48.616   8.964  18.918  0.00  0.00    +0.000 OA
BRANCH  31  32
ATOM     32  C   UNL     1      47.417   9.713  19.155  0.00  0.00    +0.000 C 
ATOM     33  C   UNL     1      47.428  10.500  20.460  0.00  0.00    +0.000 C 
ENDBRANCH  31  32
ENDBRANCH   5  31
TORSDOF 10
ENDMDL
MODEL 9
REMARK VINA RESULT:    -5.678      2.754      8.139
REMARK INTER + INTRA:         -10.363
REMARK INTER:                  -9.062
REMARK INTRA:                  -1.300
REMARK UNBOUND:                -1.365
REMARK  Name = 
REMARK  12 active torsions:
REMARK  status: ('A' for Active; 'I' for Inactive)
REMARK    1  A    between atoms: C_1  and  C_2
REMARK    2  A    between atoms: C_2  and  O_3
REMARK    3  A    between atoms: O_3  and  C_4
REMARK    4  A    between atoms: C_6  and  C_7
REMARK    5  A    between atoms: C_7  and  C_8
REMARK    6  A    between atoms: C_8  and  N_9
REMARK    7  A    between atoms: C_13  and  C_14
REMARK    8  A    between atoms: C_20  and  O_21
REMARK    9  A    between atoms: O_21  and  C_22
REMARK   10  A    between atoms: C_22  and  C_23
REMARK   11  A    between atoms: C_24  and  N_25
REMARK   12  A    between atoms: N_25  and  C_26
REMARK                            x       y       z     vdW  Elec       q    Type
REMARK                         _______ _______ _______ _____ _____    ______ ____
ROOT
ATOM      1  C   UNL     1      46.918   4.677  13.721  0.00  0.00    +0.000 A 
ATOM      2  C   UNL     1      47.893   5.654  13.971  0.00  0.00    +0.000 A 
ATOM      3  C   UNL     1      48.140   6.714  13.086  0.00  0.00    +0.000 A 
ATOM      4  C   UNL     1      47.326   6.826  11.959  0.00  0.00    +0.000 A 
ATOM      5  C   UNL     1      46.322   5.879  11.708  0.00  0.00    +0.000 A 
ATOM      6  C   UNL     1      46.065   4.817  12.614  0.00  0.00    +0.000 A 
ENDROOT
BRANCH   6   7
ATOM      7  N   UNL     1      45.037   3.896  12.278  0.00  0.00    +0.000 N 
ATOM      8  H   UNL     1      45.334   3.319  11.493  0.00  0.00    +0.000 HD
BRANCH   7   9
ATOM      9  C   UNL     1      43.629   4.006  12.470  0.00  0.00    +0.000 C 
ATOM     10  C   UNL     1      42.901   4.413  11.168  0.00  0.00    +0.000 C 
ATOM     11  C   UNL     1      42.173   5.513  11.951  0.00  0.00    +0.000 C 
ATOM     12  C   UNL     1      43.241   5.388  13.048  0.00  0.00    +0.000 C 
ENDBRANCH   7   9
ENDBRANCH   6   7
BRANCH   1  13
ATOM     13  O   UNL     1      46.755   3.600  14.560  0.00  0.00    +0.000 OA
BRANCH  13  15
ATOM     14  C   UNL     1      46.972   3.829  16.942  0.00  0.00    +0.000 C 
ATOM     15  C   UNL     1      47.686   3.510  15.643  0.00  0.00    +0.000 C 
ENDBRANCH  13  15
ENDBRANCH   1  13
BRANCH   3  16
ATOM     16  C   UNL     1      49.290   7.694  13.273  0.00  0.00    +0.000 C 
BRANCH  16  17
ATOM     17  C   UNL     1      49.972   7.577  14.637  0.00  0.00    +0.000 C 
BRANCH  17  18
ATOM     18  N   UNL     1      49.220   8.193  15.731  0.00  0.00    +0.000 N 
ATOM     19  C   UNL     1      49.258   7.366  16.881  0.00  0.00    +0.000 A 
ATOM     20  C   UNL     1      48.574   7.766  18.023  0.00  0.00    +0.000 A 
ATOM     21  C   UNL     1      48.593   6.943  19.153  0.00  0.00    +0.000 A 
ATOM     22  C   UNL     1      49.300   5.738  19.125  0.00  0.00    +0.000 A 
ATOM     23  C   UNL     1      49.977   5.435  17.962  0.00  0.00    +0.000 A 
ATOM     24  N   UNL     1      49.972   6.219  16.859  0.00  0.00    +0.000 NA
ATOM     25  H   UNL     1      48.246   8.359  15.489  0.00  0.00    +0.000 HD
BRANCH  22  26
ATOM     26  C   UNL     1      49.290   4.853  20.314  0.00  0.00    +0.000 C 
ATOM     27  N   UNL     1      48.540   3.709  20.286  0.00  0.00    +0.000 N 
ATOM     28  O   UNL     1      49.930   5.138  21.317  0.00  0.00    +0.000 OA
ATOM     29  H   UNL     1      47.945   3.400  19.534  0.00  0.00    +0.000 HD
ATOM     30  H   UNL     1      48.541   3.152  21.132  0.00  0.00    +0.000 HD
ENDBRANCH  22  26
ENDBRANCH  17  18
ENDBRANCH  16  17
ENDBRANCH   3  16
BRANCH   5  31
ATOM     31  O   UNL     1      45.559   5.899  10.559  0.00  0.00    +0.000 OA
BRANCH  31  32
ATOM     32  C   UNL     1      46.208   5.491   9.348  0.00  0.00    +0.000 C 
ATOM     33  C   UNL     1      45.493   4.365   8.612  0.00  0.00    +0.000 C 
ENDBRANCH  31  32
ENDBRANCH   5  31
TORSDOF 10
ENDMDL
