MODEL 1
REMARK VINA RESULT:    -7.992      0.000      0.000
REMARK INTER + INTRA:         -10.220
REMARK INTER:                 -10.095
REMARK INTRA:                  -0.125
REMARK UNBOUND:                -0.125
REMARK  Name = 
REMARK  7 active torsions:
REMARK  status: ('A' for Active; 'I' for Inactive)
REMARK    1  A    between atoms: C_1  and  C_2
REMARK    2  A    between atoms: C_6  and  C_7
REMARK    3  A    between atoms: C_7  and  C_8
REMARK    4  A    between atoms: C_11  and  C_12
REMARK    5  A    between atoms: C_12  and  N_13
REMARK    6  A    between atoms: C_12  and  C_14
REMARK    7  A    between atoms: C_24  and  C_25
REMARK                            x       y       z     vdW  Elec       q    Type
REMARK                         _______ _______ _______ _____ _____    ______ ____
ROOT
ATOM      1  C   UNL     1      44.726   4.610   9.473  0.00  0.00    +0.000 A 
ATOM      2  C   UNL     1      45.879   5.391   9.530  0.00  0.00    +0.000 A 
ATOM      3  C   UNL     1      46.199   6.101  10.691  0.00  0.00    +0.000 A 
ATOM      4  C   UNL     1      45.388   6.055  11.847  0.00  0.00    +0.000 A 
ATOM      5  C   UNL     1      44.215   5.262  11.785  0.00  0.00    +0.000 A 
ATOM      6  C   UNL     1      43.262   5.067  12.935  0.00  0.00    +0.000 C 
ATOM      7  C   UNL     1      43.906   4.552  10.604  0.00  0.00    +0.000 A 
ENDROOT
BRANCH   1   8
ATOM      8  C   UNL     1      44.337   3.883   8.204  0.00  0.00    +0.000 C 
BRANCH   8  14
ATOM      9  C   UNL     1      47.848   2.638   5.050  0.00  0.00    +0.000 C 
ATOM     10  C   UNL     1      47.056   2.279   6.270  0.00  0.00    +0.000 A 
ATOM     11  C   UNL     1      47.294   1.088   6.947  0.00  0.00    +0.000 A 
ATOM     12  C   UNL     1      46.511   0.778   8.051  0.00  0.00    +0.000 A 
ATOM     13  C   UNL     1      45.524   1.668   8.455  0.00  0.00    +0.000 A 
ATOM     14  C   UNL     1      45.360   2.861   7.753  0.00  0.00    +0.000 A 
ATOM     15  N   UNL     1      46.104   3.163   6.659  0.00  0.00    +0.000 NA
ENDBRANCH   8  14
ENDBRANCH   1   8
BRANCH   4  16
ATOM     16  C   UNL     1      45.769   6.846  13.104  0.00  0.00    +0.000 C 
BRANCH  16  17
ATOM     17  C   UNL     1      46.546   8.065  12.651  0.00  0.00    +0.000 A 
ATOM     18  C   UNL     1      45.995   9.293  12.307  0.00  0.00    +0.000 A 
ATOM     19  S   UNL     1      47.150  10.470  11.870  0.00  0.00    +0.000 S 
ATOM     20  C   UNL     1      48.434   9.381  12.108  0.00  0.00    +0.000 A 
ATOM     21  N   UNL     1      49.726   9.772  11.933  0.00  0.00    +0.000 NA
ATOM     22  C   UNL     1      50.596   8.843  12.154  0.00  0.00    +0.000 A 
ATOM     23  N   UNL     1      50.292   7.556  12.511  0.00  0.00    +0.000 N 
ATOM     24  C   UNL     1      48.999   7.099  12.649  0.00  0.00    +0.000 A 
ATOM     25  O   UNL     1      48.773   5.919  12.895  0.00  0.00    +0.000 OA
ATOM     26  C   UNL     1      47.985   8.127  12.477  0.00  0.00    +0.000 A 
ATOM     27  H   UNL     1      51.017   6.869  12.644  0.00  0.00    +0.000 HD
ENDBRANCH  16  17
BRANCH  16  28
ATOM     28  N   UNL     1      46.582   6.109  14.073  0.00  0.00    +0.000 NA
ATOM     29  H   UNL     1      46.427   6.469  15.008  0.00  0.00    +0.000 HD
ATOM     30  H   UNL     1      47.562   6.270  13.848  0.00  0.00    +0.000 HD
ENDBRANCH  16  28
ENDBRANCH   4  16
TORSDOF 5
ENDMDL
MODEL 2
REMARK VINA RESULT:    -7.833      1.635      2.203
REMARK INTER + INTRA:         -10.019
REMARK INTER:                  -9.306
REMARK INTRA:                  -0.713
REMARK UNBOUND:                -0.125
REMARK  Name = 
REMARK  7 active torsions:
REMARK  status: ('A' for Active; 'I' for Inactive)
REMARK    1  A    between atoms: C_1  and  C_2
REMARK    2  A    between atoms: C_6  and  C_7
REMARK    3  A    between atoms: C_7  and  C_8
REMARK    4  A    between atoms: C_11  and  C_12
REMARK    5  A    between atoms: C_12  and  N_13
REMARK    6  A    between atoms: C_12  and  C_14
REMARK    7  A    between atoms: C_24  and  C_25
REMARK                            x       y       z     vdW  Elec       q    Type
REMARK                         _______ _______ _______ _____ _____    ______ ____
ROOT
ATOM      1  C   UNL     1      44.915   4.696   9.648  0.00  0.00    +0.000 A 
ATOM      2  C   UNL     1      46.034   5.526   9.590  0.00  0.00    +0.000 A 
ATOM      3  C   UNL     1      46.463   6.220  10.725  0.00  0.00    +0.000 A 
ATOM      4  C   UNL     1      45.801   6.110  11.968  0.00  0.00    +0.000 A 
ATOM      5  C   UNL     1      44.662   5.267  12.023  0.00  0.00    +0.000 A 
ATOM      6  C   UNL     1      43.864   5.001  13.273  0.00  0.00    +0.000 C 
ATOM      7  C   UNL     1      44.241   4.574  10.867  0.00  0.00    +0.000 A 
ENDROOT
BRANCH   1   8
ATOM      8  C   UNL     1      44.406   3.984   8.413  0.00  0.00    +0.000 C 
BRANCH   8  14
ATOM      9  C   UNL     1      47.700   2.695   5.050  0.00  0.00    +0.000 C 
ATOM     10  C   UNL     1      46.954   2.331   6.297  0.00  0.00    +0.000 A 
ATOM     11  C   UNL     1      47.173   1.109   6.925  0.00  0.00    +0.000 A 
ATOM     12  C   UNL     1      46.433   0.798   8.058  0.00  0.00    +0.000 A 
ATOM     13  C   UNL     1      45.506   1.715   8.538  0.00  0.00    +0.000 A 
ATOM     14  C   UNL     1      45.360   2.936   7.881  0.00  0.00    +0.000 A 
ATOM     15  N   UNL     1      46.062   3.241   6.760  0.00  0.00    +0.000 NA
ENDBRANCH   8  14
ENDBRANCH   1   8
BRANCH   4  16
ATOM     16  C   UNL     1      46.299   6.885  13.194  0.00  0.00    +0.000 C 
BRANCH  16  17
ATOM     17  C   UNL     1      47.337   7.875  12.708  0.00  0.00    +0.000 A 
ATOM     18  C   UNL     1      48.710   7.662  12.685  0.00  0.00    +0.000 A 
ATOM     19  S   UNL     1      49.600   8.970  12.046  0.00  0.00    +0.000 S 
ATOM     20  C   UNL     1      48.188   9.882  11.789  0.00  0.00    +0.000 A 
ATOM     21  N   UNL     1      48.245  11.117  11.222  0.00  0.00    +0.000 NA
ATOM     22  C   UNL     1      47.096  11.690  11.082  0.00  0.00    +0.000 A 
ATOM     23  N   UNL     1      45.900  11.152  11.477  0.00  0.00    +0.000 N 
ATOM     24  C   UNL     1      45.797   9.927  12.102  0.00  0.00    +0.000 A 
ATOM     25  O   UNL     1      44.713   9.519  12.507  0.00  0.00    +0.000 OA
ATOM     26  C   UNL     1      47.057   9.213  12.221  0.00  0.00    +0.000 A 
ATOM     27  H   UNL     1      45.037  11.661  11.364  0.00  0.00    +0.000 HD
ENDBRANCH  16  17
BRANCH  16  28
ATOM     28  N   UNL     1      46.897   6.059  14.244  0.00  0.00    +0.000 NA
ATOM     29  H   UNL     1      47.864   5.849  14.017  0.00  0.00    +0.000 HD
ATOM     30  H   UNL     1      46.396   5.173  14.271  0.00  0.00    +0.000 HD
ENDBRANCH  16  28
ENDBRANCH   4  16
TORSDOF 5
ENDMDL
MODEL 3
REMARK VINA RESULT:    -7.762      2.158      2.849
REMARK INTER + INTRA:          -9.929
REMARK INTER:                  -9.116
REMARK INTRA:                  -0.813
REMARK UNBOUND:                -0.125
REMARK  Name = 
REMARK  7 active torsions:
REMARK  status: ('A' for Active; 'I' for Inactive)
REMARK    1  A    between atoms: C_1  and  C_2
REMARK    2  A    between atoms: C_6  and  C_7
REMARK    3  A    between atoms: C_7  and  C_8
REMARK    4  A    between atoms: C_11  and  C_12
REMARK    5  A    between atoms: C_12  and  N_13
REMARK    6  A    between atoms: C_12  and  C_14
REMARK    7  A    between atoms: C_24  and  C_25
REMARK                            x       y       z     vdW  Elec       q    Type
REMARK                         _______ _______ _______ _____ _____    ______ ____
ROOT
ATOM      1  C   UNL     1      45.117   4.120  11.532  0.00  0.00    +0.000 A 
ATOM      2  C   UNL     1      45.974   3.497  12.438  0.00  0.00    +0.000 A 
ATOM      3  C   UNL     1      46.692   4.252  13.371  0.00  0.00    +0.000 A 
ATOM      4  C   UNL     1      46.579   5.658  13.446  0.00  0.00    +0.000 A 
ATOM      5  C   UNL     1      45.709   6.288  12.522  0.00  0.00    +0.000 A 
ATOM      6  C   UNL     1      45.436   7.769  12.489  0.00  0.00    +0.000 C 
ATOM      7  C   UNL     1      44.991   5.511  11.585  0.00  0.00    +0.000 A 
ENDROOT
BRANCH   1   8
ATOM      8  C   UNL     1      44.379   3.321  10.479  0.00  0.00    +0.000 C 
BRANCH   8  14
ATOM      9  C   UNL     1      46.739   0.076   7.698  0.00  0.00    +0.000 C 
ATOM     10  C   UNL     1      46.302   1.496   7.896  0.00  0.00    +0.000 A 
ATOM     11  C   UNL     1      46.621   2.474   6.959  0.00  0.00    +0.000 A 
ATOM     12  C   UNL     1      46.228   3.784   7.200  0.00  0.00    +0.000 A 
ATOM     13  C   UNL     1      45.520   4.079   8.359  0.00  0.00    +0.000 A 
ATOM     14  C   UNL     1      45.203   3.047   9.239  0.00  0.00    +0.000 A 
ATOM     15  N   UNL     1      45.602   1.767   9.025  0.00  0.00    +0.000 NA
ENDBRANCH   8  14
ENDBRANCH   1   8
BRANCH   4  16
ATOM     16  C   UNL     1      47.380   6.455  14.483  0.00  0.00    +0.000 C 
BRANCH  16  17
ATOM     17  C   UNL     1      48.448   7.223  13.733  0.00  0.00    +0.000 A 
ATOM     18  C   UNL     1      49.045   6.826  12.542  0.00  0.00    +0.000 A 
ATOM     19  S   UNL     1      50.191   7.937  11.940  0.00  0.00    +0.000 S 
ATOM     20  C   UNL     1      49.948   8.988  13.255  0.00  0.00    +0.000 A 
ATOM     21  N   UNL     1      50.614  10.172  13.338  0.00  0.00    +0.000 NA
ATOM     22  C   UNL     1      50.327  10.870  14.386  0.00  0.00    +0.000 A 
ATOM     23  N   UNL     1      49.454  10.483  15.369  0.00  0.00    +0.000 N 
ATOM     24  C   UNL     1      48.796   9.272  15.355  0.00  0.00    +0.000 A 
ATOM     25  O   UNL     1      48.083   8.935  16.294  0.00  0.00    +0.000 OA
ATOM     26  C   UNL     1      49.035   8.479  14.160  0.00  0.00    +0.000 A 
ATOM     27  H   UNL     1      49.291  11.062  16.177  0.00  0.00    +0.000 HD
ENDBRANCH  16  17
BRANCH  16  28
ATOM     28  N   UNL     1      48.026   5.645  15.517  0.00  0.00    +0.000 NA
ATOM     29  H   UNL     1      47.456   5.625  16.355  0.00  0.00    +0.000 HD
ATOM     30  H   UNL     1      48.906   6.095  15.763  0.00  0.00    +0.000 HD
ENDBRANCH  16  28
ENDBRANCH   4  16
TORSDOF 5
ENDMDL
MODEL 4
REMARK VINA RESULT:    -7.675      3.388      4.424
REMARK INTER + INTRA:          -9.819
REMARK INTER:                  -8.866
REMARK INTRA:                  -0.953
REMARK UNBOUND:                -0.125
REMARK  Name = 
REMARK  7 active torsions:
REMARK  status: ('A' for Active; 'I' for Inactive)
REMARK    1  A    between atoms: C_1  and  C_2
REMARK    2  A    between atoms: C_6  and  C_7
REMARK    3  A    between atoms: C_7  and  C_8
REMARK    4  A    between atoms: C_11  and  C_12
REMARK    5  A    between atoms: C_12  and  N_13
REMARK    6  A    between atoms: C_12  and  C_14
REMARK    7  A    between atoms: C_24  and  C_25
REMARK                            x       y       z     vdW  Elec       q    Type
REMARK                         _______ _______ _______ _____ _____    ______ ____
ROOT
ATOM      1  C   UNL     1      45.969   6.128  11.882  0.00  0.00    +0.000 A 
ATOM      2  C   UNL     1      46.918   7.102  11.577  0.00  0.00    +0.000 A 
ATOM      3  C   UNL     1      48.015   7.312  12.419  0.00  0.00    +0.000 A 
ATOM      4  C   UNL     1      48.216   6.555  13.594  0.00  0.00    +0.000 A 
ATOM      5  C   UNL     1      47.248   5.567  13.902  0.00  0.00    +0.000 A 
ATOM      6  C   UNL     1      47.327   4.643  15.088  0.00  0.00    +0.000 C 
ATOM      7  C   UNL     1      46.145   5.368  13.042  0.00  0.00    +0.000 A 
ENDROOT
BRANCH   1   8
ATOM      8  C   UNL     1      44.746   5.929  11.011  0.00  0.00    +0.000 C 
BRANCH   8  14
ATOM      9  C   UNL     1      46.556   3.890   6.962  0.00  0.00    +0.000 C 
ATOM     10  C   UNL     1      45.722   3.731   8.197  0.00  0.00    +0.000 A 
ATOM     11  C   UNL     1      45.108   2.517   8.488  0.00  0.00    +0.000 A 
ATOM     12  C   UNL     1      44.315   2.425   9.624  0.00  0.00    +0.000 A 
ATOM     13  C   UNL     1      44.165   3.539  10.441  0.00  0.00    +0.000 A 
ATOM     14  C   UNL     1      44.836   4.716  10.110  0.00  0.00    +0.000 A 
ATOM     15  N   UNL     1      45.595   4.823   8.990  0.00  0.00    +0.000 NA
ENDBRANCH   8  14
ENDBRANCH   1   8
BRANCH   4  16
ATOM     16  C   UNL     1      49.431   6.811  14.494  0.00  0.00    +0.000 C 
BRANCH  16  17
ATOM     17  C   UNL     1      48.945   7.598  15.693  0.00  0.00    +0.000 A 
ATOM     18  C   UNL     1      48.376   8.865  15.653  0.00  0.00    +0.000 A 
ATOM     19  S   UNL     1      47.905   9.458  17.182  0.00  0.00    +0.000 S 
ATOM     20  C   UNL     1      48.455   8.052  17.963  0.00  0.00    +0.000 A 
ATOM     21  N   UNL     1      48.317   7.896  19.307  0.00  0.00    +0.000 NA
ATOM     22  C   UNL     1      48.774   6.777  19.762  0.00  0.00    +0.000 A 
ATOM     23  N   UNL     1      49.376   5.810  19.000  0.00  0.00    +0.000 N 
ATOM     24  C   UNL     1      49.585   5.944  17.644  0.00  0.00    +0.000 A 
ATOM     25  O   UNL     1      50.197   5.086  17.016  0.00  0.00    +0.000 OA
ATOM     26  C   UNL     1      49.026   7.159  17.074  0.00  0.00    +0.000 A 
ATOM     27  H   UNL     1      49.736   4.967  19.419  0.00  0.00    +0.000 HD
ENDBRANCH  16  17
BRANCH  16  28
ATOM     28  N   UNL     1      50.521   7.554  13.859  0.00  0.00    +0.000 NA
ATOM     29  H   UNL     1      50.843   8.296  14.471  0.00  0.00    +0.000 HD
ATOM     30  H   UNL     1      50.154   7.996  13.019  0.00  0.00    +0.000 HD
ENDBRANCH  16  28
ENDBRANCH   4  16
TORSDOF 5
ENDMDL
MODEL 5
REMARK VINA RESULT:    -7.122      5.145      6.822
REMARK INTER + INTRA:          -9.121
REMARK INTER:                  -8.206
REMARK INTRA:                  -0.915
REMARK UNBOUND:                -0.125
REMARK  Name = 
REMARK  7 active torsions:
REMARK  status: ('A' for Active; 'I' for Inactive)
REMARK    1  A    between atoms: C_1  and  C_2
REMARK    2  A    between atoms: C_6  and  C_7
REMARK    3  A    between atoms: C_7  and  C_8
REMARK    4  A    between atoms: C_11  and  C_12
REMARK    5  A    between atoms: C_12  and  N_13
REMARK    6  A    between atoms: C_12  and  C_14
REMARK    7  A    between atoms: C_24  and  C_25
REMARK                            x       y       z     vdW  Elec       q    Type
REMARK                         _______ _______ _______ _____ _____    ______ ____
ROOT
ATOM      1  C   UNL     1      47.288   5.824  13.505  0.00  0.00    +0.000 A 
ATOM      2  C   UNL     1      46.706   4.678  14.044  0.00  0.00    +0.000 A 
ATOM      3  C   UNL     1      46.997   4.282  15.353  0.00  0.00    +0.000 A 
ATOM      4  C   UNL     1      47.875   5.016  16.182  0.00  0.00    +0.000 A 
ATOM      5  C   UNL     1      48.466   6.179  15.630  0.00  0.00    +0.000 A 
ATOM      6  C   UNL     1      49.388   7.101  16.384  0.00  0.00    +0.000 C 
ATOM      7  C   UNL     1      48.162   6.565  14.306  0.00  0.00    +0.000 A 
ENDROOT
BRANCH   1   8
ATOM      8  C   UNL     1      47.026   6.232  12.071  0.00  0.00    +0.000 C 
BRANCH   8  14
ATOM      9  C   UNL     1      44.346   3.031   9.542  0.00  0.00    +0.000 C 
ATOM     10  C   UNL     1      44.380   4.271  10.382  0.00  0.00    +0.000 A 
ATOM     11  C   UNL     1      43.207   4.954  10.687  0.00  0.00    +0.000 A 
ATOM     12  C   UNL     1      43.288   6.120  11.437  0.00  0.00    +0.000 A 
ATOM     13  C   UNL     1      44.531   6.563  11.871  0.00  0.00    +0.000 A 
ATOM     14  C   UNL     1      45.664   5.813  11.561  0.00  0.00    +0.000 A 
ATOM     15  N   UNL     1      45.599   4.685  10.809  0.00  0.00    +0.000 NA
ENDBRANCH   8  14
ENDBRANCH   1   8
BRANCH   4  16
ATOM     16  C   UNL     1      48.171   4.553  17.613  0.00  0.00    +0.000 C 
BRANCH  16  17
ATOM     17  C   UNL     1      49.374   3.636  17.549  0.00  0.00    +0.000 A 
ATOM     18  C   UNL     1      49.411   2.392  16.930  0.00  0.00    +0.000 A 
ATOM     19  S   UNL     1      50.934   1.626  17.011  0.00  0.00    +0.000 S 
ATOM     20  C   UNL     1      51.602   2.918  17.891  0.00  0.00    +0.000 A 
ATOM     21  N   UNL     1      52.911   2.911  18.261  0.00  0.00    +0.000 NA
ATOM     22  C   UNL     1      53.282   3.958  18.919  0.00  0.00    +0.000 A 
ATOM     23  N   UNL     1      52.460   5.000  19.261  0.00  0.00    +0.000 N 
ATOM     24  C   UNL     1      51.117   5.028  18.954  0.00  0.00    +0.000 A 
ATOM     25  O   UNL     1      50.403   5.945  19.347  0.00  0.00    +0.000 OA
ATOM     26  C   UNL     1      50.666   3.902  18.154  0.00  0.00    +0.000 A 
ATOM     27  H   UNL     1      52.805   5.779  19.799  0.00  0.00    +0.000 HD
ENDBRANCH  16  17
BRANCH  16  28
ATOM     28  N   UNL     1      47.074   3.840  18.270  0.00  0.00    +0.000 NA
ATOM     29  H   UNL     1      47.270   2.846  18.299  0.00  0.00    +0.000 HD
ATOM     30  H   UNL     1      46.236   3.965  17.706  0.00  0.00    +0.000 HD
ENDBRANCH  16  28
ENDBRANCH   4  16
TORSDOF 5
ENDMDL
MODEL 6
REMARK VINA RESULT:    -7.058      4.667      7.180
REMARK INTER + INTRA:          -9.040
REMARK INTER:                  -8.084
REMARK INTRA:                  -0.956
REMARK UNBOUND:                -0.125
REMARK  Name = 
REMARK  7 active torsions:
REMARK  status: ('A' for Active; 'I' for Inactive)
REMARK    1  A    between atoms: C_1  and  C_2
REMARK    2  A    between atoms: C_6  and  C_7
REMARK    3  A    between atoms: C_7  and  C_8
REMARK    4  A    between atoms: C_11  and  C_12
REMARK    5  A    between atoms: C_12  and  N_13
REMARK    6  A    between atoms: C_12  and  C_14
REMARK    7  A    between atoms: C_24  and  C_25
REMARK                            x       y       z     vdW  Elec       q    Type
REMARK                         _______ _______ _______ _____ _____    ______ ____
ROOT
ATOM      1  C   UNL     1      46.043  10.264  12.053  0.00  0.00    +0.000 A 
ATOM      2  C   UNL     1      47.437  10.284  12.077  0.00  0.00    +0.000 A 
ATOM      3  C   UNL     1      48.157   9.127  12.389  0.00  0.00    +0.000 A 
ATOM      4  C   UNL     1      47.520   7.901  12.683  0.00  0.00    +0.000 A 
ATOM      5  C   UNL     1      46.103   7.886  12.660  0.00  0.00    +0.000 A 
ATOM      6  C   UNL     1      45.265   6.659  12.905  0.00  0.00    +0.000 C 
ATOM      7  C   UNL     1      45.390   9.063  12.343  0.00  0.00    +0.000 A 
ENDROOT
BRANCH   1   8
ATOM      8  C   UNL     1      45.249  11.523  11.773  0.00  0.00    +0.000 C 
BRANCH   8  14
ATOM      9  C   UNL     1      40.391  11.261  12.175  0.00  0.00    +0.000 C 
ATOM     10  C   UNL     1      41.597  11.167  11.289  0.00  0.00    +0.000 A 
ATOM     11  C   UNL     1      41.461  10.889   9.933  0.00  0.00    +0.000 A 
ATOM     12  C   UNL     1      42.607  10.774   9.157  0.00  0.00    +0.000 A 
ATOM     13  C   UNL     1      43.851  10.951   9.750  0.00  0.00    +0.000 A 
ATOM     14  C   UNL     1      43.915  11.261  11.107  0.00  0.00    +0.000 A 
ATOM     15  N   UNL     1      42.803  11.354  11.880  0.00  0.00    +0.000 NA
ENDBRANCH   8  14
ENDBRANCH   1   8
BRANCH   4  16
ATOM     16  C   UNL     1      48.342   6.651  13.021  0.00  0.00    +0.000 C 
BRANCH  16  17
ATOM     17  C   UNL     1      48.482   6.599  14.528  0.00  0.00    +0.000 A 
ATOM     18  C   UNL     1      49.087   7.568  15.318  0.00  0.00    +0.000 A 
ATOM     19  S   UNL     1      49.050   7.219  16.988  0.00  0.00    +0.000 S 
ATOM     20  C   UNL     1      48.236   5.750  16.722  0.00  0.00    +0.000 A 
ATOM     21  N   UNL     1      47.865   4.956  17.763  0.00  0.00    +0.000 NA
ATOM     22  C   UNL     1      47.251   3.875  17.412  0.00  0.00    +0.000 A 
ATOM     23  N   UNL     1      46.994   3.505  16.119  0.00  0.00    +0.000 N 
ATOM     24  C   UNL     1      47.395   4.250  15.031  0.00  0.00    +0.000 A 
ATOM     25  O   UNL     1      47.211   3.842  13.889  0.00  0.00    +0.000 OA
ATOM     26  C   UNL     1      48.032   5.511  15.375  0.00  0.00    +0.000 A 
ATOM     27  H   UNL     1      46.532   2.634  15.909  0.00  0.00    +0.000 HD
ENDBRANCH  16  17
BRANCH  16  28
ATOM     28  N   UNL     1      49.679   6.614  12.426  0.00  0.00    +0.000 NA
ATOM     29  H   UNL     1      50.105   7.533  12.463  0.00  0.00    +0.000 HD
ATOM     30  H   UNL     1      49.578   6.369  11.442  0.00  0.00    +0.000 HD
ENDBRANCH  16  28
ENDBRANCH   4  16
TORSDOF 5
ENDMDL
MODEL 7
REMARK VINA RESULT:    -6.969      3.770      5.261
REMARK INTER + INTRA:          -8.928
REMARK INTER:                  -8.271
REMARK INTRA:                  -0.657
REMARK UNBOUND:                -0.125
REMARK  Name = 
REMARK  7 active torsions:
REMARK  status: ('A' for Active; 'I' for Inactive)
REMARK    1  A    between atoms: C_1  and  C_2
REMARK    2  A    between atoms: C_6  and  C_7
REMARK    3  A    between atoms: C_7  and  C_8
REMARK    4  A    between atoms: C_11  and  C_12
REMARK    5  A    between atoms: C_12  and  N_13
REMARK    6  A    between atoms: C_12  and  C_14
REMARK    7  A    between atoms: C_24  and  C_25
REMARK                            x       y       z     vdW  Elec       q    Type
REMARK                         _______ _______ _______ _____ _____    ______ ____
ROOT
ATOM      1  C   UNL     1      46.465   6.668  12.074  0.00  0.00    +0.000 A 
ATOM      2  C   UNL     1      47.449   7.655  12.083  0.00  0.00    +0.000 A 
ATOM      3  C   UNL     1      48.403   7.696  13.105  0.00  0.00    +0.000 A 
ATOM      4  C   UNL     1      48.421   6.751  14.155  0.00  0.00    +0.000 A 
ATOM      5  C   UNL     1      47.417   5.751  14.144  0.00  0.00    +0.000 A 
ATOM      6  C   UNL     1      47.313   4.643  15.158  0.00  0.00    +0.000 C 
ATOM      7  C   UNL     1      46.460   5.724  13.104  0.00  0.00    +0.000 A 
ENDROOT
BRANCH   1   8
ATOM      8  C   UNL     1      45.391   6.646  11.006  0.00  0.00    +0.000 C 
BRANCH   8  14
ATOM      9  C   UNL     1      43.283   2.298  11.696  0.00  0.00    +0.000 C 
ATOM     10  C   UNL     1      44.064   3.198  10.788  0.00  0.00    +0.000 A 
ATOM     11  C   UNL     1      44.450   2.767   9.522  0.00  0.00    +0.000 A 
ATOM     12  C   UNL     1      45.204   3.620   8.727  0.00  0.00    +0.000 A 
ATOM     13  C   UNL     1      45.543   4.877   9.210  0.00  0.00    +0.000 A 
ATOM     14  C   UNL     1      45.095   5.260  10.474  0.00  0.00    +0.000 A 
ATOM     15  N   UNL     1      44.376   4.426  11.268  0.00  0.00    +0.000 NA
ENDBRANCH   8  14
ENDBRANCH   1   8
BRANCH   4  16
ATOM     16  C   UNL     1      49.482   6.826  15.259  0.00  0.00    +0.000 C 
BRANCH  16  17
ATOM     17  C   UNL     1      48.920   7.694  16.365  0.00  0.00    +0.000 A 
ATOM     18  C   UNL     1      48.591   9.039  16.250  0.00  0.00    +0.000 A 
ATOM     19  S   UNL     1      47.950   9.717  17.679  0.00  0.00    +0.000 S 
ATOM     20  C   UNL     1      48.100   8.244  18.515  0.00  0.00    +0.000 A 
ATOM     21  N   UNL     1      47.690   8.127  19.807  0.00  0.00    +0.000 NA
ATOM     22  C   UNL     1      47.859   6.950  20.312  0.00  0.00    +0.000 A 
ATOM     23  N   UNL     1      48.421   5.889  19.653  0.00  0.00    +0.000 N 
ATOM     24  C   UNL     1      48.898   5.973  18.363  0.00  0.00    +0.000 A 
ATOM     25  O   UNL     1      49.463   5.018  17.839  0.00  0.00    +0.000 OA
ATOM     26  C   UNL     1      48.668   7.260  17.727  0.00  0.00    +0.000 A 
ATOM     27  H   UNL     1      48.549   5.001  20.112  0.00  0.00    +0.000 HD
ENDBRANCH  16  17
BRANCH  16  28
ATOM     28  N   UNL     1      50.770   7.380  14.839  0.00  0.00    +0.000 NA
ATOM     29  H   UNL     1      50.627   8.158  14.205  0.00  0.00    +0.000 HD
ATOM     30  H   UNL     1      51.269   6.659  14.322  0.00  0.00    +0.000 HD
ENDBRANCH  16  28
ENDBRANCH   4  16
TORSDOF 5
ENDMDL
MODEL 8
REMARK VINA RESULT:    -6.950      4.453      5.727
REMARK INTER + INTRA:          -8.904
REMARK INTER:                  -8.043
REMARK INTRA:                  -0.861
REMARK UNBOUND:                -0.125
REMARK  Name = 
REMARK  7 active torsions:
REMARK  status: ('A' for Active; 'I' for Inactive)
REMARK    1  A    between atoms: C_1  and  C_2
REMARK    2  A    between atoms: C_6  and  C_7
REMARK    3  A    between atoms: C_7  and  C_8
REMARK    4  A    between atoms: C_11  and  C_12
REMARK    5  A    between atoms: C_12  and  N_13
REMARK    6  A    between atoms: C_12  and  C_14
REMARK    7  A    between atoms: C_24  and  C_25
REMARK                            x       y       z     vdW  Elec       q    Type
REMARK                         _______ _______ _______ _____ _____    ______ ____
ROOT
ATOM      1  C   UNL     1      45.948   5.529  13.220  0.00  0.00    +0.000 A 
ATOM      2  C   UNL     1      46.769   6.655  13.162  0.00  0.00    +0.000 A 
ATOM      3  C   UNL     1      47.858   6.784  14.029  0.00  0.00    +0.000 A 
ATOM      4  C   UNL     1      48.180   5.794  14.984  0.00  0.00    +0.000 A 
ATOM      5  C   UNL     1      47.342   4.653  15.042  0.00  0.00    +0.000 A 
ATOM      6  C   UNL     1      47.563   3.485  15.967  0.00  0.00    +0.000 C 
ATOM      7  C   UNL     1      46.245   4.537  14.159  0.00  0.00    +0.000 A 
ENDROOT
BRANCH   1   8
ATOM      8  C   UNL     1      44.732   5.403  12.327  0.00  0.00    +0.000 C 
BRANCH   8  14
ATOM      9  C   UNL     1      44.413   1.719   9.140  0.00  0.00    +0.000 C 
ATOM     10  C   UNL     1      44.869   3.119   9.416  0.00  0.00    +0.000 A 
ATOM     11  C   UNL     1      45.509   3.865   8.432  0.00  0.00    +0.000 A 
ATOM     12  C   UNL     1      45.948   5.145   8.743  0.00  0.00    +0.000 A 
ATOM     13  C   UNL     1      45.726   5.649  10.019  0.00  0.00    +0.000 A 
ATOM     14  C   UNL     1      45.047   4.862  10.948  0.00  0.00    +0.000 A 
ATOM     15  N   UNL     1      44.634   3.601  10.662  0.00  0.00    +0.000 NA
ENDBRANCH   8  14
ENDBRANCH   1   8
BRANCH   4  16
ATOM     16  C   UNL     1      49.383   5.969  15.919  0.00  0.00    +0.000 C 
BRANCH  16  17
ATOM     17  C   UNL     1      48.862   6.544  17.219  0.00  0.00    +0.000 A 
ATOM     18  C   UNL     1      48.302   7.806  17.379  0.00  0.00    +0.000 A 
ATOM     19  S   UNL     1      47.784   8.134  18.971  0.00  0.00    +0.000 S 
ATOM     20  C   UNL     1      48.302   6.609  19.517  0.00  0.00    +0.000 A 
ATOM     21  N   UNL     1      48.121   6.228  20.810  0.00  0.00    +0.000 NA
ATOM     22  C   UNL     1      48.557   5.044  21.081  0.00  0.00    +0.000 A 
ATOM     23  N   UNL     1      49.179   4.215  20.184  0.00  0.00    +0.000 N 
ATOM     24  C   UNL     1      49.432   4.575  18.878  0.00  0.00    +0.000 A 
ATOM     25  O   UNL     1      50.059   3.831  18.132  0.00  0.00    +0.000 OA
ATOM     26  C   UNL     1      48.897   5.876  18.507  0.00  0.00    +0.000 A 
ATOM     27  H   UNL     1      49.521   3.309  20.464  0.00  0.00    +0.000 HD
ENDBRANCH  16  17
BRANCH  16  28
ATOM     28  N   UNL     1      50.437   6.847  15.409  0.00  0.00    +0.000 NA
ATOM     29  H   UNL     1      50.523   6.745  14.404  0.00  0.00    +0.000 HD
ATOM     30  H   UNL     1      51.321   6.547  15.818  0.00  0.00    +0.000 HD
ENDBRANCH  16  28
ENDBRANCH   4  16
TORSDOF 5
ENDMDL
MODEL 9
REMARK VINA RESULT:    -6.814      4.578      6.712
REMARK INTER + INTRA:          -8.731
REMARK INTER:                  -7.777
REMARK INTRA:                  -0.955
REMARK UNBOUND:                -0.125
REMARK  Name = 
REMARK  7 active torsions:
REMARK  status: ('A' for Active; 'I' for Inactive)
REMARK    1  A    between atoms: C_1  and  C_2
REMARK    2  A    between atoms: C_6  and  C_7
REMARK    3  A    between atoms: C_7  and  C_8
REMARK    4  A    between atoms: C_11  and  C_12
REMARK    5  A    between atoms: C_12  and  N_13
REMARK    6  A    between atoms: C_12  and  C_14
REMARK    7  A    between atoms: C_24  and  C_25
REMARK                            x       y       z     vdW  Elec       q    Type
REMARK                         _______ _______ _______ _____ _____    ______ ____
ROOT
ATOM      1  C   UNL     1      45.642   9.815  12.065  0.00  0.00    +0.000 A 
ATOM      2  C   UNL     1      47.023   9.979  12.164  0.00  0.00    +0.000 A 
ATOM      3  C   UNL     1      47.841   8.906  12.528  0.00  0.00    +0.000 A 
ATOM      4  C   UNL     1      47.319   7.621  12.800  0.00  0.00    +0.000 A 
ATOM      5  C   UNL     1      45.915   7.458  12.700  0.00  0.00    +0.000 A 
ATOM      6  C   UNL     1      45.196   6.152  12.913  0.00  0.00    +0.000 C 
ATOM      7  C   UNL     1      45.102   8.554  12.332  0.00  0.00    +0.000 A 
ENDROOT
BRANCH   1   8
ATOM      8  C   UNL     1      44.739  10.982  11.728  0.00  0.00    +0.000 C 
BRANCH   8  14
ATOM      9  C   UNL     1      46.466  12.759   7.523  0.00  0.00    +0.000 C 
ATOM     10  C   UNL     1      45.380  12.007   8.230  0.00  0.00    +0.000 A 
ATOM     11  C   UNL     1      44.288  11.509   7.526  0.00  0.00    +0.000 A 
ATOM     12  C   UNL     1      43.286  10.850   8.227  0.00  0.00    +0.000 A 
ATOM     13  C   UNL     1      43.407  10.696   9.602  0.00  0.00    +0.000 A 
ATOM     14  C   UNL     1      44.544  11.188  10.241  0.00  0.00    +0.000 A 
ATOM     15  N   UNL     1      45.518  11.854   9.570  0.00  0.00    +0.000 NA
ENDBRANCH   8  14
ENDBRANCH   1   8
BRANCH   4  16
ATOM     16  C   UNL     1      48.246   6.466  13.195  0.00  0.00    +0.000 C 
BRANCH  16  17
ATOM     17  C   UNL     1      48.389   6.500  14.702  0.00  0.00    +0.000 A 
ATOM     18  C   UNL     1      48.965   7.529  15.438  0.00  0.00    +0.000 A 
ATOM     19  S   UNL     1      48.940   7.271  17.124  0.00  0.00    +0.000 S 
ATOM     20  C   UNL     1      48.173   5.765  16.941  0.00  0.00    +0.000 A 
ATOM     21  N   UNL     1      47.828   5.017  18.024  0.00  0.00    +0.000 NA
ATOM     22  C   UNL     1      47.247   3.901  17.735  0.00  0.00    +0.000 A 
ATOM     23  N   UNL     1      47.001   3.453  16.464  0.00  0.00    +0.000 N 
ATOM     24  C   UNL     1      47.377   4.149  15.336  0.00  0.00    +0.000 A 
ATOM     25  O   UNL     1      47.204   3.674  14.218  0.00  0.00    +0.000 OA
ATOM     26  C   UNL     1      47.974   5.446  15.609  0.00  0.00    +0.000 A 
ATOM     27  H   UNL     1      46.565   2.558  16.303  0.00  0.00    +0.000 HD
ENDBRANCH  16  17
BRANCH  16  28
ATOM     28  N   UNL     1      49.581   6.515  12.598  0.00  0.00    +0.000 NA
ATOM     29  H   UNL     1      49.615   7.221  11.871  0.00  0.00    +0.000 HD
ATOM     30  H   UNL     1      49.760   5.617  12.153  0.00  0.00    +0.000 HD
ENDBRANCH  16  28
ENDBRANCH   4  16
TORSDOF 5
ENDMDL
