MODEL 1
REMARK VINA RESULT:    -8.706      0.000      0.000
REMARK INTER + INTRA:         -13.382
REMARK INTER:                 -12.268
REMARK INTRA:                  -1.114
REMARK UNBOUND:                -1.114
REMARK  Name = 
REMARK  8 active torsions:
REMARK  status: ('A' for Active; 'I' for Inactive)
REMARK    1  A    between atoms: C_1  and  C_2
REMARK    2  A    between atoms: C_2  and  C_3
REMARK    3  A    between atoms: C_2  and  C_14
REMARK    4  A    between atoms: C_3  and  O_4
REMARK    5  A    between atoms: O_4  and  C_5
REMARK    6  A    between atoms: C_8  and  C_9
REMARK    7  A    between atoms: C_18  and  O_19
REMARK    8  A    between atoms: O_19  and  C_20
REMARK                            x       y       z     vdW  Elec       q    Type
REMARK                         _______ _______ _______ _____ _____    ______ ____
ROOT
ATOM      1  C   UNL     1      42.729   5.352  12.543  0.00  0.00    +0.000 C 
ATOM      2  C   UNL     1      43.965   4.509  12.535  0.00  0.00    +0.000 C 
ENDROOT
BRANCH   2   3
ATOM      3  C   UNL     1      45.290   5.129  12.740  0.00  0.00    +0.000 A 
ATOM      4  C   UNL     1      45.844   5.999  11.795  0.00  0.00    +0.000 A 
ATOM      5  C   UNL     1      47.134   6.512  11.966  0.00  0.00    +0.000 A 
ATOM      6  C   UNL     1      47.887   6.170  13.090  0.00  0.00    +0.000 A 
ATOM      7  C   UNL     1      47.341   5.321  14.047  0.00  0.00    +0.000 A 
ATOM      8  C   UNL     1      46.048   4.819  13.878  0.00  0.00    +0.000 A 
BRANCH   7   9
ATOM      9  O   UNL     1      47.971   4.945  15.207  0.00  0.00    +0.000 OA
BRANCH   9  10
ATOM     10  C   UNL     1      47.228   4.196  16.195  0.00  0.00    +0.000 C 
ATOM     11  C   UNL     1      47.181   4.742  17.636  0.00  0.00    +0.000 C 
ATOM     12  N   UNL     1      47.641   3.447  18.161  0.00  0.00    +0.000 NA
ATOM     13  C   UNL     1      47.995   3.004  16.804  0.00  0.00    +0.000 C 
ATOM     14  H   UNL     1      46.911   2.890  18.601  0.00  0.00    +0.000 HD
ENDBRANCH   9  10
ENDBRANCH   7   9
ENDBRANCH   2   3
BRANCH   2  15
ATOM     15  C   UNL     1      43.922   3.205  11.783  0.00  0.00    +0.000 C 
BRANCH  15  16
ATOM     16  O   UNL     1      43.476   3.412  10.440  0.00  0.00    +0.000 OA
BRANCH  16  17
ATOM     17  C   UNL     1      44.428   3.236   9.468  0.00  0.00    +0.000 A 
ATOM     18  C   UNL     1      44.909   4.232   8.613  0.00  0.00    +0.000 A 
ATOM     19  C   UNL     1      45.886   3.936   7.659  0.00  0.00    +0.000 A 
ATOM     20  C   UNL     1      46.403   2.641   7.551  0.00  0.00    +0.000 A 
ATOM     21  C   UNL     1      45.918   1.636   8.397  0.00  0.00    +0.000 A 
ATOM     22  C   UNL     1      44.935   1.938   9.349  0.00  0.00    +0.000 A 
BRANCH  20  23
ATOM     23  C   UNL     1      47.440   2.393   6.516  0.00  0.00    +0.000 C 
ATOM     24  N   UNL     1      47.417   3.177   5.398  0.00  0.00    +0.000 N 
ATOM     25  O   UNL     1      48.262   1.491   6.632  0.00  0.00    +0.000 OA
ATOM     26  H   UNL     1      46.625   3.750   5.152  0.00  0.00    +0.000 HD
ATOM     27  H   UNL     1      48.052   2.910   4.657  0.00  0.00    +0.000 HD
ENDBRANCH  20  23
ENDBRANCH  16  17
ENDBRANCH  15  16
ENDBRANCH   2  15
TORSDOF 7
ENDMDL
MODEL 2
REMARK VINA RESULT:    -7.338      2.501      3.703
REMARK INTER + INTRA:         -11.455
REMARK INTER:                 -10.391
REMARK INTRA:                  -1.064
REMARK UNBOUND:                -1.114
REMARK  Name = 
REMARK  8 active torsions:
REMARK  status: ('A' for Active; 'I' for Inactive)
REMARK    1  A    between atoms: C_1  and  C_2
REMARK    2  A    between atoms: C_2  and  C_3
REMARK    3  A    between atoms: C_2  and  C_14
REMARK    4  A    between atoms: C_3  and  O_4
REMARK    5  A    between atoms: O_4  and  C_5
REMARK    6  A    between atoms: C_8  and  C_9
REMARK    7  A    between atoms: C_18  and  O_19
REMARK    8  A    between atoms: O_19  and  C_20
REMARK                            x       y       z     vdW  Elec       q    Type
REMARK                         _______ _______ _______ _____ _____    ______ ____
ROOT
ATOM      1  C   UNL     1      43.088   6.302  11.411  0.00  0.00    +0.000 C 
ATOM      2  C   UNL     1      43.817   5.140  12.010  0.00  0.00    +0.000 C 
ENDROOT
BRANCH   2   3
ATOM      3  C   UNL     1      45.136   5.337  12.644  0.00  0.00    +0.000 A 
ATOM      4  C   UNL     1      45.803   4.286  13.285  0.00  0.00    +0.000 A 
ATOM      5  C   UNL     1      47.012   4.508  13.951  0.00  0.00    +0.000 A 
ATOM      6  C   UNL     1      47.579   5.784  13.980  0.00  0.00    +0.000 A 
ATOM      7  C   UNL     1      46.937   6.833  13.331  0.00  0.00    +0.000 A 
ATOM      8  C   UNL     1      45.734   6.604  12.657  0.00  0.00    +0.000 A 
BRANCH   7   9
ATOM      9  O   UNL     1      47.415   8.117  13.261  0.00  0.00    +0.000 OA
BRANCH   9  10
ATOM     10  C   UNL     1      47.881   8.622  11.988  0.00  0.00    +0.000 C 
ATOM     11  C   UNL     1      49.402   8.750  11.771  0.00  0.00    +0.000 C 
ATOM     12  N   UNL     1      49.244  10.156  11.370  0.00  0.00    +0.000 NA
ATOM     13  C   UNL     1      47.860  10.159  11.864  0.00  0.00    +0.000 C 
ATOM     14  H   UNL     1      49.327  10.318  10.368  0.00  0.00    +0.000 HD
ENDBRANCH   9  10
ENDBRANCH   7   9
ENDBRANCH   2   3
BRANCH   2  15
ATOM     15  C   UNL     1      43.502   3.765  11.483  0.00  0.00    +0.000 C 
BRANCH  15  16
ATOM     16  O   UNL     1      43.320   3.799  10.065  0.00  0.00    +0.000 OA
BRANCH  16  17
ATOM     17  C   UNL     1      44.365   3.304   9.324  0.00  0.00    +0.000 A 
ATOM     18  C   UNL     1      44.739   1.960   9.245  0.00  0.00    +0.000 A 
ATOM     19  C   UNL     1      45.822   1.572   8.452  0.00  0.00    +0.000 A 
ATOM     20  C   UNL     1      46.543   2.522   7.721  0.00  0.00    +0.000 A 
ATOM     21  C   UNL     1      46.180   3.871   7.804  0.00  0.00    +0.000 A 
ATOM     22  C   UNL     1      45.095   4.255   8.603  0.00  0.00    +0.000 A 
BRANCH  20  23
ATOM     23  C   UNL     1      47.684   2.043   6.898  0.00  0.00    +0.000 C 
ATOM     24  N   UNL     1      48.575   2.975   6.449  0.00  0.00    +0.000 N 
ATOM     25  O   UNL     1      47.805   0.862   6.592  0.00  0.00    +0.000 OA
ATOM     26  H   UNL     1      48.382   3.964   6.465  0.00  0.00    +0.000 HD
ATOM     27  H   UNL     1      49.270   2.643   5.793  0.00  0.00    +0.000 HD
ENDBRANCH  20  23
ENDBRANCH  16  17
ENDBRANCH  15  16
ENDBRANCH   2  15
TORSDOF 7
ENDMDL
MODEL 3
REMARK VINA RESULT:    -6.848      1.672      7.909
REMARK INTER + INTRA:         -10.765
REMARK INTER:                  -9.850
REMARK INTRA:                  -0.915
REMARK UNBOUND:                -1.114
REMARK  Name = 
REMARK  8 active torsions:
REMARK  status: ('A' for Active; 'I' for Inactive)
REMARK    1  A    between atoms: C_1  and  C_2
REMARK    2  A    between atoms: C_2  and  C_3
REMARK    3  A    between atoms: C_2  and  C_14
REMARK    4  A    between atoms: C_3  and  O_4
REMARK    5  A    between atoms: O_4  and  C_5
REMARK    6  A    between atoms: C_8  and  C_9
REMARK    7  A    between atoms: C_18  and  O_19
REMARK    8  A    between atoms: O_19  and  C_20
REMARK                            x       y       z     vdW  Elec       q    Type
REMARK                         _______ _______ _______ _____ _____    ______ ____
ROOT
ATOM      1  C   UNL     1      45.230   7.898  11.775  0.00  0.00    +0.000 C 
ATOM      2  C   UNL     1      46.075   6.806  11.198  0.00  0.00    +0.000 C 
ENDROOT
BRANCH   2   3
ATOM      3  C   UNL     1      45.443   5.629  10.570  0.00  0.00    +0.000 A 
ATOM      4  C   UNL     1      44.503   4.851  11.256  0.00  0.00    +0.000 A 
ATOM      5  C   UNL     1      43.976   3.692  10.678  0.00  0.00    +0.000 A 
ATOM      6  C   UNL     1      44.374   3.297   9.399  0.00  0.00    +0.000 A 
ATOM      7  C   UNL     1      45.293   4.071   8.699  0.00  0.00    +0.000 A 
ATOM      8  C   UNL     1      45.809   5.234   9.277  0.00  0.00    +0.000 A 
BRANCH   7   9
ATOM      9  O   UNL     1      45.730   3.803   7.426  0.00  0.00    +0.000 OA
BRANCH   9  10
ATOM     10  C   UNL     1      47.018   3.172   7.246  0.00  0.00    +0.000 C 
ATOM     11  C   UNL     1      47.435   2.766   5.818  0.00  0.00    +0.000 C 
ATOM     12  N   UNL     1      47.717   1.395   6.272  0.00  0.00    +0.000 NA
ATOM     13  C   UNL     1      47.037   1.659   7.548  0.00  0.00    +0.000 C 
ATOM     14  H   UNL     1      48.709   1.181   6.367  0.00  0.00    +0.000 HD
ENDBRANCH   9  10
ENDBRANCH   7   9
ENDBRANCH   2   3
BRANCH   2  15
ATOM     15  C   UNL     1      47.469   6.634  11.742  0.00  0.00    +0.000 C 
BRANCH  15  16
ATOM     16  O   UNL     1      47.561   7.164  13.068  0.00  0.00    +0.000 OA
BRANCH  16  17
ATOM     17  C   UNL     1      47.606   6.231  14.074  0.00  0.00    +0.000 A 
ATOM     18  C   UNL     1      46.929   5.009  14.079  0.00  0.00    +0.000 A 
ATOM     19  C   UNL     1      47.054   4.134  15.162  0.00  0.00    +0.000 A 
ATOM     20  C   UNL     1      47.864   4.466  16.252  0.00  0.00    +0.000 A 
ATOM     21  C   UNL     1      48.536   5.694  16.259  0.00  0.00    +0.000 A 
ATOM     22  C   UNL     1      48.404   6.568  15.172  0.00  0.00    +0.000 A 
BRANCH  20  23
ATOM     23  C   UNL     1      47.952   3.492  17.371  0.00  0.00    +0.000 C 
ATOM     24  N   UNL     1      46.852   2.727  17.632  0.00  0.00    +0.000 N 
ATOM     25  O   UNL     1      48.957   3.402  18.068  0.00  0.00    +0.000 OA
ATOM     26  H   UNL     1      45.941   2.938  17.255  0.00  0.00    +0.000 HD
ATOM     27  H   UNL     1      46.894   2.162  18.471  0.00  0.00    +0.000 HD
ENDBRANCH  20  23
ENDBRANCH  16  17
ENDBRANCH  15  16
ENDBRANCH   2  15
TORSDOF 7
ENDMDL
MODEL 4
REMARK VINA RESULT:    -6.625      3.331      7.614
REMARK INTER + INTRA:         -10.451
REMARK INTER:                  -9.675
REMARK INTRA:                  -0.776
REMARK UNBOUND:                -1.114
REMARK  Name = 
REMARK  8 active torsions:
REMARK  status: ('A' for Active; 'I' for Inactive)
REMARK    1  A    between atoms: C_1  and  C_2
REMARK    2  A    between atoms: C_2  and  C_3
REMARK    3  A    between atoms: C_2  and  C_14
REMARK    4  A    between atoms: C_3  and  O_4
REMARK    5  A    between atoms: O_4  and  C_5
REMARK    6  A    between atoms: C_8  and  C_9
REMARK    7  A    between atoms: C_18  and  O_19
REMARK    8  A    between atoms: O_19  and  C_20
REMARK                            x       y       z     vdW  Elec       q    Type
REMARK                         _______ _______ _______ _____ _____    ______ ____
ROOT
ATOM      1  C   UNL     1      44.274   7.086  11.392  0.00  0.00    +0.000 C 
ATOM      2  C   UNL     1      45.260   5.961  11.354  0.00  0.00    +0.000 C 
ENDROOT
BRANCH   2   3
ATOM      3  C   UNL     1      45.044   4.812  10.452  0.00  0.00    +0.000 A 
ATOM      4  C   UNL     1      44.310   3.692  10.858  0.00  0.00    +0.000 A 
ATOM      5  C   UNL     1      44.185   2.578  10.021  0.00  0.00    +0.000 A 
ATOM      6  C   UNL     1      44.785   2.570   8.761  0.00  0.00    +0.000 A 
ATOM      7  C   UNL     1      45.502   3.684   8.337  0.00  0.00    +0.000 A 
ATOM      8  C   UNL     1      45.616   4.799   9.173  0.00  0.00    +0.000 A 
BRANCH   7   9
ATOM      9  O   UNL     1      46.103   3.806   7.110  0.00  0.00    +0.000 OA
BRANCH   9  10
ATOM     10  C   UNL     1      46.549   2.612   6.427  0.00  0.00    +0.000 C 
ATOM     11  C   UNL     1      47.726   1.823   7.035  0.00  0.00    +0.000 C 
ATOM     12  N   UNL     1      48.440   1.865   5.750  0.00  0.00    +0.000 NA
ATOM     13  C   UNL     1      47.498   2.871   5.239  0.00  0.00    +0.000 C 
ATOM     14  H   UNL     1      48.428   0.986   5.235  0.00  0.00    +0.000 HD
ENDBRANCH   9  10
ENDBRANCH   7   9
ENDBRANCH   2   3
BRANCH   2  15
ATOM     15  C   UNL     1      46.109   5.730  12.576  0.00  0.00    +0.000 C 
BRANCH  15  16
ATOM     16  O   UNL     1      46.485   6.974  13.171  0.00  0.00    +0.000 OA
BRANCH  16  17
ATOM     17  C   UNL     1      47.620   7.554  12.661  0.00  0.00    +0.000 A 
ATOM     18  C   UNL     1      48.853   6.916  12.495  0.00  0.00    +0.000 A 
ATOM     19  C   UNL     1      49.942   7.609  11.959  0.00  0.00    +0.000 A 
ATOM     20  C   UNL     1      49.812   8.947  11.574  0.00  0.00    +0.000 A 
ATOM     21  C   UNL     1      48.584   9.595  11.748  0.00  0.00    +0.000 A 
ATOM     22  C   UNL     1      47.496   8.896  12.290  0.00  0.00    +0.000 A 
BRANCH  20  23
ATOM     23  C   UNL     1      51.009   9.626  11.012  0.00  0.00    +0.000 C 
ATOM     24  N   UNL     1      50.961  10.984  10.876  0.00  0.00    +0.000 N 
ATOM     25  O   UNL     1      51.991   8.994  10.641  0.00  0.00    +0.000 OA
ATOM     26  H   UNL     1      50.100  11.506  10.933  0.00  0.00    +0.000 HD
ATOM     27  H   UNL     1      51.734  11.407  10.380  0.00  0.00    +0.000 HD
ENDBRANCH  20  23
ENDBRANCH  16  17
ENDBRANCH  15  16
ENDBRANCH   2  15
TORSDOF 7
ENDMDL
MODEL 5
REMARK VINA RESULT:    -6.281      2.904      4.645
REMARK INTER + INTRA:          -9.966
REMARK INTER:                  -9.026
REMARK INTRA:                  -0.940
REMARK UNBOUND:                -1.114
REMARK  Name = 
REMARK  8 active torsions:
REMARK  status: ('A' for Active; 'I' for Inactive)
REMARK    1  A    between atoms: C_1  and  C_2
REMARK    2  A    between atoms: C_2  and  C_3
REMARK    3  A    between atoms: C_2  and  C_14
REMARK    4  A    between atoms: C_3  and  O_4
REMARK    5  A    between atoms: O_4  and  C_5
REMARK    6  A    between atoms: C_8  and  C_9
REMARK    7  A    between atoms: C_18  and  O_19
REMARK    8  A    between atoms: O_19  and  C_20
REMARK                            x       y       z     vdW  Elec       q    Type
REMARK                         _______ _______ _______ _____ _____    ______ ____
ROOT
ATOM      1  C   UNL     1      49.259   8.462  11.885  0.00  0.00    +0.000 C 
ATOM      2  C   UNL     1      48.129   8.588  12.858  0.00  0.00    +0.000 C 
ENDROOT
BRANCH   2   3
ATOM      3  C   UNL     1      48.325   8.227  14.276  0.00  0.00    +0.000 A 
ATOM      4  C   UNL     1      48.373   9.202  15.279  0.00  0.00    +0.000 A 
ATOM      5  C   UNL     1      48.642   8.850  16.605  0.00  0.00    +0.000 A 
ATOM      6  C   UNL     1      48.858   7.515  16.952  0.00  0.00    +0.000 A 
ATOM      7  C   UNL     1      48.793   6.534  15.969  0.00  0.00    +0.000 A 
ATOM      8  C   UNL     1      48.514   6.889  14.646  0.00  0.00    +0.000 A 
BRANCH   7   9
ATOM      9  O   UNL     1      48.952   5.190  16.196  0.00  0.00    +0.000 OA
BRANCH   9  10
ATOM     10  C   UNL     1      47.779   4.347  16.259  0.00  0.00    +0.000 C 
ATOM     11  C   UNL     1      46.926   4.384  17.543  0.00  0.00    +0.000 C 
ATOM     12  N   UNL     1      47.007   2.920  17.659  0.00  0.00    +0.000 NA
ATOM     13  C   UNL     1      48.065   2.880  16.640  0.00  0.00    +0.000 C 
ATOM     14  H   UNL     1      46.154   2.430  17.391  0.00  0.00    +0.000 HD
ENDBRANCH   9  10
ENDBRANCH   7   9
ENDBRANCH   2   3
BRANCH   2  15
ATOM     15  C   UNL     1      46.725   8.524  12.317  0.00  0.00    +0.000 C 
BRANCH  15  16
ATOM     16  O   UNL     1      45.893   7.731  13.167  0.00  0.00    +0.000 OA
BRANCH  16  17
ATOM     17  C   UNL     1      45.393   6.584  12.601  0.00  0.00    +0.000 A 
ATOM     18  C   UNL     1      44.754   6.503  11.361  0.00  0.00    +0.000 A 
ATOM     19  C   UNL     1      44.289   5.275  10.883  0.00  0.00    +0.000 A 
ATOM     20  C   UNL     1      44.461   4.109  11.636  0.00  0.00    +0.000 A 
ATOM     21  C   UNL     1      45.090   4.185  12.884  0.00  0.00    +0.000 A 
ATOM     22  C   UNL     1      45.552   5.420  13.359  0.00  0.00    +0.000 A 
BRANCH  20  23
ATOM     23  C   UNL     1      43.942   2.837  11.071  0.00  0.00    +0.000 C 
ATOM     24  N   UNL     1      44.615   2.292  10.015  0.00  0.00    +0.000 N 
ATOM     25  O   UNL     1      42.922   2.310  11.501  0.00  0.00    +0.000 OA
ATOM     26  H   UNL     1      45.296   2.809   9.480  0.00  0.00    +0.000 HD
ATOM     27  H   UNL     1      44.174   1.497   9.571  0.00  0.00    +0.000 HD
ENDBRANCH  20  23
ENDBRANCH  16  17
ENDBRANCH  15  16
ENDBRANCH   2  15
TORSDOF 7
ENDMDL
MODEL 6
REMARK VINA RESULT:    -6.224      4.123      5.967
REMARK INTER + INTRA:          -9.885
REMARK INTER:                  -8.972
REMARK INTRA:                  -0.913
REMARK UNBOUND:                -1.114
REMARK  Name = 
REMARK  8 active torsions:
REMARK  status: ('A' for Active; 'I' for Inactive)
REMARK    1  A    between atoms: C_1  and  C_2
REMARK    2  A    between atoms: C_2  and  C_3
REMARK    3  A    between atoms: C_2  and  C_14
REMARK    4  A    between atoms: C_3  and  O_4
REMARK    5  A    between atoms: O_4  and  C_5
REMARK    6  A    between atoms: C_8  and  C_9
REMARK    7  A    between atoms: C_18  and  O_19
REMARK    8  A    between atoms: O_19  and  C_20
REMARK                            x       y       z     vdW  Elec       q    Type
REMARK                         _______ _______ _______ _____ _____    ______ ____
ROOT
ATOM      1  C   UNL     1      48.468   9.080  15.437  0.00  0.00    +0.000 C 
ATOM      2  C   UNL     1      49.041   7.781  14.965  0.00  0.00    +0.000 C 
ENDROOT
BRANCH   2   3
ATOM      3  C   UNL     1      49.831   6.938  15.884  0.00  0.00    +0.000 A 
ATOM      4  C   UNL     1      51.229   7.006  15.921  0.00  0.00    +0.000 A 
ATOM      5  C   UNL     1      51.965   6.143  16.738  0.00  0.00    +0.000 A 
ATOM      6  C   UNL     1      51.315   5.202  17.539  0.00  0.00    +0.000 A 
ATOM      7  C   UNL     1      49.926   5.137  17.527  0.00  0.00    +0.000 A 
ATOM      8  C   UNL     1      49.193   6.009  16.717  0.00  0.00    +0.000 A 
BRANCH   7   9
ATOM      9  O   UNL     1      49.178   4.281  18.296  0.00  0.00    +0.000 OA
BRANCH   9  10
ATOM     10  C   UNL     1      49.005   2.914  17.858  0.00  0.00    +0.000 C 
ATOM     11  C   UNL     1      50.166   2.242  17.098  0.00  0.00    +0.000 C 
ATOM     12  N   UNL     1      49.257   1.870  16.003  0.00  0.00    +0.000 NA
ATOM     13  C   UNL     1      48.218   2.761  16.539  0.00  0.00    +0.000 C 
ATOM     14  H   UNL     1      48.994   0.886  15.992  0.00  0.00    +0.000 HD
ENDBRANCH   9  10
ENDBRANCH   7   9
ENDBRANCH   2   3
BRANCH   2  15
ATOM     15  C   UNL     1      49.297   7.621  13.489  0.00  0.00    +0.000 C 
BRANCH  15  16
ATOM     16  O   UNL     1      48.879   6.328  13.042  0.00  0.00    +0.000 OA
BRANCH  16  17
ATOM     17  C   UNL     1      47.521   6.148  12.947  0.00  0.00    +0.000 A 
ATOM     18  C   UNL     1      46.645   6.953  12.215  0.00  0.00    +0.000 A 
ATOM     19  C   UNL     1      45.277   6.669  12.189  0.00  0.00    +0.000 A 
ATOM     20  C   UNL     1      44.766   5.571  12.889  0.00  0.00    +0.000 A 
ATOM     21  C   UNL     1      45.637   4.767  13.633  0.00  0.00    +0.000 A 
ATOM     22  C   UNL     1      47.008   5.058  13.658  0.00  0.00    +0.000 A 
BRANCH  20  23
ATOM     23  C   UNL     1      43.302   5.325  12.819  0.00  0.00    +0.000 C 
ATOM     24  N   UNL     1      42.569   6.107  11.973  0.00  0.00    +0.000 N 
ATOM     25  O   UNL     1      42.758   4.484  13.524  0.00  0.00    +0.000 OA
ATOM     26  H   UNL     1      42.930   6.959  11.571  0.00  0.00    +0.000 HD
ATOM     27  H   UNL     1      41.565   6.005  12.035  0.00  0.00    +0.000 HD
ENDBRANCH  20  23
ENDBRANCH  16  17
ENDBRANCH  15  16
ENDBRANCH   2  15
TORSDOF 7
ENDMDL
MODEL 7
REMARK VINA RESULT:    -6.022      2.049      8.818
REMARK INTER + INTRA:          -9.601
REMARK INTER:                  -8.984
REMARK INTRA:                  -0.617
REMARK UNBOUND:                -1.114
REMARK  Name = 
REMARK  8 active torsions:
REMARK  status: ('A' for Active; 'I' for Inactive)
REMARK    1  A    between atoms: C_1  and  C_2
REMARK    2  A    between atoms: C_2  and  C_3
REMARK    3  A    between atoms: C_2  and  C_14
REMARK    4  A    between atoms: C_3  and  O_4
REMARK    5  A    between atoms: O_4  and  C_5
REMARK    6  A    between atoms: C_8  and  C_9
REMARK    7  A    between atoms: C_18  and  O_19
REMARK    8  A    between atoms: O_19  and  C_20
REMARK                            x       y       z     vdW  Elec       q    Type
REMARK                         _______ _______ _______ _____ _____    ______ ____
ROOT
ATOM      1  C   UNL     1      47.001   6.858  13.199  0.00  0.00    +0.000 C 
ATOM      2  C   UNL     1      46.420   5.481  13.114  0.00  0.00    +0.000 C 
ENDROOT
BRANCH   2   3
ATOM      3  C   UNL     1      45.439   5.151  12.060  0.00  0.00    +0.000 A 
ATOM      4  C   UNL     1      44.113   4.829  12.371  0.00  0.00    +0.000 A 
ATOM      5  C   UNL     1      43.220   4.439  11.368  0.00  0.00    +0.000 A 
ATOM      6  C   UNL     1      43.636   4.373  10.037  0.00  0.00    +0.000 A 
ATOM      7  C   UNL     1      44.945   4.710   9.712  0.00  0.00    +0.000 A 
ATOM      8  C   UNL     1      45.832   5.109  10.716  0.00  0.00    +0.000 A 
BRANCH   7   9
ATOM      9  O   UNL     1      45.456   4.718   8.439  0.00  0.00    +0.000 OA
BRANCH   9  10
ATOM     10  C   UNL     1      45.483   3.483   7.687  0.00  0.00    +0.000 C 
ATOM     11  C   UNL     1      45.863   2.187   8.430  0.00  0.00    +0.000 C 
ATOM     12  N   UNL     1      46.896   1.893   7.426  0.00  0.00    +0.000 NA
ATOM     13  C   UNL     1      46.778   3.254   6.881  0.00  0.00    +0.000 C 
ATOM     14  H   UNL     1      46.643   1.159   6.766  0.00  0.00    +0.000 HD
ENDBRANCH   9  10
ENDBRANCH   7   9
ENDBRANCH   2   3
BRANCH   2  15
ATOM     15  C   UNL     1      46.387   4.654  14.372  0.00  0.00    +0.000 C 
BRANCH  15  16
ATOM     16  O   UNL     1      47.712   4.301  14.778  0.00  0.00    +0.000 OA
BRANCH  16  17
ATOM     17  C   UNL     1      47.950   4.359  16.129  0.00  0.00    +0.000 A 
ATOM     18  C   UNL     1      47.732   3.318  17.037  0.00  0.00    +0.000 A 
ATOM     19  C   UNL     1      48.016   3.491  18.394  0.00  0.00    +0.000 A 
ATOM     20  C   UNL     1      48.527   4.706  18.863  0.00  0.00    +0.000 A 
ATOM     21  C   UNL     1      48.737   5.755  17.961  0.00  0.00    +0.000 A 
ATOM     22  C   UNL     1      48.447   5.577  16.602  0.00  0.00    +0.000 A 
BRANCH  20  23
ATOM     23  C   UNL     1      48.807   4.824  20.318  0.00  0.00    +0.000 C 
ATOM     24  N   UNL     1      50.020   4.388  20.766  0.00  0.00    +0.000 N 
ATOM     25  O   UNL     1      47.968   5.255  21.100  0.00  0.00    +0.000 OA
ATOM     26  H   UNL     1      50.630   3.808  20.209  0.00  0.00    +0.000 HD
ATOM     27  H   UNL     1      50.139   4.365  21.771  0.00  0.00    +0.000 HD
ENDBRANCH  20  23
ENDBRANCH  16  17
ENDBRANCH  15  16
ENDBRANCH   2  15
TORSDOF 7
ENDMDL
MODEL 8
REMARK VINA RESULT:    -5.888      3.758      8.187
REMARK INTER + INTRA:          -9.411
REMARK INTER:                  -8.512
REMARK INTRA:                  -0.899
REMARK UNBOUND:                -1.114
REMARK  Name = 
REMARK  8 active torsions:
REMARK  status: ('A' for Active; 'I' for Inactive)
REMARK    1  A    between atoms: C_1  and  C_2
REMARK    2  A    between atoms: C_2  and  C_3
REMARK    3  A    between atoms: C_2  and  C_14
REMARK    4  A    between atoms: C_3  and  O_4
REMARK    5  A    between atoms: O_4  and  C_5
REMARK    6  A    between atoms: C_8  and  C_9
REMARK    7  A    between atoms: C_18  and  O_19
REMARK    8  A    between atoms: O_19  and  C_20
REMARK                            x       y       z     vdW  Elec       q    Type
REMARK                         _______ _______ _______ _____ _____    ______ ____
ROOT
ATOM      1  C   UNL     1      49.880   7.911  15.790  0.00  0.00    +0.000 C 
ATOM      2  C   UNL     1      49.032   6.781  15.299  0.00  0.00    +0.000 C 
ENDROOT
BRANCH   2   3
ATOM      3  C   UNL     1      48.435   6.830  13.949  0.00  0.00    +0.000 A 
ATOM      4  C   UNL     1      49.103   7.431  12.876  0.00  0.00    +0.000 A 
ATOM      5  C   UNL     1      48.489   7.542  11.625  0.00  0.00    +0.000 A 
ATOM      6  C   UNL     1      47.200   7.045  11.423  0.00  0.00    +0.000 A 
ATOM      7  C   UNL     1      46.533   6.428  12.475  0.00  0.00    +0.000 A 
ATOM      8  C   UNL     1      47.154   6.310  13.722  0.00  0.00    +0.000 A 
BRANCH   7   9
ATOM      9  O   UNL     1      45.282   5.871  12.387  0.00  0.00    +0.000 OA
BRANCH   9  10
ATOM     10  C   UNL     1      45.018   4.628  13.077  0.00  0.00    +0.000 C 
ATOM     11  C   UNL     1      45.472   3.315  12.409  0.00  0.00    +0.000 C 
ATOM     12  N   UNL     1      44.118   2.757  12.546  0.00  0.00    +0.000 NA
ATOM     13  C   UNL     1      43.587   4.084  12.889  0.00  0.00    +0.000 C 
ATOM     14  H   UNL     1      44.023   2.067  13.290  0.00  0.00    +0.000 HD
ENDBRANCH   9  10
ENDBRANCH   7   9
ENDBRANCH   2   3
BRANCH   2  15
ATOM     15  C   UNL     1      48.345   5.920  16.326  0.00  0.00    +0.000 C 
BRANCH  15  16
ATOM     16  O   UNL     1      49.171   5.760  17.483  0.00  0.00    +0.000 OA
BRANCH  16  17
ATOM     17  C   UNL     1      49.898   4.597  17.533  0.00  0.00    +0.000 A 
ATOM     18  C   UNL     1      49.372   3.306  17.433  0.00  0.00    +0.000 A 
ATOM     19  C   UNL     1      50.213   2.192  17.494  0.00  0.00    +0.000 A 
ATOM     20  C   UNL     1      51.593   2.352  17.649  0.00  0.00    +0.000 A 
ATOM     21  C   UNL     1      52.125   3.641  17.761  0.00  0.00    +0.000 A 
ATOM     22  C   UNL     1      51.277   4.755  17.703  0.00  0.00    +0.000 A 
BRANCH  20  23
ATOM     23  C   UNL     1      52.431   1.125  17.707  0.00  0.00    +0.000 C 
ATOM     24  N   UNL     1      51.842  -0.022  18.156  0.00  0.00    +0.000 N 
ATOM     25  O   UNL     1      53.619   1.144  17.406  0.00  0.00    +0.000 OA
ATOM     26  H   UNL     1      50.957  -0.025  18.639  0.00  0.00    +0.000 HD
ATOM     27  H   UNL     1      52.460  -0.809  18.302  0.00  0.00    +0.000 HD
ENDBRANCH  20  23
ENDBRANCH  16  17
ENDBRANCH  15  16
ENDBRANCH   2  15
TORSDOF 7
ENDMDL
MODEL 9
REMARK VINA RESULT:    -5.875      3.031      5.231
REMARK INTER + INTRA:          -9.394
REMARK INTER:                  -8.267
REMARK INTRA:                  -1.127
REMARK UNBOUND:                -1.114
REMARK  Name = 
REMARK  8 active torsions:
REMARK  status: ('A' for Active; 'I' for Inactive)
REMARK    1  A    between atoms: C_1  and  C_2
REMARK    2  A    between atoms: C_2  and  C_3
REMARK    3  A    between atoms: C_2  and  C_14
REMARK    4  A    between atoms: C_3  and  O_4
REMARK    5  A    between atoms: O_4  and  C_5
REMARK    6  A    between atoms: C_8  and  C_9
REMARK    7  A    between atoms: C_18  and  O_19
REMARK    8  A    between atoms: O_19  and  C_20
REMARK                            x       y       z     vdW  Elec       q    Type
REMARK                         _______ _______ _______ _____ _____    ______ ____
ROOT
ATOM      1  C   UNL     1      49.190  10.079  13.324  0.00  0.00    +0.000 C 
ATOM      2  C   UNL     1      48.641   9.021  14.228  0.00  0.00    +0.000 C 
ENDROOT
BRANCH   2   3
ATOM      3  C   UNL     1      49.548   8.229  15.083  0.00  0.00    +0.000 A 
ATOM      4  C   UNL     1      50.840   8.673  15.387  0.00  0.00    +0.000 A 
ATOM      5  C   UNL     1      51.714   7.872  16.129  0.00  0.00    +0.000 A 
ATOM      6  C   UNL     1      51.307   6.617  16.586  0.00  0.00    +0.000 A 
ATOM      7  C   UNL     1      50.020   6.172  16.307  0.00  0.00    +0.000 A 
ATOM      8  C   UNL     1      49.146   6.980  15.574  0.00  0.00    +0.000 A 
BRANCH   7   9
ATOM      9  O   UNL     1      49.498   4.977  16.733  0.00  0.00    +0.000 OA
BRANCH   9  10
ATOM     10  C   UNL     1      48.077   4.745  16.599  0.00  0.00    +0.000 C 
ATOM     11  C   UNL     1      47.228   4.673  17.884  0.00  0.00    +0.000 C 
ATOM     12  N   UNL     1      46.672   3.377  17.464  0.00  0.00    +0.000 NA
ATOM     13  C   UNL     1      47.686   3.265  16.406  0.00  0.00    +0.000 C 
ATOM     14  H   UNL     1      45.715   3.424  17.119  0.00  0.00    +0.000 HD
ENDBRANCH   9  10
ENDBRANCH   7   9
ENDBRANCH   2   3
BRANCH   2  15
ATOM     15  C   UNL     1      47.319   8.399  13.861  0.00  0.00    +0.000 C 
BRANCH  15  16
ATOM     16  O   UNL     1      47.401   7.758  12.586  0.00  0.00    +0.000 OA
BRANCH  16  17
ATOM     17  C   UNL     1      46.669   6.603  12.458  0.00  0.00    +0.000 A 
ATOM     18  C   UNL     1      46.370   5.714  13.494  0.00  0.00    +0.000 A 
ATOM     19  C   UNL     1      45.611   4.567  13.245  0.00  0.00    +0.000 A 
ATOM     20  C   UNL     1      45.134   4.297  11.958  0.00  0.00    +0.000 A 
ATOM     21  C   UNL     1      45.440   5.178  10.915  0.00  0.00    +0.000 A 
ATOM     22  C   UNL     1      46.204   6.324  11.169  0.00  0.00    +0.000 A 
BRANCH  20  23
ATOM     23  C   UNL     1      44.333   3.061  11.762  0.00  0.00    +0.000 C 
ATOM     24  N   UNL     1      44.341   2.493  10.520  0.00  0.00    +0.000 N 
ATOM     25  O   UNL     1      43.652   2.585  12.664  0.00  0.00    +0.000 OA
ATOM     26  H   UNL     1      44.677   2.978   9.703  0.00  0.00    +0.000 HD
ATOM     27  H   UNL     1      43.694   1.727  10.380  0.00  0.00    +0.000 HD
ENDBRANCH  20  23
ENDBRANCH  16  17
ENDBRANCH  15  16
ENDBRANCH   2  15
TORSDOF 7
ENDMDL
