MODEL 1
REMARK VINA RESULT:    -7.827      0.000      0.000
REMARK INTER + INTRA:         -10.986
REMARK INTER:                 -10.344
REMARK INTRA:                  -0.642
REMARK UNBOUND:                -0.642
REMARK  Name = 
REMARK  6 active torsions:
REMARK  status: ('A' for Active; 'I' for Inactive)
REMARK    1  A    between atoms: N_1  and  C_2
REMARK    2  A    between atoms: C_2  and  C_3
REMARK    3  A    between atoms: C_7  and  C_8
REMARK    4  A    between atoms: C_8  and  C_9
REMARK    5  A    between atoms: C_9  and  N_10
REMARK    6  A    between atoms: C_14  and  C_15
REMARK                            x       y       z     vdW  Elec       q    Type
REMARK                         _______ _______ _______ _____ _____    ______ ____
ROOT
ATOM      1  N   UNL     1      43.604   3.581  10.605  0.00  0.00    +0.000 N 
ATOM      2  C   UNL     1      44.525   3.283   9.578  0.00  0.00    +0.000 A 
ATOM      3  C   UNL     1      44.947   1.969   9.397  0.00  0.00    +0.000 A 
ATOM      4  C   UNL     1      45.876   1.677   8.391  0.00  0.00    +0.000 A 
ATOM      5  C   UNL     1      46.367   2.702   7.582  0.00  0.00    +0.000 A 
ATOM      6  C   UNL     1      45.899   3.976   7.835  0.00  0.00    +0.000 A 
ATOM      7  N   UNL     1      45.007   4.279   8.806  0.00  0.00    +0.000 NA
ATOM      8  H   UNL     1      42.782   2.997  10.475  0.00  0.00    +0.000 HD
ENDROOT
BRANCH   5   9
ATOM      9  C   UNL     1      47.348   2.397   6.512  0.00  0.00    +0.000 C 
ATOM     10  N   UNL     1      47.382   3.188   5.394  0.00  0.00    +0.000 N 
ATOM     11  O   UNL     1      48.119   1.450   6.615  0.00  0.00    +0.000 OA
ATOM     12  H   UNL     1      46.804   3.991   5.208  0.00  0.00    +0.000 HD
ATOM     13  H   UNL     1      48.071   2.942   4.692  0.00  0.00    +0.000 HD
ENDBRANCH   5   9
BRANCH   1  14
ATOM     14  C   UNL     1      43.274   5.013  10.653  0.00  0.00    +0.000 C 
BRANCH  14  15
ATOM     15  C   UNL     1      43.387   5.577  12.073  0.00  0.00    +0.000 C 
BRANCH  15  20
ATOM     16  C   UNL     1      46.692   5.117  13.958  0.00  0.00    +0.000 A 
ATOM     17  C   UNL     1      47.564   5.845  13.136  0.00  0.00    +0.000 A 
ATOM     18  C   UNL     1      47.086   6.516  12.012  0.00  0.00    +0.000 A 
ATOM     19  C   UNL     1      45.732   6.454  11.682  0.00  0.00    +0.000 A 
ATOM     20  C   UNL     1      44.840   5.722  12.478  0.00  0.00    +0.000 A 
ATOM     21  C   UNL     1      45.330   5.062  13.617  0.00  0.00    +0.000 A 
BRANCH  16  22
ATOM     22  C   UNL     1      47.223   4.379  15.161  0.00  0.00    +0.000 C 
BRANCH  22  23
ATOM     23  N   UNL     1      47.672   3.034  14.816  0.00  0.00    +0.000 NA
ATOM     24  H   UNL     1      47.306   2.784  13.901  0.00  0.00    +0.000 HD
ATOM     25  H   UNL     1      47.268   2.376  15.482  0.00  0.00    +0.000 HD
ENDBRANCH  22  23
ENDBRANCH  16  22
ENDBRANCH  15  20
ENDBRANCH  14  15
ENDBRANCH   1  14
TORSDOF 6
ENDMDL
MODEL 2
REMARK VINA RESULT:    -7.660      1.758      2.362
REMARK INTER + INTRA:         -10.765
REMARK INTER:                 -10.295
REMARK INTRA:                  -0.470
REMARK UNBOUND:                -0.642
REMARK  Name = 
REMARK  6 active torsions:
REMARK  status: ('A' for Active; 'I' for Inactive)
REMARK    1  A    between atoms: N_1  and  C_2
REMARK    2  A    between atoms: C_2  and  C_3
REMARK    3  A    between atoms: C_7  and  C_8
REMARK    4  A    between atoms: C_8  and  C_9
REMARK    5  A    between atoms: C_9  and  N_10
REMARK    6  A    between atoms: C_14  and  C_15
REMARK                            x       y       z     vdW  Elec       q    Type
REMARK                         _______ _______ _______ _____ _____    ______ ____
ROOT
ATOM      1  N   UNL     1      43.985   4.978  10.024  0.00  0.00    +0.000 N 
ATOM      2  C   UNL     1      44.810   4.092   9.299  0.00  0.00    +0.000 A 
ATOM      3  C   UNL     1      45.638   4.592   8.298  0.00  0.00    +0.000 A 
ATOM      4  C   UNL     1      46.442   3.710   7.565  0.00  0.00    +0.000 A 
ATOM      5  C   UNL     1      46.406   2.344   7.845  0.00  0.00    +0.000 A 
ATOM      6  C   UNL     1      45.552   1.935   8.849  0.00  0.00    +0.000 A 
ATOM      7  N   UNL     1      44.763   2.771   9.564  0.00  0.00    +0.000 NA
ATOM      8  H   UNL     1      44.574   5.702  10.429  0.00  0.00    +0.000 HD
ENDROOT
BRANCH   5   9
ATOM      9  C   UNL     1      47.259   1.407   7.075  0.00  0.00    +0.000 C 
ATOM     10  N   UNL     1      48.309   1.903   6.348  0.00  0.00    +0.000 N 
ATOM     11  O   UNL     1      47.032   0.202   7.078  0.00  0.00    +0.000 OA
ATOM     12  H   UNL     1      48.589   2.867   6.280  0.00  0.00    +0.000 HD
ATOM     13  H   UNL     1      48.864   1.223   5.841  0.00  0.00    +0.000 HD
ENDBRANCH   5   9
BRANCH   1  14
ATOM     14  C   UNL     1      43.178   4.280  11.035  0.00  0.00    +0.000 C 
BRANCH  14  15
ATOM     15  C   UNL     1      43.331   4.910  12.423  0.00  0.00    +0.000 C 
BRANCH  15  20
ATOM     16  C   UNL     1      46.661   6.706  13.036  0.00  0.00    +0.000 A 
ATOM     17  C   UNL     1      47.450   5.643  13.496  0.00  0.00    +0.000 A 
ATOM     18  C   UNL     1      46.930   4.351  13.565  0.00  0.00    +0.000 A 
ATOM     19  C   UNL     1      45.608   4.107  13.192  0.00  0.00    +0.000 A 
ATOM     20  C   UNL     1      44.792   5.154  12.742  0.00  0.00    +0.000 A 
ATOM     21  C   UNL     1      45.331   6.450  12.662  0.00  0.00    +0.000 A 
BRANCH  16  22
ATOM     22  C   UNL     1      47.227   8.103  12.984  0.00  0.00    +0.000 C 
BRANCH  22  23
ATOM     23  N   UNL     1      46.637   8.965  14.003  0.00  0.00    +0.000 NA
ATOM     24  H   UNL     1      47.171   8.878  14.864  0.00  0.00    +0.000 HD
ATOM     25  H   UNL     1      45.697   8.628  14.209  0.00  0.00    +0.000 HD
ENDBRANCH  22  23
ENDBRANCH  16  22
ENDBRANCH  15  20
ENDBRANCH  14  15
ENDBRANCH   1  14
TORSDOF 6
ENDMDL
MODEL 3
REMARK VINA RESULT:    -7.267      1.861      2.476
REMARK INTER + INTRA:         -10.245
REMARK INTER:                  -9.772
REMARK INTRA:                  -0.473
REMARK UNBOUND:                -0.642
REMARK  Name = 
REMARK  6 active torsions:
REMARK  status: ('A' for Active; 'I' for Inactive)
REMARK    1  A    between atoms: N_1  and  C_2
REMARK    2  A    between atoms: C_2  and  C_3
REMARK    3  A    between atoms: C_7  and  C_8
REMARK    4  A    between atoms: C_8  and  C_9
REMARK    5  A    between atoms: C_9  and  N_10
REMARK    6  A    between atoms: C_14  and  C_15
REMARK                            x       y       z     vdW  Elec       q    Type
REMARK                         _______ _______ _______ _____ _____    ______ ____
ROOT
ATOM      1  N   UNL     1      43.712   3.000  10.760  0.00  0.00    +0.000 N 
ATOM      2  C   UNL     1      44.580   2.945   9.649  0.00  0.00    +0.000 A 
ATOM      3  C   UNL     1      45.037   1.711   9.197  0.00  0.00    +0.000 A 
ATOM      4  C   UNL     1      45.914   1.659   8.107  0.00  0.00    +0.000 A 
ATOM      5  C   UNL     1      46.318   2.840   7.485  0.00  0.00    +0.000 A 
ATOM      6  C   UNL     1      45.821   4.019   8.002  0.00  0.00    +0.000 A 
ATOM      7  N   UNL     1      44.978   4.091   9.059  0.00  0.00    +0.000 NA
ATOM      8  H   UNL     1      42.905   2.413  10.564  0.00  0.00    +0.000 HD
ENDROOT
BRANCH   5   9
ATOM      9  C   UNL     1      47.243   2.790   6.327  0.00  0.00    +0.000 C 
ATOM     10  N   UNL     1      48.558   2.466   6.536  0.00  0.00    +0.000 N 
ATOM     11  O   UNL     1      46.847   3.038   5.193  0.00  0.00    +0.000 OA
ATOM     12  H   UNL     1      48.987   2.238   7.418  0.00  0.00    +0.000 HD
ATOM     13  H   UNL     1      49.150   2.442   5.714  0.00  0.00    +0.000 HD
ENDBRANCH   5   9
BRANCH   1  14
ATOM     14  C   UNL     1      43.334   4.379  11.100  0.00  0.00    +0.000 C 
BRANCH  14  15
ATOM     15  C   UNL     1      43.530   4.675  12.591  0.00  0.00    +0.000 C 
BRANCH  15  20
ATOM     16  C   UNL     1      46.014   7.584  12.828  0.00  0.00    +0.000 A 
ATOM     17  C   UNL     1      47.120   6.937  13.397  0.00  0.00    +0.000 A 
ATOM     18  C   UNL     1      47.084   5.568  13.660  0.00  0.00    +0.000 A 
ATOM     19  C   UNL     1      45.935   4.830  13.374  0.00  0.00    +0.000 A 
ATOM     20  C   UNL     1      44.810   5.454  12.818  0.00  0.00    +0.000 A 
ATOM     21  C   UNL     1      44.862   6.831  12.544  0.00  0.00    +0.000 A 
BRANCH  16  22
ATOM     22  C   UNL     1      46.056   9.068  12.567  0.00  0.00    +0.000 C 
BRANCH  22  23
ATOM     23  N   UNL     1      44.739   9.681  12.709  0.00  0.00    +0.000 NA
ATOM     24  H   UNL     1      44.136   9.058  13.241  0.00  0.00    +0.000 HD
ATOM     25  H   UNL     1      44.320   9.771  11.784  0.00  0.00    +0.000 HD
ENDBRANCH  22  23
ENDBRANCH  16  22
ENDBRANCH  15  20
ENDBRANCH  14  15
ENDBRANCH   1  14
TORSDOF 6
ENDMDL
MODEL 4
REMARK VINA RESULT:    -6.659      3.046      7.058
REMARK INTER + INTRA:          -9.442
REMARK INTER:                  -9.079
REMARK INTRA:                  -0.363
REMARK UNBOUND:                -0.642
REMARK  Name = 
REMARK  6 active torsions:
REMARK  status: ('A' for Active; 'I' for Inactive)
REMARK    1  A    between atoms: N_1  and  C_2
REMARK    2  A    between atoms: C_2  and  C_3
REMARK    3  A    between atoms: C_7  and  C_8
REMARK    4  A    between atoms: C_8  and  C_9
REMARK    5  A    between atoms: C_9  and  N_10
REMARK    6  A    between atoms: C_14  and  C_15
REMARK                            x       y       z     vdW  Elec       q    Type
REMARK                         _______ _______ _______ _____ _____    ______ ____
ROOT
ATOM      1  N   UNL     1      45.671   6.049  10.516  0.00  0.00    +0.000 N 
ATOM      2  C   UNL     1      46.498   6.247  11.642  0.00  0.00    +0.000 A 
ATOM      3  C   UNL     1      47.320   7.369  11.700  0.00  0.00    +0.000 A 
ATOM      4  C   UNL     1      48.155   7.554  12.809  0.00  0.00    +0.000 A 
ATOM      5  C   UNL     1      48.154   6.617  13.842  0.00  0.00    +0.000 A 
ATOM      6  C   UNL     1      47.313   5.532  13.699  0.00  0.00    +0.000 A 
ATOM      7  N   UNL     1      46.504   5.332  12.633  0.00  0.00    +0.000 NA
ATOM      8  H   UNL     1      45.091   6.876  10.397  0.00  0.00    +0.000 HD
ENDROOT
BRANCH   5   9
ATOM      9  C   UNL     1      49.033   6.811  15.020  0.00  0.00    +0.000 C 
ATOM     10  N   UNL     1      50.338   7.180  14.826  0.00  0.00    +0.000 N 
ATOM     11  O   UNL     1      48.608   6.643  16.158  0.00  0.00    +0.000 OA
ATOM     12  H   UNL     1      50.788   7.351  13.942  0.00  0.00    +0.000 HD
ATOM     13  H   UNL     1      50.898   7.303  15.662  0.00  0.00    +0.000 HD
ENDBRANCH   5   9
BRANCH   1  14
ATOM     14  C   UNL     1      44.878   4.817  10.622  0.00  0.00    +0.000 C 
BRANCH  14  15
ATOM     15  C   UNL     1      44.246   4.426   9.282  0.00  0.00    +0.000 C 
BRANCH  15  20
ATOM     16  C   UNL     1      46.734   2.634   6.983  0.00  0.00    +0.000 A 
ATOM     17  C   UNL     1      46.656   1.326   7.484  0.00  0.00    +0.000 A 
ATOM     18  C   UNL     1      45.779   1.014   8.521  0.00  0.00    +0.000 A 
ATOM     19  C   UNL     1      44.978   2.009   9.084  0.00  0.00    +0.000 A 
ATOM     20  C   UNL     1      45.046   3.327   8.613  0.00  0.00    +0.000 A 
ATOM     21  C   UNL     1      45.923   3.627   7.557  0.00  0.00    +0.000 A 
BRANCH  16  22
ATOM     22  C   UNL     1      47.701   2.965   5.875  0.00  0.00    +0.000 C 
BRANCH  22  23
ATOM     23  N   UNL     1      48.547   1.824   5.535  0.00  0.00    +0.000 NA
ATOM     24  H   UNL     1      48.428   1.602   4.550  0.00  0.00    +0.000 HD
ATOM     25  H   UNL     1      48.221   1.012   6.058  0.00  0.00    +0.000 HD
ENDBRANCH  22  23
ENDBRANCH  16  22
ENDBRANCH  15  20
ENDBRANCH  14  15
ENDBRANCH   1  14
TORSDOF 6
ENDMDL
MODEL 5
REMARK VINA RESULT:    -6.600      2.885      6.974
REMARK INTER + INTRA:          -9.364
REMARK INTER:                  -9.627
REMARK INTRA:                   0.263
REMARK UNBOUND:                -0.642
REMARK  Name = 
REMARK  6 active torsions:
REMARK  status: ('A' for Active; 'I' for Inactive)
REMARK    1  A    between atoms: N_1  and  C_2
REMARK    2  A    between atoms: C_2  and  C_3
REMARK    3  A    between atoms: C_7  and  C_8
REMARK    4  A    between atoms: C_8  and  C_9
REMARK    5  A    between atoms: C_9  and  N_10
REMARK    6  A    between atoms: C_14  and  C_15
REMARK                            x       y       z     vdW  Elec       q    Type
REMARK                         _______ _______ _______ _____ _____    ______ ____
ROOT
ATOM      1  N   UNL     1      45.342   4.527  11.787  0.00  0.00    +0.000 N 
ATOM      2  C   UNL     1      46.135   4.820  12.918  0.00  0.00    +0.000 A 
ATOM      3  C   UNL     1      46.872   6.000  12.950  0.00  0.00    +0.000 A 
ATOM      4  C   UNL     1      47.674   6.281  14.063  0.00  0.00    +0.000 A 
ATOM      5  C   UNL     1      47.724   5.379  15.126  0.00  0.00    +0.000 A 
ATOM      6  C   UNL     1      46.966   4.232  15.008  0.00  0.00    +0.000 A 
ATOM      7  N   UNL     1      46.191   3.939  13.938  0.00  0.00    +0.000 NA
ATOM      8  H   UNL     1      44.706   5.305  11.634  0.00  0.00    +0.000 HD
ENDROOT
BRANCH   5   9
ATOM      9  C   UNL     1      48.568   5.674  16.310  0.00  0.00    +0.000 C 
ATOM     10  N   UNL     1      48.105   6.548  17.258  0.00  0.00    +0.000 N 
ATOM     11  O   UNL     1      49.669   5.151  16.445  0.00  0.00    +0.000 OA
ATOM     12  H   UNL     1      47.220   7.026  17.252  0.00  0.00    +0.000 HD
ATOM     13  H   UNL     1      48.716   6.715  18.049  0.00  0.00    +0.000 HD
ENDBRANCH   5   9
BRANCH   1  14
ATOM     14  C   UNL     1      44.638   3.244  11.923  0.00  0.00    +0.000 C 
BRANCH  14  15
ATOM     15  C   UNL     1      44.070   2.760  10.585  0.00  0.00    +0.000 C 
BRANCH  15  20
ATOM     16  C   UNL     1      46.506   2.287   7.664  0.00  0.00    +0.000 A 
ATOM     17  C   UNL     1      46.674   3.615   7.247  0.00  0.00    +0.000 A 
ATOM     18  C   UNL     1      46.046   4.657   7.927  0.00  0.00    +0.000 A 
ATOM     19  C   UNL     1      45.227   4.385   9.024  0.00  0.00    +0.000 A 
ATOM     20  C   UNL     1      45.030   3.066   9.453  0.00  0.00    +0.000 A 
ATOM     21  C   UNL     1      45.679   2.024   8.769  0.00  0.00    +0.000 A 
BRANCH  16  22
ATOM     22  C   UNL     1      47.173   1.165   6.909  0.00  0.00    +0.000 C 
BRANCH  22  23
ATOM     23  N   UNL     1      48.377   1.618   6.219  0.00  0.00    +0.000 NA
ATOM     24  H   UNL     1      48.234   2.569   5.888  0.00  0.00    +0.000 HD
ATOM     25  H   UNL     1      48.514   1.038   5.391  0.00  0.00    +0.000 HD
ENDBRANCH  22  23
ENDBRANCH  16  22
ENDBRANCH  15  20
ENDBRANCH  14  15
ENDBRANCH   1  14
TORSDOF 6
ENDMDL
MODEL 6
REMARK VINA RESULT:    -6.421      3.481      5.889
REMARK INTER + INTRA:          -9.128
REMARK INTER:                  -8.807
REMARK INTRA:                  -0.321
REMARK UNBOUND:                -0.642
REMARK  Name = 
REMARK  6 active torsions:
REMARK  status: ('A' for Active; 'I' for Inactive)
REMARK    1  A    between atoms: N_1  and  C_2
REMARK    2  A    between atoms: C_2  and  C_3
REMARK    3  A    between atoms: C_7  and  C_8
REMARK    4  A    between atoms: C_8  and  C_9
REMARK    5  A    between atoms: C_9  and  N_10
REMARK    6  A    between atoms: C_14  and  C_15
REMARK                            x       y       z     vdW  Elec       q    Type
REMARK                         _______ _______ _______ _____ _____    ______ ____
ROOT
ATOM      1  N   UNL     1      46.949   5.022  14.958  0.00  0.00    +0.000 N 
ATOM      2  C   UNL     1      46.279   4.703  13.757  0.00  0.00    +0.000 A 
ATOM      3  C   UNL     1      45.782   5.728  12.957  0.00  0.00    +0.000 A 
ATOM      4  C   UNL     1      45.101   5.410  11.776  0.00  0.00    +0.000 A 
ATOM      5  C   UNL     1      44.928   4.074  11.413  0.00  0.00    +0.000 A 
ATOM      6  C   UNL     1      45.447   3.123  12.269  0.00  0.00    +0.000 A 
ATOM      7  N   UNL     1      46.103   3.410  13.417  0.00  0.00    +0.000 NA
ATOM      8  H   UNL     1      47.714   5.655  14.737  0.00  0.00    +0.000 HD
ENDROOT
BRANCH   5   9
ATOM      9  C   UNL     1      44.210   3.732  10.161  0.00  0.00    +0.000 C 
ATOM     10  N   UNL     1      43.905   4.730   9.274  0.00  0.00    +0.000 N 
ATOM     11  O   UNL     1      43.887   2.575   9.916  0.00  0.00    +0.000 OA
ATOM     12  H   UNL     1      44.127   5.707   9.369  0.00  0.00    +0.000 HD
ATOM     13  H   UNL     1      43.417   4.446   8.431  0.00  0.00    +0.000 HD
ENDBRANCH   5   9
BRANCH   1  14
ATOM     14  C   UNL     1      47.401   3.822  15.675  0.00  0.00    +0.000 C 
BRANCH  14  15
ATOM     15  C   UNL     1      47.686   4.112  17.152  0.00  0.00    +0.000 C 
BRANCH  15  20
ATOM     16  C   UNL     1      51.225   2.690  17.524  0.00  0.00    +0.000 A 
ATOM     17  C   UNL     1      51.947   3.858  17.805  0.00  0.00    +0.000 A 
ATOM     18  C   UNL     1      51.296   5.085  17.920  0.00  0.00    +0.000 A 
ATOM     19  C   UNL     1      49.914   5.165  17.737  0.00  0.00    +0.000 A 
ATOM     20  C   UNL     1      49.170   4.015  17.441  0.00  0.00    +0.000 A 
ATOM     21  C   UNL     1      49.835   2.781  17.342  0.00  0.00    +0.000 A 
BRANCH  16  22
ATOM     22  C   UNL     1      51.942   1.371  17.383  0.00  0.00    +0.000 C 
BRANCH  22  23
ATOM     23  N   UNL     1      51.303   0.320  18.169  0.00  0.00    +0.000 NA
ATOM     24  H   UNL     1      50.423   0.669  18.540  0.00  0.00    +0.000 HD
ATOM     25  H   UNL     1      51.895   0.109  18.972  0.00  0.00    +0.000 HD
ENDBRANCH  22  23
ENDBRANCH  16  22
ENDBRANCH  15  20
ENDBRANCH  14  15
ENDBRANCH   1  14
TORSDOF 6
ENDMDL
MODEL 7
REMARK VINA RESULT:    -6.063      3.146      7.311
REMARK INTER + INTRA:          -8.655
REMARK INTER:                  -8.277
REMARK INTRA:                  -0.378
REMARK UNBOUND:                -0.642
REMARK  Name = 
REMARK  6 active torsions:
REMARK  status: ('A' for Active; 'I' for Inactive)
REMARK    1  A    between atoms: N_1  and  C_2
REMARK    2  A    between atoms: C_2  and  C_3
REMARK    3  A    between atoms: C_7  and  C_8
REMARK    4  A    between atoms: C_8  and  C_9
REMARK    5  A    between atoms: C_9  and  N_10
REMARK    6  A    between atoms: C_14  and  C_15
REMARK                            x       y       z     vdW  Elec       q    Type
REMARK                         _______ _______ _______ _____ _____    ______ ____
ROOT
ATOM      1  N   UNL     1      48.335   7.195  13.343  0.00  0.00    +0.000 N 
ATOM      2  C   UNL     1      48.108   6.289  14.401  0.00  0.00    +0.000 A 
ATOM      3  C   UNL     1      48.668   6.540  15.650  0.00  0.00    +0.000 A 
ATOM      4  C   UNL     1      48.458   5.631  16.694  0.00  0.00    +0.000 A 
ATOM      5  C   UNL     1      47.691   4.487  16.473  0.00  0.00    +0.000 A 
ATOM      6  C   UNL     1      47.179   4.314  15.203  0.00  0.00    +0.000 A 
ATOM      7  N   UNL     1      47.376   5.178  14.180  0.00  0.00    +0.000 NA
ATOM      8  H   UNL     1      48.039   8.119  13.646  0.00  0.00    +0.000 HD
ENDROOT
BRANCH   5   9
ATOM      9  C   UNL     1      47.462   3.523  17.577  0.00  0.00    +0.000 C 
ATOM     10  N   UNL     1      48.276   3.564  18.678  0.00  0.00    +0.000 N 
ATOM     11  O   UNL     1      46.561   2.694  17.512  0.00  0.00    +0.000 OA
ATOM     12  H   UNL     1      49.037   4.203  18.839  0.00  0.00    +0.000 HD
ATOM     13  H   UNL     1      48.078   2.887  19.407  0.00  0.00    +0.000 HD
ENDBRANCH   5   9
BRANCH   1  14
ATOM     14  C   UNL     1      47.674   6.772  12.101  0.00  0.00    +0.000 C 
BRANCH  14  15
ATOM     15  C   UNL     1      46.263   7.357  11.976  0.00  0.00    +0.000 C 
BRANCH  15  20
ATOM     16  C   UNL     1      44.585   4.634   9.866  0.00  0.00    +0.000 A 
ATOM     17  C   UNL     1      43.573   4.213  10.741  0.00  0.00    +0.000 A 
ATOM     18  C   UNL     1      43.403   4.830  11.979  0.00  0.00    +0.000 A 
ATOM     19  C   UNL     1      44.253   5.865  12.368  0.00  0.00    +0.000 A 
ATOM     20  C   UNL     1      45.282   6.296  11.520  0.00  0.00    +0.000 A 
ATOM     21  C   UNL     1      45.435   5.677  10.268  0.00  0.00    +0.000 A 
BRANCH  16  22
ATOM     22  C   UNL     1      44.772   3.946   8.537  0.00  0.00    +0.000 C 
BRANCH  22  23
ATOM     23  N   UNL     1      46.028   4.331   7.901  0.00  0.00    +0.000 NA
ATOM     24  H   UNL     1      46.722   4.523   8.619  0.00  0.00    +0.000 HD
ATOM     25  H   UNL     1      45.882   5.205   7.396  0.00  0.00    +0.000 HD
ENDBRANCH  22  23
ENDBRANCH  16  22
ENDBRANCH  15  20
ENDBRANCH  14  15
ENDBRANCH   1  14
TORSDOF 6
ENDMDL
MODEL 8
REMARK VINA RESULT:    -6.047      3.870      5.900
REMARK INTER + INTRA:          -8.634
REMARK INTER:                  -8.115
REMARK INTRA:                  -0.519
REMARK UNBOUND:                -0.642
REMARK  Name = 
REMARK  6 active torsions:
REMARK  status: ('A' for Active; 'I' for Inactive)
REMARK    1  A    between atoms: N_1  and  C_2
REMARK    2  A    between atoms: C_2  and  C_3
REMARK    3  A    between atoms: C_7  and  C_8
REMARK    4  A    between atoms: C_8  and  C_9
REMARK    5  A    between atoms: C_9  and  N_10
REMARK    6  A    between atoms: C_14  and  C_15
REMARK                            x       y       z     vdW  Elec       q    Type
REMARK                         _______ _______ _______ _____ _____    ______ ____
ROOT
ATOM      1  N   UNL     1      47.363   7.542  13.694  0.00  0.00    +0.000 N 
ATOM      2  C   UNL     1      46.461   6.551  13.250  0.00  0.00    +0.000 A 
ATOM      3  C   UNL     1      45.213   6.929  12.765  0.00  0.00    +0.000 A 
ATOM      4  C   UNL     1      44.311   5.944  12.343  0.00  0.00    +0.000 A 
ATOM      5  C   UNL     1      44.672   4.599  12.412  0.00  0.00    +0.000 A 
ATOM      6  C   UNL     1      45.926   4.314  12.912  0.00  0.00    +0.000 A 
ATOM      7  N   UNL     1      46.809   5.251  13.331  0.00  0.00    +0.000 NA
ATOM      8  H   UNL     1      47.502   8.207  12.938  0.00  0.00    +0.000 HD
ENDROOT
BRANCH   5   9
ATOM      9  C   UNL     1      43.722   3.552  11.962  0.00  0.00    +0.000 C 
ATOM     10  N   UNL     1      43.808   2.297  12.503  0.00  0.00    +0.000 N 
ATOM     11  O   UNL     1      42.870   3.797  11.115  0.00  0.00    +0.000 OA
ATOM     12  H   UNL     1      44.460   1.989  13.205  0.00  0.00    +0.000 HD
ATOM     13  H   UNL     1      43.136   1.617  12.166  0.00  0.00    +0.000 HD
ENDBRANCH   5   9
BRANCH   1  14
ATOM     14  C   UNL     1      48.626   6.965  14.175  0.00  0.00    +0.000 C 
BRANCH  14  15
ATOM     15  C   UNL     1      48.900   7.330  15.638  0.00  0.00    +0.000 C 
BRANCH  15  20
ATOM     16  C   UNL     1      48.934   3.906  17.358  0.00  0.00    +0.000 A 
ATOM     17  C   UNL     1      50.291   3.796  17.694  0.00  0.00    +0.000 A 
ATOM     18  C   UNL     1      51.178   4.833  17.411  0.00  0.00    +0.000 A 
ATOM     19  C   UNL     1      50.725   5.988  16.772  0.00  0.00    +0.000 A 
ATOM     20  C   UNL     1      49.377   6.118  16.412  0.00  0.00    +0.000 A 
ATOM     21  C   UNL     1      48.488   5.073  16.716  0.00  0.00    +0.000 A 
BRANCH  16  22
ATOM     22  C   UNL     1      47.986   2.770  17.651  0.00  0.00    +0.000 C 
BRANCH  22  23
ATOM     23  N   UNL     1      46.593   3.167  17.473  0.00  0.00    +0.000 NA
ATOM     24  H   UNL     1      46.514   3.741  16.637  0.00  0.00    +0.000 HD
ATOM     25  H   UNL     1      46.321   3.758  18.258  0.00  0.00    +0.000 HD
ENDBRANCH  22  23
ENDBRANCH  16  22
ENDBRANCH  15  20
ENDBRANCH  14  15
ENDBRANCH   1  14
TORSDOF 6
ENDMDL
MODEL 9
REMARK VINA RESULT:    -5.816      3.885      8.160
REMARK INTER + INTRA:          -8.328
REMARK INTER:                  -8.039
REMARK INTRA:                  -0.288
REMARK UNBOUND:                -0.642
REMARK  Name = 
REMARK  6 active torsions:
REMARK  status: ('A' for Active; 'I' for Inactive)
REMARK    1  A    between atoms: N_1  and  C_2
REMARK    2  A    between atoms: C_2  and  C_3
REMARK    3  A    between atoms: C_7  and  C_8
REMARK    4  A    between atoms: C_8  and  C_9
REMARK    5  A    between atoms: C_9  and  N_10
REMARK    6  A    between atoms: C_14  and  C_15
REMARK                            x       y       z     vdW  Elec       q    Type
REMARK                         _______ _______ _______ _____ _____    ______ ____
ROOT
ATOM      1  N   UNL     1      46.548   4.090  14.810  0.00  0.00    +0.000 N 
ATOM      2  C   UNL     1      47.434   4.213  15.902  0.00  0.00    +0.000 A 
ATOM      3  C   UNL     1      47.378   3.284  16.937  0.00  0.00    +0.000 A 
ATOM      4  C   UNL     1      48.244   3.418  18.030  0.00  0.00    +0.000 A 
ATOM      5  C   UNL     1      49.151   4.477  18.069  0.00  0.00    +0.000 A 
ATOM      6  C   UNL     1      49.134   5.354  17.004  0.00  0.00    +0.000 A 
ATOM      7  N   UNL     1      48.301   5.246  15.942  0.00  0.00    +0.000 NA
ATOM      8  H   UNL     1      46.661   3.161  14.412  0.00  0.00    +0.000 HD
ENDROOT
BRANCH   5   9
ATOM      9  C   UNL     1      50.073   4.621  19.222  0.00  0.00    +0.000 C 
ATOM     10  N   UNL     1      49.592   4.429  20.490  0.00  0.00    +0.000 N 
ATOM     11  O   UNL     1      51.252   4.911  19.053  0.00  0.00    +0.000 OA
ATOM     12  H   UNL     1      48.649   4.182  20.743  0.00  0.00    +0.000 HD
ATOM     13  H   UNL     1      50.260   4.536  21.244  0.00  0.00    +0.000 HD
ENDBRANCH   5   9
BRANCH   1  14
ATOM     14  C   UNL     1      46.744   5.155  13.817  0.00  0.00    +0.000 C 
BRANCH  14  15
ATOM     15  C   UNL     1      45.411   5.683  13.275  0.00  0.00    +0.000 C 
BRANCH  15  20
ATOM     16  C   UNL     1      44.924   4.074   9.831  0.00  0.00    +0.000 A 
ATOM     17  C   UNL     1      44.058   3.020  10.156  0.00  0.00    +0.000 A 
ATOM     18  C   UNL     1      43.599   2.855  11.461  0.00  0.00    +0.000 A 
ATOM     19  C   UNL     1      44.012   3.732  12.465  0.00  0.00    +0.000 A 
ATOM     20  C   UNL     1      44.888   4.785  12.171  0.00  0.00    +0.000 A 
ATOM     21  C   UNL     1      45.334   4.951  10.849  0.00  0.00    +0.000 A 
BRANCH  16  22
ATOM     22  C   UNL     1      45.431   4.231   8.419  0.00  0.00    +0.000 C 
BRANCH  22  23
ATOM     23  N   UNL     1      45.754   2.943   7.813  0.00  0.00    +0.000 NA
ATOM     24  H   UNL     1      45.594   2.204   8.494  0.00  0.00    +0.000 HD
ATOM     25  H   UNL     1      46.751   2.927   7.596  0.00  0.00    +0.000 HD
ENDBRANCH  22  23
ENDBRANCH  16  22
ENDBRANCH  15  20
ENDBRANCH  14  15
ENDBRANCH   1  14
TORSDOF 6
ENDMDL
