MODEL 1
REMARK VINA RESULT:    -8.564      0.000      0.000
REMARK INTER + INTRA:         -12.662
REMARK INTER:                 -11.567
REMARK INTRA:                  -1.094
REMARK UNBOUND:                -1.094
REMARK  Name = 
REMARK  6 active torsions:
REMARK  status: ('A' for Active; 'I' for Inactive)
REMARK    1  A    between atoms: C_2  and  C_4
REMARK    2  A    between atoms: C_7  and  C_8
REMARK    3  A    between atoms: C_8  and  C_9
REMARK    4  A    between atoms: C_9  and  N_10
REMARK    5  A    between atoms: N_10  and  C_11
REMARK    6  A    between atoms: C_15  and  C_16
REMARK                            x       y       z     vdW  Elec       q    Type
REMARK                         _______ _______ _______ _____ _____    ______ ____
ROOT
ATOM      1  N   UNL     1      43.789   5.646  12.187  0.00  0.00    +0.000 N 
ATOM      2  H   UNL     1      43.183   5.516  12.991  0.00  0.00    +0.000 HD
ENDROOT
BRANCH   1   3
ATOM      3  C   UNL     1      45.153   5.684  12.469  0.00  0.00    +0.000 A 
ATOM      4  C   UNL     1      46.054   6.498  11.775  0.00  0.00    +0.000 A 
ATOM      5  C   UNL     1      47.390   6.593  12.158  0.00  0.00    +0.000 A 
ATOM      6  C   UNL     1      47.843   5.896  13.274  0.00  0.00    +0.000 A 
ATOM      7  C   UNL     1      46.976   5.086  14.025  0.00  0.00    +0.000 A 
ATOM      8  C   UNL     1      45.634   4.994  13.594  0.00  0.00    +0.000 A 
BRANCH   7   9
ATOM      9  C   UNL     1      47.454   4.420  15.253  0.00  0.00    +0.000 A 
ATOM     10  C   UNL     1      47.651   5.092  16.460  0.00  0.00    +0.000 A 
ATOM     11  C   UNL     1      48.159   4.394  17.554  0.00  0.00    +0.000 A 
ATOM     12  C   UNL     1      48.456   3.044  17.424  0.00  0.00    +0.000 A 
ATOM     13  C   UNL     1      48.218   2.442  16.204  0.00  0.00    +0.000 A 
ATOM     14  N   UNL     1      47.720   3.093  15.130  0.00  0.00    +0.000 NA
ENDBRANCH   7   9
ENDBRANCH   1   3
BRANCH   1  15
ATOM     15  C   UNL     1      43.303   5.139  10.910  0.00  0.00    +0.000 C 
BRANCH  15  16
ATOM     16  C   UNL     1      43.610   3.650  10.721  0.00  0.00    +0.000 C 
BRANCH  16  20
ATOM     17  C   UNL     1      46.413   2.686   7.576  0.00  0.00    +0.000 A 
ATOM     18  C   UNL     1      46.004   4.012   7.759  0.00  0.00    +0.000 A 
ATOM     19  C   UNL     1      45.088   4.325   8.769  0.00  0.00    +0.000 A 
ATOM     20  C   UNL     1      44.563   3.320   9.595  0.00  0.00    +0.000 A 
ATOM     21  C   UNL     1      44.962   1.994   9.387  0.00  0.00    +0.000 A 
ATOM     22  C   UNL     1      45.874   1.677   8.379  0.00  0.00    +0.000 A 
BRANCH  17  24
ATOM     23  N   UNL     1      47.541   3.149   5.471  0.00  0.00    +0.000 N 
ATOM     24  C   UNL     1      47.415   2.312   6.545  0.00  0.00    +0.000 C 
ATOM     25  O   UNL     1      48.140   1.335   6.674  0.00  0.00    +0.000 OA
ATOM     26  H   UNL     1      48.314   2.957   4.848  0.00  0.00    +0.000 HD
ATOM     27  H   UNL     1      47.159   4.083   5.473  0.00  0.00    +0.000 HD
ENDBRANCH  17  24
ENDBRANCH  16  20
ENDBRANCH  15  16
ENDBRANCH   1  15
TORSDOF 6
ENDMDL
MODEL 2
REMARK VINA RESULT:    -8.339      2.072      4.455
REMARK INTER + INTRA:         -12.358
REMARK INTER:                 -11.351
REMARK INTRA:                  -1.008
REMARK UNBOUND:                -1.094
REMARK  Name = 
REMARK  6 active torsions:
REMARK  status: ('A' for Active; 'I' for Inactive)
REMARK    1  A    between atoms: C_2  and  C_4
REMARK    2  A    between atoms: C_7  and  C_8
REMARK    3  A    between atoms: C_8  and  C_9
REMARK    4  A    between atoms: C_9  and  N_10
REMARK    5  A    between atoms: N_10  and  C_11
REMARK    6  A    between atoms: C_15  and  C_16
REMARK                            x       y       z     vdW  Elec       q    Type
REMARK                         _______ _______ _______ _____ _____    ______ ____
ROOT
ATOM      1  N   UNL     1      43.861   4.040  13.106  0.00  0.00    +0.000 N 
ATOM      2  H   UNL     1      43.513   3.750  14.015  0.00  0.00    +0.000 HD
ENDROOT
BRANCH   1   3
ATOM      3  C   UNL     1      44.941   4.919  13.134  0.00  0.00    +0.000 A 
ATOM      4  C   UNL     1      46.248   4.514  13.421  0.00  0.00    +0.000 A 
ATOM      5  C   UNL     1      47.320   5.400  13.330  0.00  0.00    +0.000 A 
ATOM      6  C   UNL     1      47.103   6.709  12.911  0.00  0.00    +0.000 A 
ATOM      7  C   UNL     1      45.815   7.162  12.582  0.00  0.00    +0.000 A 
ATOM      8  C   UNL     1      44.750   6.244  12.709  0.00  0.00    +0.000 A 
BRANCH   7   9
ATOM      9  C   UNL     1      45.617   8.530  12.061  0.00  0.00    +0.000 A 
ATOM     10  C   UNL     1      46.533   9.563  12.258  0.00  0.00    +0.000 A 
ATOM     11  C   UNL     1      46.237  10.838  11.778  0.00  0.00    +0.000 A 
ATOM     12  C   UNL     1      45.039  11.054  11.110  0.00  0.00    +0.000 A 
ATOM     13  C   UNL     1      44.190   9.978  10.936  0.00  0.00    +0.000 A 
ATOM     14  N   UNL     1      44.455   8.733  11.385  0.00  0.00    +0.000 NA
ENDBRANCH   7   9
ENDBRANCH   1   3
BRANCH   1  15
ATOM     15  C   UNL     1      43.692   3.097  12.008  0.00  0.00    +0.000 C 
BRANCH  15  16
ATOM     16  C   UNL     1      43.568   3.801  10.652  0.00  0.00    +0.000 C 
BRANCH  16  20
ATOM     17  C   UNL     1      46.444   2.705   7.617  0.00  0.00    +0.000 A 
ATOM     18  C   UNL     1      45.828   1.708   8.382  0.00  0.00    +0.000 A 
ATOM     19  C   UNL     1      44.905   2.060   9.374  0.00  0.00    +0.000 A 
ATOM     20  C   UNL     1      44.598   3.407   9.618  0.00  0.00    +0.000 A 
ATOM     21  C   UNL     1      45.239   4.397   8.862  0.00  0.00    +0.000 A 
ATOM     22  C   UNL     1      46.162   4.050   7.874  0.00  0.00    +0.000 A 
BRANCH  17  24
ATOM     23  N   UNL     1      47.233   3.036   5.340  0.00  0.00    +0.000 N 
ATOM     24  C   UNL     1      47.397   2.377   6.528  0.00  0.00    +0.000 C 
ATOM     25  O   UNL     1      48.327   1.600   6.695  0.00  0.00    +0.000 OA
ATOM     26  H   UNL     1      47.966   2.904   4.655  0.00  0.00    +0.000 HD
ATOM     27  H   UNL     1      46.659   3.862   5.263  0.00  0.00    +0.000 HD
ENDBRANCH  17  24
ENDBRANCH  16  20
ENDBRANCH  15  16
ENDBRANCH   1  15
TORSDOF 6
ENDMDL
MODEL 3
REMARK VINA RESULT:    -7.885      2.599      7.447
REMARK INTER + INTRA:         -11.745
REMARK INTER:                 -10.810
REMARK INTRA:                  -0.935
REMARK UNBOUND:                -1.094
REMARK  Name = 
REMARK  6 active torsions:
REMARK  status: ('A' for Active; 'I' for Inactive)
REMARK    1  A    between atoms: C_2  and  C_4
REMARK    2  A    between atoms: C_7  and  C_8
REMARK    3  A    between atoms: C_8  and  C_9
REMARK    4  A    between atoms: C_9  and  N_10
REMARK    5  A    between atoms: N_10  and  C_11
REMARK    6  A    between atoms: C_15  and  C_16
REMARK                            x       y       z     vdW  Elec       q    Type
REMARK                         _______ _______ _______ _____ _____    ______ ____
ROOT
ATOM      1  N   UNL     1      44.390   6.676  10.847  0.00  0.00    +0.000 N 
ATOM      2  H   UNL     1      44.192   7.212  10.007  0.00  0.00    +0.000 HD
ENDROOT
BRANCH   1   3
ATOM      3  C   UNL     1      44.377   5.292  10.686  0.00  0.00    +0.000 A 
ATOM      4  C   UNL     1      43.501   4.451  11.381  0.00  0.00    +0.000 A 
ATOM      5  C   UNL     1      43.441   3.085  11.113  0.00  0.00    +0.000 A 
ATOM      6  C   UNL     1      44.237   2.540  10.110  0.00  0.00    +0.000 A 
ATOM      7  C   UNL     1      45.114   3.342   9.362  0.00  0.00    +0.000 A 
ATOM      8  C   UNL     1      45.167   4.717   9.677  0.00  0.00    +0.000 A 
BRANCH   7   9
ATOM      9  C   UNL     1      45.889   2.759   8.248  0.00  0.00    +0.000 A 
ATOM     10  C   UNL     1      46.218   3.469   7.093  0.00  0.00    +0.000 A 
ATOM     11  C   UNL     1      46.906   2.822   6.068  0.00  0.00    +0.000 A 
ATOM     12  C   UNL     1      47.253   1.486   6.217  0.00  0.00    +0.000 A 
ATOM     13  C   UNL     1      46.910   0.854   7.396  0.00  0.00    +0.000 A 
ATOM     14  N   UNL     1      46.251   1.458   8.407  0.00  0.00    +0.000 NA
ENDBRANCH   7   9
ENDBRANCH   1   3
BRANCH   1  15
ATOM     15  C   UNL     1      45.249   7.306  11.840  0.00  0.00    +0.000 C 
BRANCH  15  16
ATOM     16  C   UNL     1      46.646   6.678  11.884  0.00  0.00    +0.000 C 
BRANCH  16  20
ATOM     17  C   UNL     1      47.478   4.484  15.513  0.00  0.00    +0.000 A 
ATOM     18  C   UNL     1      48.030   5.757  15.329  0.00  0.00    +0.000 A 
ATOM     19  C   UNL     1      47.773   6.464  14.150  0.00  0.00    +0.000 A 
ATOM     20  C   UNL     1      46.974   5.906  13.141  0.00  0.00    +0.000 A 
ATOM     21  C   UNL     1      46.446   4.622  13.327  0.00  0.00    +0.000 A 
ATOM     22  C   UNL     1      46.703   3.911  14.501  0.00  0.00    +0.000 A 
BRANCH  17  24
ATOM     23  N   UNL     1      48.950   3.729  17.297  0.00  0.00    +0.000 N 
ATOM     24  C   UNL     1      47.690   3.713  16.764  0.00  0.00    +0.000 C 
ATOM     25  O   UNL     1      46.772   3.138  17.332  0.00  0.00    +0.000 OA
ATOM     26  H   UNL     1      49.049   3.315  18.214  0.00  0.00    +0.000 HD
ATOM     27  H   UNL     1      49.645   4.402  17.006  0.00  0.00    +0.000 HD
ENDBRANCH  17  24
ENDBRANCH  16  20
ENDBRANCH  15  16
ENDBRANCH   1  15
TORSDOF 6
ENDMDL
MODEL 4
REMARK VINA RESULT:    -7.187      3.447      7.309
REMARK INTER + INTRA:         -10.802
REMARK INTER:                  -9.966
REMARK INTRA:                  -0.836
REMARK UNBOUND:                -1.094
REMARK  Name = 
REMARK  6 active torsions:
REMARK  status: ('A' for Active; 'I' for Inactive)
REMARK    1  A    between atoms: C_2  and  C_4
REMARK    2  A    between atoms: C_7  and  C_8
REMARK    3  A    between atoms: C_8  and  C_9
REMARK    4  A    between atoms: C_9  and  N_10
REMARK    5  A    between atoms: N_10  and  C_11
REMARK    6  A    between atoms: C_15  and  C_16
REMARK                            x       y       z     vdW  Elec       q    Type
REMARK                         _______ _______ _______ _____ _____    ______ ____
ROOT
ATOM      1  N   UNL     1      44.275   6.517  11.097  0.00  0.00    +0.000 N 
ATOM      2  H   UNL     1      44.352   7.098  10.268  0.00  0.00    +0.000 HD
ENDROOT
BRANCH   1   3
ATOM      3  C   UNL     1      44.301   5.143  10.867  0.00  0.00    +0.000 A 
ATOM      4  C   UNL     1      43.458   4.242  11.525  0.00  0.00    +0.000 A 
ATOM      5  C   UNL     1      43.434   2.890  11.188  0.00  0.00    +0.000 A 
ATOM      6  C   UNL     1      44.237   2.420  10.152  0.00  0.00    +0.000 A 
ATOM      7  C   UNL     1      45.081   3.285   9.438  0.00  0.00    +0.000 A 
ATOM      8  C   UNL     1      45.097   4.644   9.822  0.00  0.00    +0.000 A 
BRANCH   7   9
ATOM      9  C   UNL     1      45.862   2.784   8.289  0.00  0.00    +0.000 A 
ATOM     10  C   UNL     1      46.180   3.568   7.181  0.00  0.00    +0.000 A 
ATOM     11  C   UNL     1      46.874   2.995   6.116  0.00  0.00    +0.000 A 
ATOM     12  C   UNL     1      47.239   1.657   6.181  0.00  0.00    +0.000 A 
ATOM     13  C   UNL     1      46.906   0.948   7.319  0.00  0.00    +0.000 A 
ATOM     14  N   UNL     1      46.241   1.480   8.366  0.00  0.00    +0.000 NA
ENDBRANCH   7   9
ENDBRANCH   1   3
BRANCH   1  15
ATOM     15  C   UNL     1      44.788   7.077  12.340  0.00  0.00    +0.000 C 
BRANCH  15  16
ATOM     16  C   UNL     1      45.920   6.232  12.935  0.00  0.00    +0.000 C 
BRANCH  16  20
ATOM     17  C   UNL     1      49.897   7.908  12.700  0.00  0.00    +0.000 A 
ATOM     18  C   UNL     1      49.349   7.593  13.949  0.00  0.00    +0.000 A 
ATOM     19  C   UNL     1      48.057   7.061  14.029  0.00  0.00    +0.000 A 
ATOM     20  C   UNL     1      47.298   6.851  12.868  0.00  0.00    +0.000 A 
ATOM     21  C   UNL     1      47.848   7.191  11.626  0.00  0.00    +0.000 A 
ATOM     22  C   UNL     1      49.136   7.724  11.542  0.00  0.00    +0.000 A 
BRANCH  17  24
ATOM     23  N   UNL     1      52.108   7.783  11.693  0.00  0.00    +0.000 N 
ATOM     24  C   UNL     1      51.278   8.435  12.563  0.00  0.00    +0.000 C 
ATOM     25  O   UNL     1      51.647   9.442  13.152  0.00  0.00    +0.000 OA
ATOM     26  H   UNL     1      52.997   8.229  11.508  0.00  0.00    +0.000 HD
ATOM     27  H   UNL     1      51.757   7.132  11.005  0.00  0.00    +0.000 HD
ENDBRANCH  17  24
ENDBRANCH  16  20
ENDBRANCH  15  16
ENDBRANCH   1  15
TORSDOF 6
ENDMDL
MODEL 5
REMARK VINA RESULT:    -6.733      3.219      8.121
REMARK INTER + INTRA:         -10.189
REMARK INTER:                  -9.591
REMARK INTRA:                  -0.599
REMARK UNBOUND:                -1.094
REMARK  Name = 
REMARK  6 active torsions:
REMARK  status: ('A' for Active; 'I' for Inactive)
REMARK    1  A    between atoms: C_2  and  C_4
REMARK    2  A    between atoms: C_7  and  C_8
REMARK    3  A    between atoms: C_8  and  C_9
REMARK    4  A    between atoms: C_9  and  N_10
REMARK    5  A    between atoms: N_10  and  C_11
REMARK    6  A    between atoms: C_15  and  C_16
REMARK                            x       y       z     vdW  Elec       q    Type
REMARK                         _______ _______ _______ _____ _____    ______ ____
ROOT
ATOM      1  N   UNL     1      45.655   6.725  13.255  0.00  0.00    +0.000 N 
ATOM      2  H   UNL     1      45.148   7.407  13.811  0.00  0.00    +0.000 HD
ENDROOT
BRANCH   1   3
ATOM      3  C   UNL     1      44.862   5.862  12.501  0.00  0.00    +0.000 A 
ATOM      4  C   UNL     1      43.475   5.773  12.652  0.00  0.00    +0.000 A 
ATOM      5  C   UNL     1      42.702   4.981  11.804  0.00  0.00    +0.000 A 
ATOM      6  C   UNL     1      43.307   4.289  10.760  0.00  0.00    +0.000 A 
ATOM      7  C   UNL     1      44.693   4.366  10.544  0.00  0.00    +0.000 A 
ATOM      8  C   UNL     1      45.448   5.157  11.437  0.00  0.00    +0.000 A 
BRANCH   7   9
ATOM      9  C   UNL     1      45.304   3.691   9.381  0.00  0.00    +0.000 A 
ATOM     10  C   UNL     1      45.367   2.304   9.249  0.00  0.00    +0.000 A 
ATOM     11  C   UNL     1      46.014   1.753   8.144  0.00  0.00    +0.000 A 
ATOM     12  C   UNL     1      46.579   2.594   7.195  0.00  0.00    +0.000 A 
ATOM     13  C   UNL     1      46.461   3.957   7.383  0.00  0.00    +0.000 A 
ATOM     14  N   UNL     1      45.835   4.517   8.441  0.00  0.00    +0.000 NA
ENDBRANCH   7   9
ENDBRANCH   1   3
BRANCH   1  15
ATOM     15  C   UNL     1      46.985   7.108  12.801  0.00  0.00    +0.000 C 
BRANCH  15  16
ATOM     16  C   UNL     1      48.064   6.125  13.268  0.00  0.00    +0.000 C 
BRANCH  16  20
ATOM     17  C   UNL     1      48.071   5.076  17.460  0.00  0.00    +0.000 A 
ATOM     18  C   UNL     1      47.322   4.316  16.555  0.00  0.00    +0.000 A 
ATOM     19  C   UNL     1      47.308   4.660  15.199  0.00  0.00    +0.000 A 
ATOM     20  C   UNL     1      48.030   5.770  14.736  0.00  0.00    +0.000 A 
ATOM     21  C   UNL     1      48.757   6.538  15.655  0.00  0.00    +0.000 A 
ATOM     22  C   UNL     1      48.771   6.199  17.009  0.00  0.00    +0.000 A 
BRANCH  17  24
ATOM     23  N   UNL     1      48.382   3.412  19.207  0.00  0.00    +0.000 N 
ATOM     24  C   UNL     1      48.148   4.724  18.900  0.00  0.00    +0.000 C 
ATOM     25  O   UNL     1      48.068   5.573  19.778  0.00  0.00    +0.000 OA
ATOM     26  H   UNL     1      48.565   3.210  20.181  0.00  0.00    +0.000 HD
ATOM     27  H   UNL     1      48.716   2.754  18.518  0.00  0.00    +0.000 HD
ENDBRANCH  17  24
ENDBRANCH  16  20
ENDBRANCH  15  16
ENDBRANCH   1  15
TORSDOF 6
ENDMDL
MODEL 6
REMARK VINA RESULT:    -6.435      3.978      7.577
REMARK INTER + INTRA:          -9.787
REMARK INTER:                  -8.902
REMARK INTRA:                  -0.885
REMARK UNBOUND:                -1.094
REMARK  Name = 
REMARK  6 active torsions:
REMARK  status: ('A' for Active; 'I' for Inactive)
REMARK    1  A    between atoms: C_2  and  C_4
REMARK    2  A    between atoms: C_7  and  C_8
REMARK    3  A    between atoms: C_8  and  C_9
REMARK    4  A    between atoms: C_9  and  N_10
REMARK    5  A    between atoms: N_10  and  C_11
REMARK    6  A    between atoms: C_15  and  C_16
REMARK                            x       y       z     vdW  Elec       q    Type
REMARK                         _______ _______ _______ _____ _____    ______ ____
ROOT
ATOM      1  N   UNL     1      45.761   6.440  13.380  0.00  0.00    +0.000 N 
ATOM      2  H   UNL     1      45.390   6.704  14.287  0.00  0.00    +0.000 HD
ENDROOT
BRANCH   1   3
ATOM      3  C   UNL     1      44.959   5.577  12.636  0.00  0.00    +0.000 A 
ATOM      4  C   UNL     1      43.587   5.424  12.863  0.00  0.00    +0.000 A 
ATOM      5  C   UNL     1      42.796   4.638  12.027  0.00  0.00    +0.000 A 
ATOM      6  C   UNL     1      43.364   4.017  10.919  0.00  0.00    +0.000 A 
ATOM      7  C   UNL     1      44.730   4.160  10.626  0.00  0.00    +0.000 A 
ATOM      8  C   UNL     1      45.506   4.943  11.508  0.00  0.00    +0.000 A 
BRANCH   7   9
ATOM      9  C   UNL     1      45.296   3.560   9.401  0.00  0.00    +0.000 A 
ATOM     10  C   UNL     1      45.414   2.184   9.208  0.00  0.00    +0.000 A 
ATOM     11  C   UNL     1      46.013   1.708   8.043  0.00  0.00    +0.000 A 
ATOM     12  C   UNL     1      46.476   2.611   7.095  0.00  0.00    +0.000 A 
ATOM     13  C   UNL     1      46.307   3.959   7.347  0.00  0.00    +0.000 A 
ATOM     14  N   UNL     1      45.725   4.447   8.464  0.00  0.00    +0.000 NA
ENDBRANCH   7   9
ENDBRANCH   1   3
BRANCH   1  15
ATOM     15  C   UNL     1      46.635   7.403  12.723  0.00  0.00    +0.000 C 
BRANCH  15  16
ATOM     16  C   UNL     1      46.237   8.851  13.026  0.00  0.00    +0.000 C 
BRANCH  16  20
ATOM     17  C   UNL     1      43.296  10.632  10.407  0.00  0.00    +0.000 A 
ATOM     18  C   UNL     1      43.354   9.240  10.541  0.00  0.00    +0.000 A 
ATOM     19  C   UNL     1      44.313   8.660  11.379  0.00  0.00    +0.000 A 
ATOM     20  C   UNL     1      45.228   9.460  12.080  0.00  0.00    +0.000 A 
ATOM     21  C   UNL     1      45.175  10.851  11.919  0.00  0.00    +0.000 A 
ATOM     22  C   UNL     1      44.222  11.433  11.083  0.00  0.00    +0.000 A 
BRANCH  17  24
ATOM     23  N   UNL     1      40.961  11.052   9.873  0.00  0.00    +0.000 N 
ATOM     24  C   UNL     1      42.270  11.294   9.562  0.00  0.00    +0.000 C 
ATOM     25  O   UNL     1      42.574  12.069   8.666  0.00  0.00    +0.000 OA
ATOM     26  H   UNL     1      40.277  11.611   9.379  0.00  0.00    +0.000 HD
ATOM     27  H   UNL     1      40.687  10.645  10.756  0.00  0.00    +0.000 HD
ENDBRANCH  17  24
ENDBRANCH  16  20
ENDBRANCH  15  16
ENDBRANCH   1  15
TORSDOF 6
ENDMDL
MODEL 7
REMARK VINA RESULT:    -6.217      3.149      4.975
REMARK INTER + INTRA:          -9.492
REMARK INTER:                  -8.539
REMARK INTRA:                  -0.954
REMARK UNBOUND:                -1.094
REMARK  Name = 
REMARK  6 active torsions:
REMARK  status: ('A' for Active; 'I' for Inactive)
REMARK    1  A    between atoms: C_2  and  C_4
REMARK    2  A    between atoms: C_7  and  C_8
REMARK    3  A    between atoms: C_8  and  C_9
REMARK    4  A    between atoms: C_9  and  N_10
REMARK    5  A    between atoms: N_10  and  C_11
REMARK    6  A    between atoms: C_15  and  C_16
REMARK                            x       y       z     vdW  Elec       q    Type
REMARK                         _______ _______ _______ _____ _____    ______ ____
ROOT
ATOM      1  N   UNL     1      48.366   9.037  14.484  0.00  0.00    +0.000 N 
ATOM      2  H   UNL     1      48.714   9.987  14.401  0.00  0.00    +0.000 HD
ENDROOT
BRANCH   1   3
ATOM      3  C   UNL     1      48.479   8.470  15.752  0.00  0.00    +0.000 A 
ATOM      4  C   UNL     1      48.049   9.113  16.917  0.00  0.00    +0.000 A 
ATOM      5  C   UNL     1      48.076   8.470  18.153  0.00  0.00    +0.000 A 
ATOM      6  C   UNL     1      48.503   7.148  18.238  0.00  0.00    +0.000 A 
ATOM      7  C   UNL     1      48.918   6.444  17.096  0.00  0.00    +0.000 A 
ATOM      8  C   UNL     1      48.901   7.134  15.864  0.00  0.00    +0.000 A 
BRANCH   7   9
ATOM      9  C   UNL     1      49.289   5.018  17.193  0.00  0.00    +0.000 A 
ATOM     10  C   UNL     1      50.577   4.584  17.506  0.00  0.00    +0.000 A 
ATOM     11  C   UNL     1      50.851   3.217  17.521  0.00  0.00    +0.000 A 
ATOM     12  C   UNL     1      49.836   2.315  17.229  0.00  0.00    +0.000 A 
ATOM     13  C   UNL     1      48.581   2.819  16.947  0.00  0.00    +0.000 A 
ATOM     14  N   UNL     1      48.288   4.137  16.932  0.00  0.00    +0.000 NA
ENDBRANCH   7   9
ENDBRANCH   1   3
BRANCH   1  15
ATOM     15  C   UNL     1      47.284   8.653  13.587  0.00  0.00    +0.000 C 
BRANCH  15  16
ATOM     16  C   UNL     1      47.749   7.680  12.498  0.00  0.00    +0.000 C 
BRANCH  16  20
ATOM     17  C   UNL     1      45.090   4.338  11.837  0.00  0.00    +0.000 A 
ATOM     18  C   UNL     1      45.820   4.420  13.029  0.00  0.00    +0.000 A 
ATOM     19  C   UNL     1      46.691   5.494  13.240  0.00  0.00    +0.000 A 
ATOM     20  C   UNL     1      46.850   6.488  12.263  0.00  0.00    +0.000 A 
ATOM     21  C   UNL     1      46.131   6.384  11.065  0.00  0.00    +0.000 A 
ATOM     22  C   UNL     1      45.264   5.312  10.849  0.00  0.00    +0.000 A 
BRANCH  17  24
ATOM     23  N   UNL     1      43.813   2.432  12.646  0.00  0.00    +0.000 N 
ATOM     24  C   UNL     1      44.124   3.239  11.586  0.00  0.00    +0.000 C 
ATOM     25  O   UNL     1      43.580   3.092  10.500  0.00  0.00    +0.000 OA
ATOM     26  H   UNL     1      43.058   1.775  12.498  0.00  0.00    +0.000 HD
ATOM     27  H   UNL     1      44.032   2.691  13.597  0.00  0.00    +0.000 HD
ENDBRANCH  17  24
ENDBRANCH  16  20
ENDBRANCH  15  16
ENDBRANCH   1  15
TORSDOF 6
ENDMDL
MODEL 8
REMARK VINA RESULT:    -6.109      4.347      7.716
REMARK INTER + INTRA:          -9.346
REMARK INTER:                  -8.064
REMARK INTRA:                  -1.282
REMARK UNBOUND:                -1.094
REMARK  Name = 
REMARK  6 active torsions:
REMARK  status: ('A' for Active; 'I' for Inactive)
REMARK    1  A    between atoms: C_2  and  C_4
REMARK    2  A    between atoms: C_7  and  C_8
REMARK    3  A    between atoms: C_8  and  C_9
REMARK    4  A    between atoms: C_9  and  N_10
REMARK    5  A    between atoms: N_10  and  C_11
REMARK    6  A    between atoms: C_15  and  C_16
REMARK                            x       y       z     vdW  Elec       q    Type
REMARK                         _______ _______ _______ _____ _____    ______ ____
ROOT
ATOM      1  N   UNL     1      48.144   9.269  13.432  0.00  0.00    +0.000 N 
ATOM      2  H   UNL     1      48.118   9.575  14.399  0.00  0.00    +0.000 HD
ENDROOT
BRANCH   1   3
ATOM      3  C   UNL     1      47.674  10.193  12.501  0.00  0.00    +0.000 A 
ATOM      4  C   UNL     1      48.520  11.009  11.742  0.00  0.00    +0.000 A 
ATOM      5  C   UNL     1      48.020  11.841  10.742  0.00  0.00    +0.000 A 
ATOM      6  C   UNL     1      46.657  11.842  10.458  0.00  0.00    +0.000 A 
ATOM      7  C   UNL     1      45.767  11.021  11.169  0.00  0.00    +0.000 A 
ATOM      8  C   UNL     1      46.304  10.210  12.192  0.00  0.00    +0.000 A 
BRANCH   7   9
ATOM      9  C   UNL     1      44.338  10.976  10.798  0.00  0.00    +0.000 A 
ATOM     10  C   UNL     1      43.894  10.781   9.491  0.00  0.00    +0.000 A 
ATOM     11  C   UNL     1      42.526  10.808   9.223  0.00  0.00    +0.000 A 
ATOM     12  C   UNL     1      41.632  11.024  10.264  0.00  0.00    +0.000 A 
ATOM     13  C   UNL     1      42.145  11.190  11.536  0.00  0.00    +0.000 A 
ATOM     14  N   UNL     1      43.464  11.162  11.823  0.00  0.00    +0.000 NA
ENDBRANCH   7   9
ENDBRANCH   1   3
BRANCH   1  15
ATOM     15  C   UNL     1      49.180   8.309  13.075  0.00  0.00    +0.000 C 
BRANCH  15  16
ATOM     16  C   UNL     1      48.728   7.348  11.970  0.00  0.00    +0.000 C 
BRANCH  16  20
ATOM     17  C   UNL     1      45.043   5.253  12.811  0.00  0.00    +0.000 A 
ATOM     18  C   UNL     1      46.155   5.064  13.640  0.00  0.00    +0.000 A 
ATOM     19  C   UNL     1      47.353   5.731  13.364  0.00  0.00    +0.000 A 
ATOM     20  C   UNL     1      47.456   6.582  12.253  0.00  0.00    +0.000 A 
ATOM     21  C   UNL     1      46.345   6.746  11.417  0.00  0.00    +0.000 A 
ATOM     22  C   UNL     1      45.148   6.079  11.688  0.00  0.00    +0.000 A 
BRANCH  17  24
ATOM     23  N   UNL     1      42.629   5.395  13.074  0.00  0.00    +0.000 N 
ATOM     24  C   UNL     1      43.740   4.598  13.088  0.00  0.00    +0.000 C 
ATOM     25  O   UNL     1      43.648   3.390  13.263  0.00  0.00    +0.000 OA
ATOM     26  H   UNL     1      41.739   4.918  13.131  0.00  0.00    +0.000 HD
ATOM     27  H   UNL     1      42.642   6.322  12.673  0.00  0.00    +0.000 HD
ENDBRANCH  17  24
ENDBRANCH  16  20
ENDBRANCH  15  16
ENDBRANCH   1  15
TORSDOF 6
ENDMDL
MODEL 9
REMARK VINA RESULT:    -5.829      3.714      7.618
REMARK INTER + INTRA:          -8.968
REMARK INTER:                  -8.267
REMARK INTRA:                  -0.701
REMARK UNBOUND:                -1.094
REMARK  Name = 
REMARK  6 active torsions:
REMARK  status: ('A' for Active; 'I' for Inactive)
REMARK    1  A    between atoms: C_2  and  C_4
REMARK    2  A    between atoms: C_7  and  C_8
REMARK    3  A    between atoms: C_8  and  C_9
REMARK    4  A    between atoms: C_9  and  N_10
REMARK    5  A    between atoms: N_10  and  C_11
REMARK    6  A    between atoms: C_15  and  C_16
REMARK                            x       y       z     vdW  Elec       q    Type
REMARK                         _______ _______ _______ _____ _____    ______ ____
ROOT
ATOM      1  N   UNL     1      45.442   5.215  13.243  0.00  0.00    +0.000 N 
ATOM      2  H   UNL     1      44.772   5.633  13.881  0.00  0.00    +0.000 HD
ENDROOT
BRANCH   1   3
ATOM      3  C   UNL     1      44.929   4.237  12.395  0.00  0.00    +0.000 A 
ATOM      4  C   UNL     1      43.720   3.576  12.636  0.00  0.00    +0.000 A 
ATOM      5  C   UNL     1      43.183   2.685  11.709  0.00  0.00    +0.000 A 
ATOM      6  C   UNL     1      43.835   2.465  10.500  0.00  0.00    +0.000 A 
ATOM      7  C   UNL     1      45.037   3.123  10.193  0.00  0.00    +0.000 A 
ATOM      8  C   UNL     1      45.565   4.001  11.165  0.00  0.00    +0.000 A 
BRANCH   7   9
ATOM      9  C   UNL     1      45.670   2.940   8.872  0.00  0.00    +0.000 A 
ATOM     10  C   UNL     1      46.093   1.701   8.392  0.00  0.00    +0.000 A 
ATOM     11  C   UNL     1      46.733   1.630   7.156  0.00  0.00    +0.000 A 
ATOM     12  C   UNL     1      46.934   2.793   6.424  0.00  0.00    +0.000 A 
ATOM     13  C   UNL     1      46.471   3.981   6.954  0.00  0.00    +0.000 A 
ATOM     14  N   UNL     1      45.843   4.077   8.146  0.00  0.00    +0.000 NA
ENDBRANCH   7   9
ENDBRANCH   1   3
BRANCH   1  15
ATOM     15  C   UNL     1      46.563   6.050  12.830  0.00  0.00    +0.000 C 
BRANCH  15  16
ATOM     16  C   UNL     1      46.136   7.494  12.540  0.00  0.00    +0.000 C 
BRANCH  16  20
ATOM     17  C   UNL     1      49.289  10.215  11.387  0.00  0.00    +0.000 A 
ATOM     18  C   UNL     1      49.571   8.853  11.544  0.00  0.00    +0.000 A 
ATOM     19  C   UNL     1      48.555   7.972  11.929  0.00  0.00    +0.000 A 
ATOM     20  C   UNL     1      47.255   8.441  12.171  0.00  0.00    +0.000 A 
ATOM     21  C   UNL     1      46.991   9.810  12.033  0.00  0.00    +0.000 A 
ATOM     22  C   UNL     1      48.002  10.693  11.652  0.00  0.00    +0.000 A 
BRANCH  17  24
ATOM     23  N   UNL     1      50.462  12.327  11.674  0.00  0.00    +0.000 N 
ATOM     24  C   UNL     1      50.325  11.181  10.940  0.00  0.00    +0.000 C 
ATOM     25  O   UNL     1      51.067  10.942   9.997  0.00  0.00    +0.000 OA
ATOM     26  H   UNL     1      51.256  12.910  11.442  0.00  0.00    +0.000 HD
ATOM     27  H   UNL     1      50.061  12.423  12.595  0.00  0.00    +0.000 HD
ENDBRANCH  17  24
ENDBRANCH  16  20
ENDBRANCH  15  16
ENDBRANCH   1  15
TORSDOF 6
ENDMDL
