MODEL 1
REMARK VINA RESULT:    -8.265      0.000      0.000
REMARK INTER + INTRA:         -12.371
REMARK INTER:                 -11.647
REMARK INTRA:                  -0.724
REMARK UNBOUND:                -0.724
REMARK  Name = 
REMARK  7 active torsions:
REMARK  status: ('A' for Active; 'I' for Inactive)
REMARK    1  A    between atoms: C_2  and  C_4
REMARK    2  A    between atoms: C_7  and  O_8
REMARK    3  A    between atoms: O_8  and  C_9
REMARK    4  A    between atoms: C_9  and  C_10
REMARK    5  A    between atoms: C_10  and  C_11
REMARK    6  A    between atoms: C_15  and  N_16
REMARK    7  A    between atoms: N_16  and  C_17
REMARK                            x       y       z     vdW  Elec       q    Type
REMARK                         _______ _______ _______ _____ _____    ______ ____
ROOT
ATOM      1  C   UNL     1      43.239   5.037  12.262  0.00  0.00    +0.000 C 
ENDROOT
BRANCH   1   2
ATOM      2  C   UNL     1      44.632   5.321  12.782  0.00  0.00    +0.000 A 
ATOM      3  C   UNL     1      45.328   6.461  12.362  0.00  0.00    +0.000 A 
ATOM      4  C   UNL     1      46.626   6.700  12.815  0.00  0.00    +0.000 A 
ATOM      5  C   UNL     1      47.252   5.793  13.675  0.00  0.00    +0.000 A 
ATOM      6  C   UNL     1      46.586   4.640  14.095  0.00  0.00    +0.000 A 
ATOM      7  C   UNL     1      45.271   4.422  13.653  0.00  0.00    +0.000 A 
BRANCH   6   8
ATOM      8  N   UNL     1      47.161   3.705  14.987  0.00  0.00    +0.000 N 
ATOM      9  H   UNL     1      46.513   2.927  15.109  0.00  0.00    +0.000 HD
BRANCH   8  10
ATOM     10  C   UNL     1      47.859   4.031  16.206  0.00  0.00    +0.000 C 
ATOM     11  C   UNL     1      48.380   2.776  16.939  0.00  0.00    +0.000 C 
ATOM     12  N   UNL     1      47.797   3.269  18.199  0.00  0.00    +0.000 NA
ATOM     13  C   UNL     1      46.983   4.246  17.453  0.00  0.00    +0.000 C 
ATOM     14  H   UNL     1      48.484   3.699  18.820  0.00  0.00    +0.000 HD
ENDBRANCH   8  10
ENDBRANCH   6   8
ENDBRANCH   1   2
BRANCH   1  15
ATOM     15  C   UNL     1      43.270   4.102  11.054  0.00  0.00    +0.000 C 
BRANCH  15  16
ATOM     16  O   UNL     1      43.763   4.800   9.896  0.00  0.00    +0.000 OA
BRANCH  16  20
ATOM     17  C   UNL     1      46.401   2.453   7.754  0.00  0.00    +0.000 A 
ATOM     18  C   UNL     1      45.579   1.861   8.715  0.00  0.00    +0.000 A 
ATOM     19  C   UNL     1      44.696   2.662   9.447  0.00  0.00    +0.000 A 
ATOM     20  C   UNL     1      44.665   4.025   9.185  0.00  0.00    +0.000 A 
ATOM     21  N   UNL     1      45.465   4.618   8.272  0.00  0.00    +0.000 NA
ATOM     22  C   UNL     1      46.319   3.826   7.588  0.00  0.00    +0.000 A 
BRANCH  17  24
ATOM     23  N   UNL     1      48.441   2.389   6.438  0.00  0.00    +0.000 N 
ATOM     24  C   UNL     1      47.353   1.706   6.903  0.00  0.00    +0.000 C 
ATOM     25  O   UNL     1      47.207   0.517   6.673  0.00  0.00    +0.000 OA
ATOM     26  H   UNL     1      49.151   1.824   5.982  0.00  0.00    +0.000 HD
ATOM     27  H   UNL     1      48.730   3.277   6.818  0.00  0.00    +0.000 HD
ENDBRANCH  17  24
ENDBRANCH  16  20
ENDBRANCH  15  16
ENDBRANCH   1  15
TORSDOF 7
ENDMDL
MODEL 2
REMARK VINA RESULT:    -7.832      2.773      4.508
REMARK INTER + INTRA:         -11.760
REMARK INTER:                 -10.890
REMARK INTRA:                  -0.871
REMARK UNBOUND:                -0.724
REMARK  Name = 
REMARK  7 active torsions:
REMARK  status: ('A' for Active; 'I' for Inactive)
REMARK    1  A    between atoms: C_2  and  C_4
REMARK    2  A    between atoms: C_7  and  O_8
REMARK    3  A    between atoms: O_8  and  C_9
REMARK    4  A    between atoms: C_9  and  C_10
REMARK    5  A    between atoms: C_10  and  C_11
REMARK    6  A    between atoms: C_15  and  N_16
REMARK    7  A    between atoms: N_16  and  C_17
REMARK                            x       y       z     vdW  Elec       q    Type
REMARK                         _______ _______ _______ _____ _____    ______ ____
ROOT
ATOM      1  C   UNL     1      43.400   4.046  12.798  0.00  0.00    +0.000 C 
ENDROOT
BRANCH   1   2
ATOM      2  C   UNL     1      44.556   5.021  12.843  0.00  0.00    +0.000 A 
ATOM      3  C   UNL     1      45.864   4.563  13.042  0.00  0.00    +0.000 A 
ATOM      4  C   UNL     1      46.923   5.468  13.120  0.00  0.00    +0.000 A 
ATOM      5  C   UNL     1      46.686   6.842  13.023  0.00  0.00    +0.000 A 
ATOM      6  C   UNL     1      45.389   7.326  12.842  0.00  0.00    +0.000 A 
ATOM      7  C   UNL     1      44.334   6.404  12.739  0.00  0.00    +0.000 A 
BRANCH   6   8
ATOM      8  N   UNL     1      45.097   8.703  12.708  0.00  0.00    +0.000 N 
ATOM      9  H   UNL     1      44.339   8.942  13.350  0.00  0.00    +0.000 HD
BRANCH   8  10
ATOM     10  C   UNL     1      45.002   9.421  11.461  0.00  0.00    +0.000 C 
ATOM     11  C   UNL     1      45.075  10.951  11.657  0.00  0.00    +0.000 C 
ATOM     12  N   UNL     1      43.883  11.117  10.807  0.00  0.00    +0.000 NA
ATOM     13  C   UNL     1      43.580   9.679  10.932  0.00  0.00    +0.000 C 
ATOM     14  H   UNL     1      44.104  11.406   9.855  0.00  0.00    +0.000 HD
ENDBRANCH   8  10
ENDBRANCH   6   8
ENDBRANCH   1   2
BRANCH   1  15
ATOM     15  C   UNL     1      43.548   3.050  11.647  0.00  0.00    +0.000 C 
BRANCH  15  16
ATOM     16  O   UNL     1      43.443   3.730  10.383  0.00  0.00    +0.000 OA
BRANCH  16  20
ATOM     17  C   UNL     1      46.377   2.470   7.764  0.00  0.00    +0.000 A 
ATOM     18  C   UNL     1      46.110   3.835   7.892  0.00  0.00    +0.000 A 
ATOM     19  C   UNL     1      45.106   4.257   8.771  0.00  0.00    +0.000 A 
ATOM     20  C   UNL     1      44.412   3.295   9.493  0.00  0.00    +0.000 A 
ATOM     21  N   UNL     1      44.644   1.970   9.369  0.00  0.00    +0.000 NA
ATOM     22  C   UNL     1      45.607   1.587   8.504  0.00  0.00    +0.000 A 
BRANCH  17  24
ATOM     23  N   UNL     1      48.442   2.747   6.517  0.00  0.00    +0.000 N 
ATOM     24  C   UNL     1      47.429   1.910   6.887  0.00  0.00    +0.000 C 
ATOM     25  O   UNL     1      47.425   0.736   6.555  0.00  0.00    +0.000 OA
ATOM     26  H   UNL     1      49.222   2.307   6.040  0.00  0.00    +0.000 HD
ATOM     27  H   UNL     1      48.618   3.626   6.978  0.00  0.00    +0.000 HD
ENDBRANCH  17  24
ENDBRANCH  16  20
ENDBRANCH  15  16
ENDBRANCH   1  15
TORSDOF 7
ENDMDL
MODEL 3
REMARK VINA RESULT:    -7.377      2.497      3.706
REMARK INTER + INTRA:         -11.120
REMARK INTER:                 -10.347
REMARK INTRA:                  -0.773
REMARK UNBOUND:                -0.724
REMARK  Name = 
REMARK  7 active torsions:
REMARK  status: ('A' for Active; 'I' for Inactive)
REMARK    1  A    between atoms: C_2  and  C_4
REMARK    2  A    between atoms: C_7  and  O_8
REMARK    3  A    between atoms: O_8  and  C_9
REMARK    4  A    between atoms: C_9  and  C_10
REMARK    5  A    between atoms: C_10  and  C_11
REMARK    6  A    between atoms: C_15  and  N_16
REMARK    7  A    between atoms: N_16  and  C_17
REMARK                            x       y       z     vdW  Elec       q    Type
REMARK                         _______ _______ _______ _____ _____    ______ ____
ROOT
ATOM      1  C   UNL     1      43.283   5.159  12.285  0.00  0.00    +0.000 C 
ENDROOT
BRANCH   1   2
ATOM      2  C   UNL     1      44.686   5.617  12.617  0.00  0.00    +0.000 A 
ATOM      3  C   UNL     1      45.633   4.710  13.106  0.00  0.00    +0.000 A 
ATOM      4  C   UNL     1      46.915   5.144  13.445  0.00  0.00    +0.000 A 
ATOM      5  C   UNL     1      47.260   6.492  13.320  0.00  0.00    +0.000 A 
ATOM      6  C   UNL     1      46.330   7.420  12.851  0.00  0.00    +0.000 A 
ATOM      7  C   UNL     1      45.050   6.968  12.488  0.00  0.00    +0.000 A 
BRANCH   6   8
ATOM      8  N   UNL     1      46.635   8.791  12.677  0.00  0.00    +0.000 N 
ATOM      9  H   UNL     1      45.995   9.185  11.987  0.00  0.00    +0.000 HD
BRANCH   8  10
ATOM     10  C   UNL     1      47.962   9.345  12.568  0.00  0.00    +0.000 C 
ATOM     11  C   UNL     1      48.506   9.838  13.926  0.00  0.00    +0.000 C 
ATOM     12  N   UNL     1      48.894  11.118  13.307  0.00  0.00    +0.000 NA
ATOM     13  C   UNL     1      48.048  10.819  12.135  0.00  0.00    +0.000 C 
ATOM     14  H   UNL     1      49.889  11.175  13.088  0.00  0.00    +0.000 HD
ENDBRANCH   8  10
ENDBRANCH   6   8
ENDBRANCH   1   2
BRANCH   1  15
ATOM     15  C   UNL     1      43.273   4.176  11.115  0.00  0.00    +0.000 C 
BRANCH  15  16
ATOM     16  O   UNL     1      43.720   4.827   9.912  0.00  0.00    +0.000 OA
BRANCH  16  20
ATOM     17  C   UNL     1      46.388   2.459   7.834  0.00  0.00    +0.000 A 
ATOM     18  C   UNL     1      45.558   1.877   8.795  0.00  0.00    +0.000 A 
ATOM     19  C   UNL     1      44.664   2.686   9.506  0.00  0.00    +0.000 A 
ATOM     20  C   UNL     1      44.633   4.045   9.223  0.00  0.00    +0.000 A 
ATOM     21  N   UNL     1      45.441   4.627   8.310  0.00  0.00    +0.000 NA
ATOM     22  C   UNL     1      46.304   3.829   7.647  0.00  0.00    +0.000 A 
BRANCH  17  24
ATOM     23  N   UNL     1      48.410   2.396   6.489  0.00  0.00    +0.000 N 
ATOM     24  C   UNL     1      47.352   1.702   7.005  0.00  0.00    +0.000 C 
ATOM     25  O   UNL     1      47.242   0.499   6.834  0.00  0.00    +0.000 OA
ATOM     26  H   UNL     1      49.131   1.833   6.050  0.00  0.00    +0.000 HD
ATOM     27  H   UNL     1      48.675   3.310   6.822  0.00  0.00    +0.000 HD
ENDBRANCH  17  24
ENDBRANCH  16  20
ENDBRANCH  15  16
ENDBRANCH   1  15
TORSDOF 7
ENDMDL
MODEL 4
REMARK VINA RESULT:    -7.079      1.913      2.388
REMARK INTER + INTRA:         -10.700
REMARK INTER:                 -10.517
REMARK INTRA:                  -0.184
REMARK UNBOUND:                -0.724
REMARK  Name = 
REMARK  7 active torsions:
REMARK  status: ('A' for Active; 'I' for Inactive)
REMARK    1  A    between atoms: C_2  and  C_4
REMARK    2  A    between atoms: C_7  and  O_8
REMARK    3  A    between atoms: O_8  and  C_9
REMARK    4  A    between atoms: C_9  and  C_10
REMARK    5  A    between atoms: C_10  and  C_11
REMARK    6  A    between atoms: C_15  and  N_16
REMARK    7  A    between atoms: N_16  and  C_17
REMARK                            x       y       z     vdW  Elec       q    Type
REMARK                         _______ _______ _______ _____ _____    ______ ____
ROOT
ATOM      1  C   UNL     1      45.021   4.446  11.604  0.00  0.00    +0.000 C 
ENDROOT
BRANCH   1   2
ATOM      2  C   UNL     1      45.324   5.876  11.996  0.00  0.00    +0.000 A 
ATOM      3  C   UNL     1      44.622   6.936  11.411  0.00  0.00    +0.000 A 
ATOM      4  C   UNL     1      44.930   8.255  11.749  0.00  0.00    +0.000 A 
ATOM      5  C   UNL     1      45.956   8.530  12.657  0.00  0.00    +0.000 A 
ATOM      6  C   UNL     1      46.682   7.492  13.241  0.00  0.00    +0.000 A 
ATOM      7  C   UNL     1      46.347   6.167  12.914  0.00  0.00    +0.000 A 
BRANCH   6   8
ATOM      8  N   UNL     1      47.710   7.713  14.188  0.00  0.00    +0.000 N 
ATOM      9  H   UNL     1      47.987   8.694  14.148  0.00  0.00    +0.000 HD
BRANCH   8  10
ATOM     10  C   UNL     1      48.831   6.837  14.426  0.00  0.00    +0.000 C 
ATOM     11  C   UNL     1      48.818   6.239  15.849  0.00  0.00    +0.000 C 
ATOM     12  N   UNL     1      50.231   6.621  16.022  0.00  0.00    +0.000 NA
ATOM     13  C   UNL     1      50.143   7.517  14.854  0.00  0.00    +0.000 C 
ATOM     14  H   UNL     1      50.878   5.843  15.893  0.00  0.00    +0.000 HD
ENDBRANCH   8  10
ENDBRANCH   6   8
ENDBRANCH   1   2
BRANCH   1  15
ATOM     15  C   UNL     1      43.591   4.296  11.083  0.00  0.00    +0.000 C 
BRANCH  15  16
ATOM     16  O   UNL     1      43.543   4.574   9.672  0.00  0.00    +0.000 OA
BRANCH  16  20
ATOM     17  C   UNL     1      46.524   2.589   7.617  0.00  0.00    +0.000 A 
ATOM     18  C   UNL     1      45.659   1.866   8.441  0.00  0.00    +0.000 A 
ATOM     19  C   UNL     1      44.659   2.544   9.145  0.00  0.00    +0.000 A 
ATOM     20  C   UNL     1      44.559   3.921   8.993  0.00  0.00    +0.000 A 
ATOM     21  N   UNL     1      45.398   4.639   8.215  0.00  0.00    +0.000 NA
ATOM     22  C   UNL     1      46.364   3.964   7.557  0.00  0.00    +0.000 A 
BRANCH  17  24
ATOM     23  N   UNL     1      48.184   2.763   5.852  0.00  0.00    +0.000 N 
ATOM     24  C   UNL     1      47.601   1.978   6.806  0.00  0.00    +0.000 C 
ATOM     25  O   UNL     1      47.993   0.842   7.017  0.00  0.00    +0.000 OA
ATOM     26  H   UNL     1      49.011   2.375   5.411  0.00  0.00    +0.000 HD
ATOM     27  H   UNL     1      48.074   3.765   5.830  0.00  0.00    +0.000 HD
ENDBRANCH  17  24
ENDBRANCH  16  20
ENDBRANCH  15  16
ENDBRANCH   1  15
TORSDOF 7
ENDMDL
MODEL 5
REMARK VINA RESULT:    -6.969      2.655      8.125
REMARK INTER + INTRA:         -10.544
REMARK INTER:                  -9.918
REMARK INTRA:                  -0.626
REMARK UNBOUND:                -0.724
REMARK  Name = 
REMARK  7 active torsions:
REMARK  status: ('A' for Active; 'I' for Inactive)
REMARK    1  A    between atoms: C_2  and  C_4
REMARK    2  A    between atoms: C_7  and  O_8
REMARK    3  A    between atoms: O_8  and  C_9
REMARK    4  A    between atoms: C_9  and  C_10
REMARK    5  A    between atoms: C_10  and  C_11
REMARK    6  A    between atoms: C_15  and  N_16
REMARK    7  A    between atoms: N_16  and  C_17
REMARK                            x       y       z     vdW  Elec       q    Type
REMARK                         _______ _______ _______ _____ _____    ______ ____
ROOT
ATOM      1  C   UNL     1      45.389   6.285  11.229  0.00  0.00    +0.000 C 
ENDROOT
BRANCH   1   2
ATOM      2  C   UNL     1      45.075   4.995  10.504  0.00  0.00    +0.000 A 
ATOM      3  C   UNL     1      44.346   3.983  11.140  0.00  0.00    +0.000 A 
ATOM      4  C   UNL     1      44.090   2.780  10.481  0.00  0.00    +0.000 A 
ATOM      5  C   UNL     1      44.576   2.565   9.189  0.00  0.00    +0.000 A 
ATOM      6  C   UNL     1      45.319   3.551   8.539  0.00  0.00    +0.000 A 
ATOM      7  C   UNL     1      45.550   4.768   9.202  0.00  0.00    +0.000 A 
BRANCH   6   8
ATOM      8  N   UNL     1      45.810   3.398   7.221  0.00  0.00    +0.000 N 
ATOM      9  H   UNL     1      45.183   2.777   6.707  0.00  0.00    +0.000 HD
BRANCH   8  10
ATOM     10  C   UNL     1      47.192   3.199   6.859  0.00  0.00    +0.000 C 
ATOM     11  C   UNL     1      47.365   2.858   5.363  0.00  0.00    +0.000 C 
ATOM     12  N   UNL     1      48.229   1.720   5.723  0.00  0.00    +0.000 NA
ATOM     13  C   UNL     1      47.766   1.796   7.121  0.00  0.00    +0.000 C 
ATOM     14  H   UNL     1      49.224   1.918   5.611  0.00  0.00    +0.000 HD
ENDBRANCH   8  10
ENDBRANCH   6   8
ENDBRANCH   1   2
BRANCH   1  15
ATOM     15  C   UNL     1      45.712   6.039  12.702  0.00  0.00    +0.000 C 
BRANCH  15  16
ATOM     16  O   UNL     1      47.121   6.213  12.940  0.00  0.00    +0.000 OA
BRANCH  16  20
ATOM     17  C   UNL     1      48.234   4.686  16.611  0.00  0.00    +0.000 A 
ATOM     18  C   UNL     1      47.221   4.057  15.884  0.00  0.00    +0.000 A 
ATOM     19  C   UNL     1      46.838   4.586  14.646  0.00  0.00    +0.000 A 
ATOM     20  C   UNL     1      47.489   5.721  14.181  0.00  0.00    +0.000 A 
ATOM     21  N   UNL     1      48.459   6.352  14.879  0.00  0.00    +0.000 NA
ATOM     22  C   UNL     1      48.800   5.832  16.076  0.00  0.00    +0.000 A 
BRANCH  17  24
ATOM     23  N   UNL     1      49.561   5.043  18.614  0.00  0.00    +0.000 N 
ATOM     24  C   UNL     1      48.739   4.205  17.916  0.00  0.00    +0.000 C 
ATOM     25  O   UNL     1      48.392   3.130  18.379  0.00  0.00    +0.000 OA
ATOM     26  H   UNL     1      49.776   4.757  19.563  0.00  0.00    +0.000 HD
ATOM     27  H   UNL     1      49.652   6.023  18.394  0.00  0.00    +0.000 HD
ENDBRANCH  17  24
ENDBRANCH  16  20
ENDBRANCH  15  16
ENDBRANCH   1  15
TORSDOF 7
ENDMDL
MODEL 6
REMARK VINA RESULT:    -6.966      2.185      2.678
REMARK INTER + INTRA:         -10.541
REMARK INTER:                  -9.989
REMARK INTRA:                  -0.552
REMARK UNBOUND:                -0.724
REMARK  Name = 
REMARK  7 active torsions:
REMARK  status: ('A' for Active; 'I' for Inactive)
REMARK    1  A    between atoms: C_2  and  C_4
REMARK    2  A    between atoms: C_7  and  O_8
REMARK    3  A    between atoms: O_8  and  C_9
REMARK    4  A    between atoms: C_9  and  C_10
REMARK    5  A    between atoms: C_10  and  C_11
REMARK    6  A    between atoms: C_15  and  N_16
REMARK    7  A    between atoms: N_16  and  C_17
REMARK                            x       y       z     vdW  Elec       q    Type
REMARK                         _______ _______ _______ _____ _____    ______ ____
ROOT
ATOM      1  C   UNL     1      45.435   4.952  12.091  0.00  0.00    +0.000 C 
ENDROOT
BRANCH   1   2
ATOM      2  C   UNL     1      46.571   5.892  12.434  0.00  0.00    +0.000 A 
ATOM      3  C   UNL     1      47.026   6.828  11.498  0.00  0.00    +0.000 A 
ATOM      4  C   UNL     1      48.097   7.667  11.805  0.00  0.00    +0.000 A 
ATOM      5  C   UNL     1      48.740   7.568  13.041  0.00  0.00    +0.000 A 
ATOM      6  C   UNL     1      48.318   6.631  13.986  0.00  0.00    +0.000 A 
ATOM      7  C   UNL     1      47.222   5.809  13.676  0.00  0.00    +0.000 A 
BRANCH   6   8
ATOM      8  N   UNL     1      48.914   6.508  15.263  0.00  0.00    +0.000 N 
ATOM      9  H   UNL     1      48.534   5.681  15.724  0.00  0.00    +0.000 HD
BRANCH   8  10
ATOM     10  C   UNL     1      49.144   7.591  16.187  0.00  0.00    +0.000 C 
ATOM     11  C   UNL     1      48.407   7.385  17.529  0.00  0.00    +0.000 C 
ATOM     12  N   UNL     1      47.878   8.758  17.449  0.00  0.00    +0.000 NA
ATOM     13  C   UNL     1      48.243   8.828  16.021  0.00  0.00    +0.000 C 
ATOM     14  H   UNL     1      48.387   9.421  18.033  0.00  0.00    +0.000 HD
ENDBRANCH   8  10
ENDBRANCH   6   8
ENDBRANCH   1   2
BRANCH   1  15
ATOM     15  C   UNL     1      44.566   5.508  10.964  0.00  0.00    +0.000 C 
BRANCH  15  16
ATOM     16  O   UNL     1      43.869   4.438  10.299  0.00  0.00    +0.000 OA
BRANCH  16  20
ATOM     17  C   UNL     1      46.414   2.430   7.741  0.00  0.00    +0.000 A 
ATOM     18  C   UNL     1      46.299   3.819   7.645  0.00  0.00    +0.000 A 
ATOM     19  C   UNL     1      45.426   4.494   8.505  0.00  0.00    +0.000 A 
ATOM     20  C   UNL     1      44.705   3.752   9.433  0.00  0.00    +0.000 A 
ATOM     21  N   UNL     1      44.791   2.407   9.528  0.00  0.00    +0.000 NA
ATOM     22  C   UNL     1      45.629   1.777   8.677  0.00  0.00    +0.000 A 
BRANCH  17  24
ATOM     23  N   UNL     1      48.487   2.198   6.496  0.00  0.00    +0.000 N 
ATOM     24  C   UNL     1      47.321   1.614   6.903  0.00  0.00    +0.000 C 
ATOM     25  O   UNL     1      47.068   0.451   6.635  0.00  0.00    +0.000 OA
ATOM     26  H   UNL     1      49.155   1.578   6.050  0.00  0.00    +0.000 HD
ATOM     27  H   UNL     1      48.846   3.044   6.911  0.00  0.00    +0.000 HD
ENDBRANCH  17  24
ENDBRANCH  16  20
ENDBRANCH  15  16
ENDBRANCH   1  15
TORSDOF 7
ENDMDL
MODEL 7
REMARK VINA RESULT:    -6.607      3.164      8.457
REMARK INTER + INTRA:         -10.035
REMARK INTER:                  -9.488
REMARK INTRA:                  -0.547
REMARK UNBOUND:                -0.724
REMARK  Name = 
REMARK  7 active torsions:
REMARK  status: ('A' for Active; 'I' for Inactive)
REMARK    1  A    between atoms: C_2  and  C_4
REMARK    2  A    between atoms: C_7  and  O_8
REMARK    3  A    between atoms: O_8  and  C_9
REMARK    4  A    between atoms: C_9  and  C_10
REMARK    5  A    between atoms: C_10  and  C_11
REMARK    6  A    between atoms: C_15  and  N_16
REMARK    7  A    between atoms: N_16  and  C_17
REMARK                            x       y       z     vdW  Elec       q    Type
REMARK                         _______ _______ _______ _____ _____    ______ ____
ROOT
ATOM      1  C   UNL     1      46.463   5.944  13.016  0.00  0.00    +0.000 C 
ENDROOT
BRANCH   1   2
ATOM      2  C   UNL     1      45.230   5.290  12.433  0.00  0.00    +0.000 A 
ATOM      3  C   UNL     1      43.955   5.791  12.724  0.00  0.00    +0.000 A 
ATOM      4  C   UNL     1      42.819   5.163  12.213  0.00  0.00    +0.000 A 
ATOM      5  C   UNL     1      42.940   4.016  11.424  0.00  0.00    +0.000 A 
ATOM      6  C   UNL     1      44.198   3.486  11.133  0.00  0.00    +0.000 A 
ATOM      7  C   UNL     1      45.337   4.141  11.631  0.00  0.00    +0.000 A 
BRANCH   6   8
ATOM      8  N   UNL     1      44.380   2.346  10.316  0.00  0.00    +0.000 N 
ATOM      9  H   UNL     1      45.052   1.724  10.765  0.00  0.00    +0.000 HD
BRANCH   8  10
ATOM     10  C   UNL     1      44.524   2.359   8.880  0.00  0.00    +0.000 C 
ATOM     11  C   UNL     1      45.947   1.964   8.429  0.00  0.00    +0.000 C 
ATOM     12  N   UNL     1      45.993   3.142   7.544  0.00  0.00    +0.000 NA
ATOM     13  C   UNL     1      44.832   3.725   8.242  0.00  0.00    +0.000 C 
ATOM     14  H   UNL     1      45.812   2.918   6.566  0.00  0.00    +0.000 HD
ENDBRANCH   8  10
ENDBRANCH   6   8
ENDBRANCH   1   2
BRANCH   1  15
ATOM     15  C   UNL     1      47.343   4.932  13.750  0.00  0.00    +0.000 C 
BRANCH  15  16
ATOM     16  O   UNL     1      46.594   4.286  14.795  0.00  0.00    +0.000 OA
BRANCH  16  20
ATOM     17  C   UNL     1      48.551   4.554  18.422  0.00  0.00    +0.000 A 
ATOM     18  C   UNL     1      48.859   5.462  17.406  0.00  0.00    +0.000 A 
ATOM     19  C   UNL     1      48.203   5.359  16.175  0.00  0.00    +0.000 A 
ATOM     20  C   UNL     1      47.258   4.355  16.009  0.00  0.00    +0.000 A 
ATOM     21  N   UNL     1      46.961   3.457  16.974  0.00  0.00    +0.000 NA
ATOM     22  C   UNL     1      47.618   3.567  18.148  0.00  0.00    +0.000 A 
BRANCH  17  24
ATOM     23  N   UNL     1      48.483   3.946  20.772  0.00  0.00    +0.000 N 
ATOM     24  C   UNL     1      49.161   4.580  19.770  0.00  0.00    +0.000 C 
ATOM     25  O   UNL     1      50.250   5.094  19.969  0.00  0.00    +0.000 OA
ATOM     26  H   UNL     1      48.985   3.851  21.649  0.00  0.00    +0.000 HD
ATOM     27  H   UNL     1      47.733   3.295  20.596  0.00  0.00    +0.000 HD
ENDBRANCH  17  24
ENDBRANCH  16  20
ENDBRANCH  15  16
ENDBRANCH   1  15
TORSDOF 7
ENDMDL
MODEL 8
REMARK VINA RESULT:    -6.549      3.671      8.291
REMARK INTER + INTRA:          -9.953
REMARK INTER:                  -9.431
REMARK INTRA:                  -0.522
REMARK UNBOUND:                -0.724
REMARK  Name = 
REMARK  7 active torsions:
REMARK  status: ('A' for Active; 'I' for Inactive)
REMARK    1  A    between atoms: C_2  and  C_4
REMARK    2  A    between atoms: C_7  and  O_8
REMARK    3  A    between atoms: O_8  and  C_9
REMARK    4  A    between atoms: C_9  and  C_10
REMARK    5  A    between atoms: C_10  and  C_11
REMARK    6  A    between atoms: C_15  and  N_16
REMARK    7  A    between atoms: N_16  and  C_17
REMARK                            x       y       z     vdW  Elec       q    Type
REMARK                         _______ _______ _______ _____ _____    ______ ____
ROOT
ATOM      1  C   UNL     1      47.340   4.387  14.082  0.00  0.00    +0.000 C 
ENDROOT
BRANCH   1   2
ATOM      2  C   UNL     1      46.099   4.513  13.226  0.00  0.00    +0.000 A 
ATOM      3  C   UNL     1      45.261   5.627  13.350  0.00  0.00    +0.000 A 
ATOM      4  C   UNL     1      44.097   5.722  12.585  0.00  0.00    +0.000 A 
ATOM      5  C   UNL     1      43.746   4.696  11.703  0.00  0.00    +0.000 A 
ATOM      6  C   UNL     1      44.555   3.566  11.574  0.00  0.00    +0.000 A 
ATOM      7  C   UNL     1      45.737   3.493  12.330  0.00  0.00    +0.000 A 
BRANCH   6   8
ATOM      8  N   UNL     1      44.263   2.513  10.676  0.00  0.00    +0.000 N 
ATOM      9  H   UNL     1      44.635   1.643  11.058  0.00  0.00    +0.000 HD
BRANCH   8  10
ATOM     10  C   UNL     1      44.391   2.576   9.240  0.00  0.00    +0.000 C 
ATOM     11  C   UNL     1      45.590   1.754   8.720  0.00  0.00    +0.000 C 
ATOM     12  N   UNL     1      46.028   2.904   7.911  0.00  0.00    +0.000 NA
ATOM     13  C   UNL     1      45.141   3.797   8.680  0.00  0.00    +0.000 C 
ATOM     14  H   UNL     1      45.774   2.825   6.926  0.00  0.00    +0.000 HD
ENDBRANCH   8  10
ENDBRANCH   6   8
ENDBRANCH   1   2
BRANCH   1  15
ATOM     15  C   UNL     1      46.996   4.354  15.571  0.00  0.00    +0.000 C 
BRANCH  15  16
ATOM     16  O   UNL     1      47.267   3.050  16.116  0.00  0.00    +0.000 OA
BRANCH  16  20
ATOM     17  C   UNL     1      51.116   2.787  17.590  0.00  0.00    +0.000 A 
ATOM     18  C   UNL     1      50.348   3.919  17.873  0.00  0.00    +0.000 A 
ATOM     19  C   UNL     1      49.049   4.009  17.360  0.00  0.00    +0.000 A 
ATOM     20  C   UNL     1      48.566   2.960  16.589  0.00  0.00    +0.000 A 
ATOM     21  N   UNL     1      49.301   1.866  16.291  0.00  0.00    +0.000 NA
ATOM     22  C   UNL     1      50.556   1.809  16.784  0.00  0.00    +0.000 A 
BRANCH  17  24
ATOM     23  N   UNL     1      52.810   3.145  19.293  0.00  0.00    +0.000 N 
ATOM     24  C   UNL     1      52.489   2.570  18.096  0.00  0.00    +0.000 C 
ATOM     25  O   UNL     1      53.285   1.861  17.501  0.00  0.00    +0.000 OA
ATOM     26  H   UNL     1      53.702   2.865  19.688  0.00  0.00    +0.000 HD
ATOM     27  H   UNL     1      52.115   3.505  19.928  0.00  0.00    +0.000 HD
ENDBRANCH  17  24
ENDBRANCH  16  20
ENDBRANCH  15  16
ENDBRANCH   1  15
TORSDOF 7
ENDMDL
MODEL 9
REMARK VINA RESULT:    -6.415      3.664      5.529
REMARK INTER + INTRA:          -9.765
REMARK INTER:                  -9.137
REMARK INTRA:                  -0.628
REMARK UNBOUND:                -0.724
REMARK  Name = 
REMARK  7 active torsions:
REMARK  status: ('A' for Active; 'I' for Inactive)
REMARK    1  A    between atoms: C_2  and  C_4
REMARK    2  A    between atoms: C_7  and  O_8
REMARK    3  A    between atoms: O_8  and  C_9
REMARK    4  A    between atoms: C_9  and  C_10
REMARK    5  A    between atoms: C_10  and  C_11
REMARK    6  A    between atoms: C_15  and  N_16
REMARK    7  A    between atoms: N_16  and  C_17
REMARK                            x       y       z     vdW  Elec       q    Type
REMARK                         _______ _______ _______ _____ _____    ______ ____
ROOT
ATOM      1  C   UNL     1      48.461   7.730  14.879  0.00  0.00    +0.000 C 
ENDROOT
BRANCH   1   2
ATOM      2  C   UNL     1      49.450   6.980  15.745  0.00  0.00    +0.000 A 
ATOM      3  C   UNL     1      50.821   7.249  15.654  0.00  0.00    +0.000 A 
ATOM      4  C   UNL     1      51.732   6.530  16.428  0.00  0.00    +0.000 A 
ATOM      5  C   UNL     1      51.288   5.520  17.285  0.00  0.00    +0.000 A 
ATOM      6  C   UNL     1      49.929   5.220  17.382  0.00  0.00    +0.000 A 
ATOM      7  C   UNL     1      49.017   5.967  16.617  0.00  0.00    +0.000 A 
BRANCH   6   8
ATOM      8  N   UNL     1      49.422   4.228  18.255  0.00  0.00    +0.000 N 
ATOM      9  H   UNL     1      49.895   4.312  19.156  0.00  0.00    +0.000 HD
BRANCH   8  10
ATOM     10  C   UNL     1      49.162   2.855  17.900  0.00  0.00    +0.000 C 
ATOM     11  C   UNL     1      50.366   2.191  17.196  0.00  0.00    +0.000 C 
ATOM     12  N   UNL     1      49.471   1.694  16.135  0.00  0.00    +0.000 NA
ATOM     13  C   UNL     1      48.415   2.626  16.575  0.00  0.00    +0.000 C 
ATOM     14  H   UNL     1      49.221   0.712  16.247  0.00  0.00    +0.000 HD
ENDBRANCH   8  10
ENDBRANCH   6   8
ENDBRANCH   1   2
BRANCH   1  15
ATOM     15  C   UNL     1      48.647   7.400  13.398  0.00  0.00    +0.000 C 
BRANCH  15  16
ATOM     16  O   UNL     1      48.386   6.005  13.161  0.00  0.00    +0.000 OA
BRANCH  16  20
ATOM     17  C   UNL     1      44.470   5.349  12.029  0.00  0.00    +0.000 A 
ATOM     18  C   UNL     1      45.250   6.257  11.310  0.00  0.00    +0.000 A 
ATOM     19  C   UNL     1      46.572   6.486  11.705  0.00  0.00    +0.000 A 
ATOM     20  C   UNL     1      47.065   5.791  12.802  0.00  0.00    +0.000 A 
ATOM     21  N   UNL     1      46.320   4.923  13.520  0.00  0.00    +0.000 NA
ATOM     22  C   UNL     1      45.043   4.730  13.128  0.00  0.00    +0.000 A 
BRANCH  17  24
ATOM     23  N   UNL     1      42.155   6.022  11.733  0.00  0.00    +0.000 N 
ATOM     24  C   UNL     1      43.070   5.008  11.690  0.00  0.00    +0.000 C 
ATOM     25  O   UNL     1      42.755   3.885  11.333  0.00  0.00    +0.000 OA
ATOM     26  H   UNL     1      41.238   5.800  11.358  0.00  0.00    +0.000 HD
ATOM     27  H   UNL     1      42.420   6.994  11.761  0.00  0.00    +0.000 HD
ENDBRANCH  17  24
ENDBRANCH  16  20
ENDBRANCH  15  16
ENDBRANCH   1  15
TORSDOF 7
ENDMDL
