MODEL 1
REMARK VINA RESULT:    -8.611      0.000      0.000
REMARK INTER + INTRA:         -12.019
REMARK INTER:                 -11.128
REMARK INTRA:                  -0.891
REMARK UNBOUND:                -0.891
REMARK  Name = 
REMARK  5 active torsions:
REMARK  status: ('A' for Active; 'I' for Inactive)
REMARK    1  A    between atoms: C_6  and  C_7
REMARK    2  A    between atoms: C_7  and  C_8
REMARK    3  A    between atoms: C_11  and  C_12
REMARK    4  A    between atoms: C_12  and  N_13
REMARK    5  A    between atoms: C_14  and  C_16
REMARK                            x       y       z     vdW  Elec       q    Type
REMARK                         _______ _______ _______ _____ _____    ______ ____
ROOT
ATOM      1  C   UNL     1      44.809   5.169  10.600  0.00  0.00    +0.000 A 
ATOM      2  C   UNL     1      44.348   5.370  11.910  0.00  0.00    +0.000 A 
ATOM      3  C   UNL     1      45.001   6.259  12.768  0.00  0.00    +0.000 A 
ATOM      4  C   UNL     1      46.134   6.961  12.337  0.00  0.00    +0.000 A 
ATOM      5  C   UNL     1      46.643   6.695  11.058  0.00  0.00    +0.000 A 
ATOM      6  C   UNL     1      45.981   5.819  10.193  0.00  0.00    +0.000 A 
ENDROOT
BRANCH   1   7
ATOM      7  C   UNL     1      44.032   4.300   9.634  0.00  0.00    +0.000 C 
BRANCH   7  13
ATOM      8  N   UNL     1      46.979   3.802   5.899  0.00  0.00    +0.000 N 
ATOM      9  C   UNL     1      46.333   3.185   6.970  0.00  0.00    +0.000 A 
ATOM     10  C   UNL     1      46.626   1.870   7.294  0.00  0.00    +0.000 A 
ATOM     11  C   UNL     1      45.981   1.290   8.378  0.00  0.00    +0.000 A 
ATOM     12  C   UNL     1      45.093   2.055   9.125  0.00  0.00    +0.000 A 
ATOM     13  C   UNL     1      44.875   3.385   8.765  0.00  0.00    +0.000 A 
ATOM     14  N   UNL     1      45.486   3.947   7.687  0.00  0.00    +0.000 NA
ATOM     15  H   UNL     1      46.921   3.247   5.054  0.00  0.00    +0.000 HD
ATOM     16  H   UNL     1      46.559   4.720   5.790  0.00  0.00    +0.000 HD
ENDBRANCH   7  13
ENDBRANCH   1   7
BRANCH   4  17
ATOM     17  C   UNL     1      46.801   7.985  13.222  0.00  0.00    +0.000 C 
BRANCH  17  18
ATOM     18  N   UNL     1      47.302   7.403  14.440  0.00  0.00    +0.000 N 
ATOM     19  C   UNL     1      48.506   6.741  14.468  0.00  0.00    +0.000 C 
ATOM     20  O   UNL     1      49.227   6.667  13.476  0.00  0.00    +0.000 OA
ATOM     21  H   UNL     1      46.624   7.227  15.178  0.00  0.00    +0.000 HD
BRANCH  19  22
ATOM     22  C   UNL     1      48.919   6.183  15.758  0.00  0.00    +0.000 A 
ATOM     23  C   UNL     1      49.968   6.761  16.459  0.00  0.00    +0.000 A 
ATOM     24  S   UNL     1      50.297   5.999  17.949  0.00  0.00    +0.000 S 
ATOM     25  C   UNL     1      49.080   4.840  17.690  0.00  0.00    +0.000 A 
ATOM     26  N   UNL     1      48.856   3.846  18.588  0.00  0.00    +0.000 NA
ATOM     27  C   UNL     1      47.919   3.020  18.252  0.00  0.00    +0.000 A 
ATOM     28  N   UNL     1      47.182   3.110  17.097  0.00  0.00    +0.000 N 
ATOM     29  C   UNL     1      47.348   4.115  16.175  0.00  0.00    +0.000 A 
ATOM     30  O   UNL     1      46.640   4.194  15.180  0.00  0.00    +0.000 OA
ATOM     31  C   UNL     1      48.406   5.052  16.493  0.00  0.00    +0.000 A 
ATOM     32  H   UNL     1      46.450   2.442  16.899  0.00  0.00    +0.000 HD
ENDBRANCH  19  22
ENDBRANCH  17  18
ENDBRANCH   4  17
TORSDOF 5
ENDMDL
MODEL 2
REMARK VINA RESULT:    -7.876      2.663      4.560
REMARK INTER + INTRA:         -11.069
REMARK INTER:                 -10.093
REMARK INTRA:                  -0.975
REMARK UNBOUND:                -0.891
REMARK  Name = 
REMARK  5 active torsions:
REMARK  status: ('A' for Active; 'I' for Inactive)
REMARK    1  A    between atoms: C_6  and  C_7
REMARK    2  A    between atoms: C_7  and  C_8
REMARK    3  A    between atoms: C_11  and  C_12
REMARK    4  A    between atoms: C_12  and  N_13
REMARK    5  A    between atoms: C_14  and  C_16
REMARK                            x       y       z     vdW  Elec       q    Type
REMARK                         _______ _______ _______ _____ _____    ______ ____
ROOT
ATOM      1  C   UNL     1      45.180   4.534  10.071  0.00  0.00    +0.000 A 
ATOM      2  C   UNL     1      45.840   5.758  10.259  0.00  0.00    +0.000 A 
ATOM      3  C   UNL     1      46.305   6.133  11.523  0.00  0.00    +0.000 A 
ATOM      4  C   UNL     1      46.114   5.294  12.628  0.00  0.00    +0.000 A 
ATOM      5  C   UNL     1      45.379   4.112  12.456  0.00  0.00    +0.000 A 
ATOM      6  C   UNL     1      44.929   3.729  11.189  0.00  0.00    +0.000 A 
ENDROOT
BRANCH   1   7
ATOM      7  C   UNL     1      44.785   4.076   8.684  0.00  0.00    +0.000 C 
BRANCH   7  13
ATOM      8  N   UNL     1      48.632   2.845   6.120  0.00  0.00    +0.000 N 
ATOM      9  C   UNL     1      47.545   2.413   6.879  0.00  0.00    +0.000 A 
ATOM     10  C   UNL     1      47.416   1.073   7.209  0.00  0.00    +0.000 A 
ATOM     11  C   UNL     1      46.334   0.678   7.984  0.00  0.00    +0.000 A 
ATOM     12  C   UNL     1      45.437   1.639   8.434  0.00  0.00    +0.000 A 
ATOM     13  C   UNL     1      45.650   2.976   8.096  0.00  0.00    +0.000 A 
ATOM     14  N   UNL     1      46.694   3.361   7.315  0.00  0.00    +0.000 NA
ATOM     15  H   UNL     1      48.741   2.299   5.274  0.00  0.00    +0.000 HD
ATOM     16  H   UNL     1      48.484   3.831   5.928  0.00  0.00    +0.000 HD
ENDBRANCH   7  13
ENDBRANCH   1   7
BRANCH   4  17
ATOM     17  C   UNL     1      46.682   5.645  13.980  0.00  0.00    +0.000 C 
BRANCH  17  18
ATOM     18  N   UNL     1      47.121   7.015  14.044  0.00  0.00    +0.000 N 
ATOM     19  C   UNL     1      48.384   7.336  14.479  0.00  0.00    +0.000 C 
ATOM     20  O   UNL     1      49.206   6.471  14.776  0.00  0.00    +0.000 OA
ATOM     21  H   UNL     1      46.397   7.729  14.058  0.00  0.00    +0.000 HD
BRANCH  19  22
ATOM     22  C   UNL     1      48.727   8.760  14.508  0.00  0.00    +0.000 A 
ATOM     23  C   UNL     1      48.856   9.417  15.724  0.00  0.00    +0.000 A 
ATOM     24  S   UNL     1      49.281  11.061  15.570  0.00  0.00    +0.000 S 
ATOM     25  C   UNL     1      49.263  10.967  13.873  0.00  0.00    +0.000 A 
ATOM     26  N   UNL     1      49.510  12.061  13.108  0.00  0.00    +0.000 NA
ATOM     27  C   UNL     1      49.438  11.853  11.833  0.00  0.00    +0.000 A 
ATOM     28  N   UNL     1      49.149  10.639  11.260  0.00  0.00    +0.000 N 
ATOM     29  C   UNL     1      48.926   9.497  11.991  0.00  0.00    +0.000 A 
ATOM     30  O   UNL     1      48.719   8.419  11.447  0.00  0.00    +0.000 OA
ATOM     31  C   UNL     1      48.968   9.684  13.427  0.00  0.00    +0.000 A 
ATOM     32  H   UNL     1      49.124  10.535  10.256  0.00  0.00    +0.000 HD
ENDBRANCH  19  22
ENDBRANCH  17  18
ENDBRANCH   4  17
TORSDOF 5
ENDMDL
MODEL 3
REMARK VINA RESULT:    -7.867      1.516      2.169
REMARK INTER + INTRA:         -11.057
REMARK INTER:                 -10.183
REMARK INTRA:                  -0.874
REMARK UNBOUND:                -0.891
REMARK  Name = 
REMARK  5 active torsions:
REMARK  status: ('A' for Active; 'I' for Inactive)
REMARK    1  A    between atoms: C_6  and  C_7
REMARK    2  A    between atoms: C_7  and  C_8
REMARK    3  A    between atoms: C_11  and  C_12
REMARK    4  A    between atoms: C_12  and  N_13
REMARK    5  A    between atoms: C_14  and  C_16
REMARK                            x       y       z     vdW  Elec       q    Type
REMARK                         _______ _______ _______ _____ _____    ______ ____
ROOT
ATOM      1  C   UNL     1      44.951   4.374   9.526  0.00  0.00    +0.000 A 
ATOM      2  C   UNL     1      44.474   4.109  10.818  0.00  0.00    +0.000 A 
ATOM      3  C   UNL     1      44.833   4.927  11.894  0.00  0.00    +0.000 A 
ATOM      4  C   UNL     1      45.682   6.024  11.701  0.00  0.00    +0.000 A 
ATOM      5  C   UNL     1      46.226   6.237  10.427  0.00  0.00    +0.000 A 
ATOM      6  C   UNL     1      45.855   5.429   9.347  0.00  0.00    +0.000 A 
ENDROOT
BRANCH   1   7
ATOM      7  C   UNL     1      44.467   3.562   8.343  0.00  0.00    +0.000 C 
BRANCH   7  13
ATOM      8  N   UNL     1      47.992   2.950   5.168  0.00  0.00    +0.000 N 
ATOM      9  C   UNL     1      47.235   2.392   6.197  0.00  0.00    +0.000 A 
ATOM     10  C   UNL     1      47.572   1.151   6.714  0.00  0.00    +0.000 A 
ATOM     11  C   UNL     1      46.812   0.631   7.753  0.00  0.00    +0.000 A 
ATOM     12  C   UNL     1      45.762   1.385   8.265  0.00  0.00    +0.000 A 
ATOM     13  C   UNL     1      45.503   2.644   7.722  0.00  0.00    +0.000 A 
ATOM     14  N   UNL     1      46.230   3.143   6.687  0.00  0.00    +0.000 NA
ATOM     15  H   UNL     1      48.109   2.306   4.395  0.00  0.00    +0.000 HD
ATOM     16  H   UNL     1      47.525   3.808   4.890  0.00  0.00    +0.000 HD
ENDBRANCH   7  13
ENDBRANCH   1   7
BRANCH   4  17
ATOM     17  C   UNL     1      46.012   6.963  12.834  0.00  0.00    +0.000 C 
BRANCH  17  18
ATOM     18  N   UNL     1      46.350   6.256  14.042  0.00  0.00    +0.000 N 
ATOM     19  C   UNL     1      47.618   5.768  14.247  0.00  0.00    +0.000 C 
ATOM     20  O   UNL     1      48.524   5.960  13.440  0.00  0.00    +0.000 OA
ATOM     21  H   UNL     1      45.579   5.868  14.579  0.00  0.00    +0.000 HD
BRANCH  19  22
ATOM     22  C   UNL     1      47.854   5.060  15.508  0.00  0.00    +0.000 A 
ATOM     23  C   UNL     1      47.467   3.734  15.642  0.00  0.00    +0.000 A 
ATOM     24  S   UNL     1      47.840   3.064  17.166  0.00  0.00    +0.000 S 
ATOM     25  C   UNL     1      48.490   4.535  17.718  0.00  0.00    +0.000 A 
ATOM     26  N   UNL     1      48.963   4.660  18.984  0.00  0.00    +0.000 NA
ATOM     27  C   UNL     1      49.404   5.840  19.279  0.00  0.00    +0.000 A 
ATOM     28  N   UNL     1      49.419   6.902  18.409  0.00  0.00    +0.000 N 
ATOM     29  C   UNL     1      48.984   6.816  17.109  0.00  0.00    +0.000 A 
ATOM     30  O   UNL     1      49.057   7.770  16.345  0.00  0.00    +0.000 OA
ATOM     31  C   UNL     1      48.453   5.520  16.738  0.00  0.00    +0.000 A 
ATOM     32  H   UNL     1      49.793   7.797  18.693  0.00  0.00    +0.000 HD
ENDBRANCH  19  22
ENDBRANCH  17  18
ENDBRANCH   4  17
TORSDOF 5
ENDMDL
MODEL 4
REMARK VINA RESULT:    -7.782      1.894      2.504
REMARK INTER + INTRA:         -10.948
REMARK INTER:                 -10.166
REMARK INTRA:                  -0.782
REMARK UNBOUND:                -0.891
REMARK  Name = 
REMARK  5 active torsions:
REMARK  status: ('A' for Active; 'I' for Inactive)
REMARK    1  A    between atoms: C_6  and  C_7
REMARK    2  A    between atoms: C_7  and  C_8
REMARK    3  A    between atoms: C_11  and  C_12
REMARK    4  A    between atoms: C_12  and  N_13
REMARK    5  A    between atoms: C_14  and  C_16
REMARK                            x       y       z     vdW  Elec       q    Type
REMARK                         _______ _______ _______ _____ _____    ______ ____
ROOT
ATOM      1  C   UNL     1      45.015   5.071  11.002  0.00  0.00    +0.000 A 
ATOM      2  C   UNL     1      45.488   6.380  10.826  0.00  0.00    +0.000 A 
ATOM      3  C   UNL     1      46.361   6.955  11.754  0.00  0.00    +0.000 A 
ATOM      4  C   UNL     1      46.776   6.235  12.881  0.00  0.00    +0.000 A 
ATOM      5  C   UNL     1      46.237   4.959  13.100  0.00  0.00    +0.000 A 
ATOM      6  C   UNL     1      45.376   4.378  12.164  0.00  0.00    +0.000 A 
ENDROOT
BRANCH   1   7
ATOM      7  C   UNL     1      44.167   4.407   9.938  0.00  0.00    +0.000 C 
BRANCH   7  13
ATOM      8  N   UNL     1      46.972   3.905   6.096  0.00  0.00    +0.000 N 
ATOM      9  C   UNL     1      46.310   3.278   7.150  0.00  0.00    +0.000 A 
ATOM     10  C   UNL     1      46.512   1.929   7.395  0.00  0.00    +0.000 A 
ATOM     11  C   UNL     1      45.855   1.338   8.465  0.00  0.00    +0.000 A 
ATOM     12  C   UNL     1      45.045   2.123   9.278  0.00  0.00    +0.000 A 
ATOM     13  C   UNL     1      44.918   3.483   8.996  0.00  0.00    +0.000 A 
ATOM     14  N   UNL     1      45.540   4.058   7.933  0.00  0.00    +0.000 NA
ATOM     15  H   UNL     1      46.851   3.404   5.224  0.00  0.00    +0.000 HD
ATOM     16  H   UNL     1      46.618   4.855   6.048  0.00  0.00    +0.000 HD
ENDBRANCH   7  13
ENDBRANCH   1   7
BRANCH   4  17
ATOM     17  C   UNL     1      47.782   6.809  13.847  0.00  0.00    +0.000 C 
BRANCH  17  18
ATOM     18  N   UNL     1      47.785   6.111  15.106  0.00  0.00    +0.000 N 
ATOM     19  C   UNL     1      48.930   6.005  15.857  0.00  0.00    +0.000 C 
ATOM     20  O   UNL     1      49.980   6.546  15.516  0.00  0.00    +0.000 OA
ATOM     21  H   UNL     1      47.025   5.454  15.268  0.00  0.00    +0.000 HD
BRANCH  19  22
ATOM     22  C   UNL     1      48.823   5.269  17.119  0.00  0.00    +0.000 A 
ATOM     23  C   UNL     1      48.553   3.908  17.107  0.00  0.00    +0.000 A 
ATOM     24  S   UNL     1      48.487   3.211  18.662  0.00  0.00    +0.000 S 
ATOM     25  C   UNL     1      48.771   4.711  19.410  0.00  0.00    +0.000 A 
ATOM     26  N   UNL     1      48.800   4.825  20.763  0.00  0.00    +0.000 NA
ATOM     27  C   UNL     1      48.999   6.028  21.197  0.00  0.00    +0.000 A 
ATOM     28  N   UNL     1      49.181   7.124  20.389  0.00  0.00    +0.000 N 
ATOM     29  C   UNL     1      49.195   7.053  19.017  0.00  0.00    +0.000 A 
ATOM     30  O   UNL     1      49.410   8.041  18.327  0.00  0.00    +0.000 OA
ATOM     31  C   UNL     1      48.947   5.730  18.481  0.00  0.00    +0.000 A 
ATOM     32  H   UNL     1      49.351   8.036  20.788  0.00  0.00    +0.000 HD
ENDBRANCH  19  22
ENDBRANCH  17  18
ENDBRANCH   4  17
TORSDOF 5
ENDMDL
MODEL 5
REMARK VINA RESULT:    -7.747      2.326      3.713
REMARK INTER + INTRA:         -10.902
REMARK INTER:                 -10.020
REMARK INTRA:                  -0.881
REMARK UNBOUND:                -0.891
REMARK  Name = 
REMARK  5 active torsions:
REMARK  status: ('A' for Active; 'I' for Inactive)
REMARK    1  A    between atoms: C_6  and  C_7
REMARK    2  A    between atoms: C_7  and  C_8
REMARK    3  A    between atoms: C_11  and  C_12
REMARK    4  A    between atoms: C_12  and  N_13
REMARK    5  A    between atoms: C_14  and  C_16
REMARK                            x       y       z     vdW  Elec       q    Type
REMARK                         _______ _______ _______ _____ _____    ______ ____
ROOT
ATOM      1  C   UNL     1      44.737   4.298   9.355  0.00  0.00    +0.000 A 
ATOM      2  C   UNL     1      44.024   3.784  10.448  0.00  0.00    +0.000 A 
ATOM      3  C   UNL     1      44.121   4.380  11.709  0.00  0.00    +0.000 A 
ATOM      4  C   UNL     1      44.939   5.500  11.904  0.00  0.00    +0.000 A 
ATOM      5  C   UNL     1      45.717   5.960  10.832  0.00  0.00    +0.000 A 
ATOM      6  C   UNL     1      45.608   5.374   9.567  0.00  0.00    +0.000 A 
ENDROOT
BRANCH   1   7
ATOM      7  C   UNL     1      44.539   3.727   7.967  0.00  0.00    +0.000 C 
BRANCH   7  13
ATOM      8  N   UNL     1      48.267   2.871   5.095  0.00  0.00    +0.000 N 
ATOM      9  C   UNL     1      47.449   2.401   6.120  0.00  0.00    +0.000 A 
ATOM     10  C   UNL     1      47.760   1.217   6.771  0.00  0.00    +0.000 A 
ATOM     11  C   UNL     1      46.938   0.785   7.802  0.00  0.00    +0.000 A 
ATOM     12  C   UNL     1      45.852   1.568   8.174  0.00  0.00    +0.000 A 
ATOM     13  C   UNL     1      45.619   2.768   7.501  0.00  0.00    +0.000 A 
ATOM     14  N   UNL     1      46.409   3.180   6.474  0.00  0.00    +0.000 NA
ATOM     15  H   UNL     1      48.439   2.161   4.394  0.00  0.00    +0.000 HD
ATOM     16  H   UNL     1      47.813   3.694   4.709  0.00  0.00    +0.000 HD
ENDBRANCH   7  13
ENDBRANCH   1   7
BRANCH   4  17
ATOM     17  C   UNL     1      44.990   6.205  13.237  0.00  0.00    +0.000 C 
BRANCH  17  18
ATOM     18  N   UNL     1      46.286   6.778  13.497  0.00  0.00    +0.000 N 
ATOM     19  C   UNL     1      47.283   6.041  14.087  0.00  0.00    +0.000 C 
ATOM     20  O   UNL     1      47.131   4.853  14.366  0.00  0.00    +0.000 OA
ATOM     21  H   UNL     1      46.343   7.794  13.519  0.00  0.00    +0.000 HD
BRANCH  19  22
ATOM     22  C   UNL     1      48.561   6.722  14.310  0.00  0.00    +0.000 A 
ATOM     23  C   UNL     1      49.141   6.712  15.570  0.00  0.00    +0.000 A 
ATOM     24  S   UNL     1      50.635   7.532  15.642  0.00  0.00    +0.000 S 
ATOM     25  C   UNL     1      50.537   7.971  14.002  0.00  0.00    +0.000 A 
ATOM     26  N   UNL     1      51.500   8.733  13.422  0.00  0.00    +0.000 NA
ATOM     27  C   UNL     1      51.287   9.014  12.177  0.00  0.00    +0.000 A 
ATOM     28  N   UNL     1      50.194   8.588  11.463  0.00  0.00    +0.000 N 
ATOM     29  C   UNL     1      49.212   7.788  11.995  0.00  0.00    +0.000 A 
ATOM     30  O   UNL     1      48.277   7.385  11.315  0.00  0.00    +0.000 OA
ATOM     31  C   UNL     1      49.392   7.468  13.397  0.00  0.00    +0.000 A 
ATOM     32  H   UNL     1      50.092   8.826  10.486  0.00  0.00    +0.000 HD
ENDBRANCH  19  22
ENDBRANCH  17  18
ENDBRANCH   4  17
TORSDOF 5
ENDMDL
MODEL 6
REMARK VINA RESULT:    -7.452      2.612      3.220
REMARK INTER + INTRA:         -10.521
REMARK INTER:                  -9.569
REMARK INTRA:                  -0.952
REMARK UNBOUND:                -0.891
REMARK  Name = 
REMARK  5 active torsions:
REMARK  status: ('A' for Active; 'I' for Inactive)
REMARK    1  A    between atoms: C_6  and  C_7
REMARK    2  A    between atoms: C_7  and  C_8
REMARK    3  A    between atoms: C_11  and  C_12
REMARK    4  A    between atoms: C_12  and  N_13
REMARK    5  A    between atoms: C_14  and  C_16
REMARK                            x       y       z     vdW  Elec       q    Type
REMARK                         _______ _______ _______ _____ _____    ______ ____
ROOT
ATOM      1  C   UNL     1      45.186   5.827  11.537  0.00  0.00    +0.000 A 
ATOM      2  C   UNL     1      45.344   7.210  11.705  0.00  0.00    +0.000 A 
ATOM      3  C   UNL     1      46.353   7.720  12.527  0.00  0.00    +0.000 A 
ATOM      4  C   UNL     1      47.223   6.855  13.204  0.00  0.00    +0.000 A 
ATOM      5  C   UNL     1      47.011   5.473  13.102  0.00  0.00    +0.000 A 
ATOM      6  C   UNL     1      46.012   4.963  12.267  0.00  0.00    +0.000 A 
ENDROOT
BRANCH   1   7
ATOM      7  C   UNL     1      44.172   5.280  10.554  0.00  0.00    +0.000 C 
BRANCH   7  13
ATOM      8  N   UNL     1      47.039   4.103   6.910  0.00  0.00    +0.000 N 
ATOM      9  C   UNL     1      46.126   3.665   7.868  0.00  0.00    +0.000 A 
ATOM     10  C   UNL     1      45.893   2.310   8.038  0.00  0.00    +0.000 A 
ATOM     11  C   UNL     1      44.993   1.904   9.015  0.00  0.00    +0.000 A 
ATOM     12  C   UNL     1      44.384   2.865   9.814  0.00  0.00    +0.000 A 
ATOM     13  C   UNL     1      44.696   4.210   9.613  0.00  0.00    +0.000 A 
ATOM     14  N   UNL     1      45.556   4.610   8.640  0.00  0.00    +0.000 NA
ATOM     15  H   UNL     1      46.855   3.697   6.001  0.00  0.00    +0.000 HD
ATOM     16  H   UNL     1      46.991   5.117   6.899  0.00  0.00    +0.000 HD
ENDBRANCH   7  13
ENDBRANCH   1   7
BRANCH   4  17
ATOM     17  C   UNL     1      48.368   7.389  14.027  0.00  0.00    +0.000 C 
BRANCH  17  18
ATOM     18  N   UNL     1      48.078   7.365  15.437  0.00  0.00    +0.000 N 
ATOM     19  C   UNL     1      48.879   6.676  16.316  0.00  0.00    +0.000 C 
ATOM     20  O   UNL     1      49.900   6.101  15.946  0.00  0.00    +0.000 OA
ATOM     21  H   UNL     1      47.128   7.600  15.715  0.00  0.00    +0.000 HD
BRANCH  19  22
ATOM     22  C   UNL     1      48.490   6.714  17.728  0.00  0.00    +0.000 A 
ATOM     23  C   UNL     1      48.487   5.547  18.478  0.00  0.00    +0.000 A 
ATOM     24  S   UNL     1      48.032   5.780  20.105  0.00  0.00    +0.000 S 
ATOM     25  C   UNL     1      47.778   7.443  19.855  0.00  0.00    +0.000 A 
ATOM     26  N   UNL     1      47.333   8.242  20.859  0.00  0.00    +0.000 NA
ATOM     27  C   UNL     1      47.159   9.479  20.523  0.00  0.00    +0.000 A 
ATOM     28  N   UNL     1      47.401   9.984  19.269  0.00  0.00    +0.000 N 
ATOM     29  C   UNL     1      47.884   9.224  18.232  0.00  0.00    +0.000 A 
ATOM     30  O   UNL     1      48.136   9.717  17.140  0.00  0.00    +0.000 OA
ATOM     31  C   UNL     1      48.069   7.823  18.550  0.00  0.00    +0.000 A 
ATOM     32  H   UNL     1      47.262  10.966  19.073  0.00  0.00    +0.000 HD
ENDBRANCH  19  22
ENDBRANCH  17  18
ENDBRANCH   4  17
TORSDOF 5
ENDMDL
MODEL 7
REMARK VINA RESULT:    -7.435      2.173      2.588
REMARK INTER + INTRA:         -10.498
REMARK INTER:                  -9.755
REMARK INTRA:                  -0.743
REMARK UNBOUND:                -0.891
REMARK  Name = 
REMARK  5 active torsions:
REMARK  status: ('A' for Active; 'I' for Inactive)
REMARK    1  A    between atoms: C_6  and  C_7
REMARK    2  A    between atoms: C_7  and  C_8
REMARK    3  A    between atoms: C_11  and  C_12
REMARK    4  A    between atoms: C_12  and  N_13
REMARK    5  A    between atoms: C_14  and  C_16
REMARK                            x       y       z     vdW  Elec       q    Type
REMARK                         _______ _______ _______ _____ _____    ______ ____
ROOT
ATOM      1  C   UNL     1      45.837   5.761  11.656  0.00  0.00    +0.000 A 
ATOM      2  C   UNL     1      46.092   5.082  12.857  0.00  0.00    +0.000 A 
ATOM      3  C   UNL     1      47.127   5.489  13.703  0.00  0.00    +0.000 A 
ATOM      4  C   UNL     1      47.936   6.581  13.361  0.00  0.00    +0.000 A 
ATOM      5  C   UNL     1      47.735   7.205  12.122  0.00  0.00    +0.000 A 
ATOM      6  C   UNL     1      46.689   6.808  11.284  0.00  0.00    +0.000 A 
ENDROOT
BRANCH   1   7
ATOM      7  C   UNL     1      44.642   5.395  10.802  0.00  0.00    +0.000 C 
BRANCH   7  13
ATOM      8  N   UNL     1      46.827   4.002   6.781  0.00  0.00    +0.000 N 
ATOM      9  C   UNL     1      45.996   3.649   7.842  0.00  0.00    +0.000 A 
ATOM     10  C   UNL     1      45.606   2.330   8.011  0.00  0.00    +0.000 A 
ATOM     11  C   UNL     1      44.795   2.006   9.091  0.00  0.00    +0.000 A 
ATOM     12  C   UNL     1      44.429   3.005   9.986  0.00  0.00    +0.000 A 
ATOM     13  C   UNL     1      44.890   4.305   9.775  0.00  0.00    +0.000 A 
ATOM     14  N   UNL     1      45.663   4.628   8.705  0.00  0.00    +0.000 NA
ATOM     15  H   UNL     1      46.473   3.661   5.895  0.00  0.00    +0.000 HD
ATOM     16  H   UNL     1      46.915   5.014   6.799  0.00  0.00    +0.000 HD
ENDBRANCH   7  13
ENDBRANCH   1   7
BRANCH   4  17
ATOM     17  C   UNL     1      49.003   7.085  14.301  0.00  0.00    +0.000 C 
BRANCH  17  18
ATOM     18  N   UNL     1      48.521   7.205  15.652  0.00  0.00    +0.000 N 
ATOM     19  C   UNL     1      49.326   6.900  16.723  0.00  0.00    +0.000 C 
ATOM     20  O   UNL     1      50.500   6.568  16.576  0.00  0.00    +0.000 OA
ATOM     21  H   UNL     1      47.512   7.219  15.781  0.00  0.00    +0.000 HD
BRANCH  19  22
ATOM     22  C   UNL     1      48.735   7.053  18.055  0.00  0.00    +0.000 A 
ATOM     23  C   UNL     1      48.213   8.278  18.445  0.00  0.00    +0.000 A 
ATOM     24  S   UNL     1      47.545   8.268  20.014  0.00  0.00    +0.000 S 
ATOM     25  C   UNL     1      47.970   6.638  20.247  0.00  0.00    +0.000 A 
ATOM     26  N   UNL     1      47.713   6.008  21.422  0.00  0.00    +0.000 NA
ATOM     27  C   UNL     1      48.113   4.778  21.471  0.00  0.00    +0.000 A 
ATOM     28  N   UNL     1      48.741   4.125  20.439  0.00  0.00    +0.000 N 
ATOM     29  C   UNL     1      48.991   4.709  19.221  0.00  0.00    +0.000 A 
ATOM     30  O   UNL     1      49.508   4.082  18.305  0.00  0.00    +0.000 OA
ATOM     31  C   UNL     1      48.587   6.097  19.125  0.00  0.00    +0.000 A 
ATOM     32  H   UNL     1      49.014   3.157  20.532  0.00  0.00    +0.000 HD
ENDBRANCH  19  22
ENDBRANCH  17  18
ENDBRANCH   4  17
TORSDOF 5
ENDMDL
MODEL 8
REMARK VINA RESULT:    -7.399      3.175      7.830
REMARK INTER + INTRA:         -10.452
REMARK INTER:                  -9.740
REMARK INTRA:                  -0.712
REMARK UNBOUND:                -0.891
REMARK  Name = 
REMARK  5 active torsions:
REMARK  status: ('A' for Active; 'I' for Inactive)
REMARK    1  A    between atoms: C_6  and  C_7
REMARK    2  A    between atoms: C_7  and  C_8
REMARK    3  A    between atoms: C_11  and  C_12
REMARK    4  A    between atoms: C_12  and  N_13
REMARK    5  A    between atoms: C_14  and  C_16
REMARK                            x       y       z     vdW  Elec       q    Type
REMARK                         _______ _______ _______ _____ _____    ______ ____
ROOT
ATOM      1  C   UNL     1      49.859   6.506  16.322  0.00  0.00    +0.000 A 
ATOM      2  C   UNL     1      48.565   6.225  15.858  0.00  0.00    +0.000 A 
ATOM      3  C   UNL     1      48.155   6.640  14.588  0.00  0.00    +0.000 A 
ATOM      4  C   UNL     1      49.030   7.352  13.756  0.00  0.00    +0.000 A 
ATOM      5  C   UNL     1      50.292   7.705  14.254  0.00  0.00    +0.000 A 
ATOM      6  C   UNL     1      50.708   7.276  15.518  0.00  0.00    +0.000 A 
ENDROOT
BRANCH   1   7
ATOM      7  C   UNL     1      50.340   5.952  17.646  0.00  0.00    +0.000 C 
BRANCH   7  13
ATOM      8  N   UNL     1      49.232   1.507  16.270  0.00  0.00    +0.000 N 
ATOM      9  C   UNL     1      50.142   2.336  16.925  0.00  0.00    +0.000 A 
ATOM     10  C   UNL     1      51.359   1.831  17.354  0.00  0.00    +0.000 A 
ATOM     11  C   UNL     1      52.253   2.686  17.984  0.00  0.00    +0.000 A 
ATOM     12  C   UNL     1      51.915   4.027  18.132  0.00  0.00    +0.000 A 
ATOM     13  C   UNL     1      50.689   4.475  17.641  0.00  0.00    +0.000 A 
ATOM     14  N   UNL     1      49.802   3.633  17.048  0.00  0.00    +0.000 NA
ATOM     15  H   UNL     1      49.056   0.656  16.790  0.00  0.00    +0.000 HD
ATOM     16  H   UNL     1      48.389   2.053  16.123  0.00  0.00    +0.000 HD
ENDBRANCH   7  13
ENDBRANCH   1   7
BRANCH   4  17
ATOM     17  C   UNL     1      48.632   7.734  12.353  0.00  0.00    +0.000 C 
BRANCH  17  18
ATOM     18  N   UNL     1      47.858   6.704  11.710  0.00  0.00    +0.000 N 
ATOM     19  C   UNL     1      46.506   6.850  11.513  0.00  0.00    +0.000 C 
ATOM     20  O   UNL     1      45.915   7.882  11.825  0.00  0.00    +0.000 OA
ATOM     21  H   UNL     1      48.262   5.770  11.689  0.00  0.00    +0.000 HD
BRANCH  19  22
ATOM     22  C   UNL     1      45.814   5.740  10.854  0.00  0.00    +0.000 A 
ATOM     23  C   UNL     1      45.895   5.592   9.477  0.00  0.00    +0.000 A 
ATOM     24  S   UNL     1      45.050   4.235   8.884  0.00  0.00    +0.000 S 
ATOM     25  C   UNL     1      44.506   3.822  10.440  0.00  0.00    +0.000 A 
ATOM     26  N   UNL     1      43.687   2.756  10.636  0.00  0.00    +0.000 NA
ATOM     27  C   UNL     1      43.329   2.572  11.866  0.00  0.00    +0.000 A 
ATOM     28  N   UNL     1      43.730   3.361  12.917  0.00  0.00    +0.000 N 
ATOM     29  C   UNL     1      44.584   4.428  12.774  0.00  0.00    +0.000 A 
ATOM     30  O   UNL     1      44.961   5.080  13.739  0.00  0.00    +0.000 OA
ATOM     31  C   UNL     1      44.991   4.692  11.409  0.00  0.00    +0.000 A 
ATOM     32  H   UNL     1      43.430   3.155  13.859  0.00  0.00    +0.000 HD
ENDBRANCH  19  22
ENDBRANCH  17  18
ENDBRANCH   4  17
TORSDOF 5
ENDMDL
MODEL 9
REMARK VINA RESULT:    -7.075      2.982      8.600
REMARK INTER + INTRA:         -10.034
REMARK INTER:                  -8.936
REMARK INTRA:                  -1.098
REMARK UNBOUND:                -0.891
REMARK  Name = 
REMARK  5 active torsions:
REMARK  status: ('A' for Active; 'I' for Inactive)
REMARK    1  A    between atoms: C_6  and  C_7
REMARK    2  A    between atoms: C_7  and  C_8
REMARK    3  A    between atoms: C_11  and  C_12
REMARK    4  A    between atoms: C_12  and  N_13
REMARK    5  A    between atoms: C_14  and  C_16
REMARK                            x       y       z     vdW  Elec       q    Type
REMARK                         _______ _______ _______ _____ _____    ______ ____
ROOT
ATOM      1  C   UNL     1      49.276   8.232  15.827  0.00  0.00    +0.000 A 
ATOM      2  C   UNL     1      48.215   9.037  15.384  0.00  0.00    +0.000 A 
ATOM      3  C   UNL     1      47.742   8.937  14.073  0.00  0.00    +0.000 A 
ATOM      4  C   UNL     1      48.324   8.035  13.173  0.00  0.00    +0.000 A 
ATOM      5  C   UNL     1      49.438   7.294  13.591  0.00  0.00    +0.000 A 
ATOM      6  C   UNL     1      49.902   7.381  14.907  0.00  0.00    +0.000 A 
ENDROOT
BRANCH   1   7
ATOM      7  C   UNL     1      49.708   8.254  17.278  0.00  0.00    +0.000 C 
BRANCH   7  13
ATOM      8  N   UNL     1      47.230   4.336  18.455  0.00  0.00    +0.000 N 
ATOM      9  C   UNL     1      47.604   5.632  18.806  0.00  0.00    +0.000 A 
ATOM     10  C   UNL     1      47.270   6.139  20.052  0.00  0.00    +0.000 A 
ATOM     11  C   UNL     1      47.675   7.426  20.379  0.00  0.00    +0.000 A 
ATOM     12  C   UNL     1      48.431   8.151  19.465  0.00  0.00    +0.000 A 
ATOM     13  C   UNL     1      48.764   7.563  18.244  0.00  0.00    +0.000 A 
ATOM     14  N   UNL     1      48.346   6.313  17.911  0.00  0.00    +0.000 NA
ATOM     15  H   UNL     1      46.242   4.174  18.608  0.00  0.00    +0.000 HD
ATOM     16  H   UNL     1      47.498   4.203  17.485  0.00  0.00    +0.000 HD
ENDBRANCH   7  13
ENDBRANCH   1   7
BRANCH   4  17
ATOM     17  C   UNL     1      47.771   7.856  11.781  0.00  0.00    +0.000 C 
BRANCH  17  18
ATOM     18  N   UNL     1      47.028   6.630  11.647  0.00  0.00    +0.000 N 
ATOM     19  C   UNL     1      45.657   6.618  11.728  0.00  0.00    +0.000 C 
ATOM     20  O   UNL     1      45.007   7.652  11.862  0.00  0.00    +0.000 OA
ATOM     21  H   UNL     1      47.540   5.764  11.800  0.00  0.00    +0.000 HD
BRANCH  19  22
ATOM     22  C   UNL     1      45.001   5.315  11.583  0.00  0.00    +0.000 A 
ATOM     23  C   UNL     1      44.305   4.767  12.650  0.00  0.00    +0.000 A 
ATOM     24  S   UNL     1      43.587   3.261  12.296  0.00  0.00    +0.000 S 
ATOM     25  C   UNL     1      44.220   3.266  10.718  0.00  0.00    +0.000 A 
ATOM     26  N   UNL     1      44.007   2.223   9.875  0.00  0.00    +0.000 NA
ATOM     27  C   UNL     1      44.567   2.346   8.715  0.00  0.00    +0.000 A 
ATOM     28  N   UNL     1      45.315   3.430   8.327  0.00  0.00    +0.000 N 
ATOM     29  C   UNL     1      45.530   4.523   9.130  0.00  0.00    +0.000 A 
ATOM     30  O   UNL     1      46.160   5.495   8.734  0.00  0.00    +0.000 OA
ATOM     31  C   UNL     1      44.945   4.421  10.452  0.00  0.00    +0.000 A 
ATOM     32  H   UNL     1      45.713   3.476   7.399  0.00  0.00    +0.000 HD
ENDBRANCH  19  22
ENDBRANCH  17  18
ENDBRANCH   4  17
TORSDOF 5
ENDMDL
