MODEL 1
REMARK VINA RESULT:    -6.844      0.000      0.000
REMARK INTER + INTRA:          -8.917
REMARK INTER:                  -8.444
REMARK INTRA:                  -0.473
REMARK UNBOUND:                -0.473
REMARK  Name = 
REMARK  4 active torsions:
REMARK  status: ('A' for Active; 'I' for Inactive)
REMARK    1  A    between atoms: C_2  and  C_4
REMARK    2  A    between atoms: C_7  and  C_8
REMARK    3  A    between atoms: C_9  and  C_10
REMARK    4  A    between atoms: C_14  and  N_15
REMARK                            x       y       z     vdW  Elec       q    Type
REMARK                         _______ _______ _______ _____ _____    ______ ____
ROOT
ATOM      1  C   UNL     1      46.766   4.545  14.655  0.00  0.00    +0.000 C 
ATOM      2  C   UNL     1      45.969   4.612  13.762  0.00  0.00    +0.000 C 
ENDROOT
BRANCH   1   6
ATOM      3  C   UNL     1      49.477   4.394  17.897  0.00  0.00    +0.000 A 
ATOM      4  C   UNL     1      48.764   3.244  17.531  0.00  0.00    +0.000 A 
ATOM      5  C   UNL     1      47.870   3.289  16.456  0.00  0.00    +0.000 A 
ATOM      6  C   UNL     1      47.685   4.481  15.750  0.00  0.00    +0.000 A 
ATOM      7  C   UNL     1      48.391   5.629  16.121  0.00  0.00    +0.000 A 
ATOM      8  C   UNL     1      49.279   5.589  17.197  0.00  0.00    +0.000 A 
BRANCH   3  10
ATOM      9  N   UNL     1      49.912   4.449  20.288  0.00  0.00    +0.000 N 
ATOM     10  C   UNL     1      50.438   4.393  19.029  0.00  0.00    +0.000 C 
ATOM     11  O   UNL     1      51.646   4.297  18.850  0.00  0.00    +0.000 OA
ATOM     12  H   UNL     1      50.566   4.311  21.050  0.00  0.00    +0.000 HD
ATOM     13  H   UNL     1      48.937   4.262  20.471  0.00  0.00    +0.000 HD
ENDBRANCH   3  10
ENDBRANCH   1   6
BRANCH   2  14
ATOM     14  C   UNL     1      44.998   4.705  12.713  0.00  0.00    +0.000 A 
ATOM     15  C   UNL     1      43.841   5.456  12.898  0.00  0.00    +0.000 A 
ATOM     16  C   UNL     1      42.908   5.548  11.870  0.00  0.00    +0.000 A 
ATOM     17  C   UNL     1      43.142   4.895  10.655  0.00  0.00    +0.000 A 
ATOM     18  C   UNL     1      44.298   4.132  10.439  0.00  0.00    +0.000 A 
ATOM     19  C   UNL     1      45.216   4.048  11.499  0.00  0.00    +0.000 A 
BRANCH  18  20
ATOM     20  N   UNL     1      44.546   3.495   9.239  0.00  0.00    +0.000 N 
ATOM     21  C   UNL     1      44.566   2.033   9.109  0.00  0.00    +0.000 C 
ATOM     22  C   UNL     1      45.936   1.537   8.604  0.00  0.00    +0.000 C 
ATOM     23  N   UNL     1      46.397   2.219   7.375  0.00  0.00    +0.000 NA
ATOM     24  C   UNL     1      46.421   3.676   7.628  0.00  0.00    +0.000 C 
ATOM     25  C   UNL     1      45.062   4.252   8.089  0.00  0.00    +0.000 C 
ATOM     26  H   UNL     1      45.707   2.043   6.644  0.00  0.00    +0.000 HD
ENDBRANCH  18  20
ENDBRANCH   2  14
TORSDOF 4
ENDMDL
MODEL 2
REMARK VINA RESULT:    -5.981      3.274      9.699
REMARK INTER + INTRA:          -7.853
REMARK INTER:                  -7.355
REMARK INTRA:                  -0.498
REMARK UNBOUND:                -0.473
REMARK  Name = 
REMARK  4 active torsions:
REMARK  status: ('A' for Active; 'I' for Inactive)
REMARK    1  A    between atoms: C_2  and  C_4
REMARK    2  A    between atoms: C_7  and  C_8
REMARK    3  A    between atoms: C_9  and  C_10
REMARK    4  A    between atoms: C_14  and  N_15
REMARK                            x       y       z     vdW  Elec       q    Type
REMARK                         _______ _______ _______ _____ _____    ______ ____
ROOT
ATOM      1  C   UNL     1      47.658   6.004  14.126  0.00  0.00    +0.000 C 
ATOM      2  C   UNL     1      48.356   6.419  15.009  0.00  0.00    +0.000 C 
ENDROOT
BRANCH   1   6
ATOM      3  C   UNL     1      45.125   4.432  11.127  0.00  0.00    +0.000 A 
ATOM      4  C   UNL     1      45.684   5.708  10.969  0.00  0.00    +0.000 A 
ATOM      5  C   UNL     1      46.525   6.229  11.957  0.00  0.00    +0.000 A 
ATOM      6  C   UNL     1      46.807   5.479  13.102  0.00  0.00    +0.000 A 
ATOM      7  C   UNL     1      46.244   4.210  13.262  0.00  0.00    +0.000 A 
ATOM      8  C   UNL     1      45.398   3.690  12.281  0.00  0.00    +0.000 A 
BRANCH   3  10
ATOM      9  N   UNL     1      44.066   4.537   8.941  0.00  0.00    +0.000 N 
ATOM     10  C   UNL     1      44.229   3.837  10.103  0.00  0.00    +0.000 C 
ATOM     11  O   UNL     1      43.696   2.747  10.267  0.00  0.00    +0.000 OA
ATOM     12  H   UNL     1      43.564   4.060   8.202  0.00  0.00    +0.000 HD
ATOM     13  H   UNL     1      44.686   5.288   8.676  0.00  0.00    +0.000 HD
ENDBRANCH   3  10
ENDBRANCH   1   6
BRANCH   2  14
ATOM     14  C   UNL     1      49.178   6.893  16.081  0.00  0.00    +0.000 A 
ATOM     15  C   UNL     1      50.210   7.791  15.825  0.00  0.00    +0.000 A 
ATOM     16  C   UNL     1      50.997   8.253  16.874  0.00  0.00    +0.000 A 
ATOM     17  C   UNL     1      50.741   7.823  18.181  0.00  0.00    +0.000 A 
ATOM     18  C   UNL     1      49.709   6.920  18.470  0.00  0.00    +0.000 A 
ATOM     19  C   UNL     1      48.938   6.461  17.389  0.00  0.00    +0.000 A 
BRANCH  18  20
ATOM     20  N   UNL     1      49.437   6.499  19.757  0.00  0.00    +0.000 N 
ATOM     21  C   UNL     1      49.977   5.251  20.311  0.00  0.00    +0.000 C 
ATOM     22  C   UNL     1      48.844   4.297  20.742  0.00  0.00    +0.000 C 
ATOM     23  N   UNL     1      47.846   4.926  21.635  0.00  0.00    +0.000 NA
ATOM     24  C   UNL     1      47.303   6.125  20.960  0.00  0.00    +0.000 C 
ATOM     25  C   UNL     1      48.383   7.152  20.546  0.00  0.00    +0.000 C 
ATOM     26  H   UNL     1      48.334   5.239  22.475  0.00  0.00    +0.000 HD
ENDBRANCH  18  20
ENDBRANCH   2  14
TORSDOF 4
ENDMDL
MODEL 3
REMARK VINA RESULT:    -5.879      2.120      3.349
REMARK INTER + INTRA:          -7.727
REMARK INTER:                  -7.233
REMARK INTRA:                  -0.494
REMARK UNBOUND:                -0.473
REMARK  Name = 
REMARK  4 active torsions:
REMARK  status: ('A' for Active; 'I' for Inactive)
REMARK    1  A    between atoms: C_2  and  C_4
REMARK    2  A    between atoms: C_7  and  C_8
REMARK    3  A    between atoms: C_9  and  C_10
REMARK    4  A    between atoms: C_14  and  N_15
REMARK                            x       y       z     vdW  Elec       q    Type
REMARK                         _______ _______ _______ _____ _____    ______ ____
ROOT
ATOM      1  C   UNL     1      48.518   5.747  16.106  0.00  0.00    +0.000 C 
ATOM      2  C   UNL     1      48.061   5.919  15.011  0.00  0.00    +0.000 C 
ENDROOT
BRANCH   1   6
ATOM      3  C   UNL     1      50.249   5.248  19.932  0.00  0.00    +0.000 A 
ATOM      4  C   UNL     1      48.978   5.827  19.813  0.00  0.00    +0.000 A 
ATOM      5  C   UNL     1      48.401   5.990  18.549  0.00  0.00    +0.000 A 
ATOM      6  C   UNL     1      49.092   5.577  17.406  0.00  0.00    +0.000 A 
ATOM      7  C   UNL     1      50.363   5.008  17.526  0.00  0.00    +0.000 A 
ATOM      8  C   UNL     1      50.944   4.851  18.785  0.00  0.00    +0.000 A 
BRANCH   3  10
ATOM      9  N   UNL     1      52.030   4.286  21.278  0.00  0.00    +0.000 N 
ATOM     10  C   UNL     1      50.900   5.053  21.252  0.00  0.00    +0.000 C 
ATOM     11  O   UNL     1      50.476   5.591  22.267  0.00  0.00    +0.000 OA
ATOM     12  H   UNL     1      52.538   4.271  22.155  0.00  0.00    +0.000 HD
ATOM     13  H   UNL     1      52.541   4.056  20.438  0.00  0.00    +0.000 HD
ENDBRANCH   3  10
ENDBRANCH   1   6
BRANCH   2  14
ATOM     14  C   UNL     1      47.536   6.144  13.698  0.00  0.00    +0.000 A 
ATOM     15  C   UNL     1      48.171   7.034  12.836  0.00  0.00    +0.000 A 
ATOM     16  C   UNL     1      47.658   7.239  11.559  0.00  0.00    +0.000 A 
ATOM     17  C   UNL     1      46.517   6.544  11.144  0.00  0.00    +0.000 A 
ATOM     18  C   UNL     1      45.857   5.642  11.990  0.00  0.00    +0.000 A 
ATOM     19  C   UNL     1      46.390   5.464  13.277  0.00  0.00    +0.000 A 
BRANCH  18  20
ATOM     20  N   UNL     1      44.738   4.939  11.587  0.00  0.00    +0.000 N 
ATOM     21  C   UNL     1      43.740   4.431  12.536  0.00  0.00    +0.000 C 
ATOM     22  C   UNL     1      43.609   2.897  12.440  0.00  0.00    +0.000 C 
ATOM     23  N   UNL     1      43.379   2.408  11.063  0.00  0.00    +0.000 NA
ATOM     24  C   UNL     1      44.474   2.902  10.201  0.00  0.00    +0.000 C 
ATOM     25  C   UNL     1      44.629   4.441  10.209  0.00  0.00    +0.000 C 
ATOM     26  H   UNL     1      42.509   2.822  10.726  0.00  0.00    +0.000 HD
ENDBRANCH  18  20
ENDBRANCH   2  14
TORSDOF 4
ENDMDL
MODEL 4
REMARK VINA RESULT:    -5.860      6.164      8.348
REMARK INTER + INTRA:          -7.703
REMARK INTER:                  -7.217
REMARK INTRA:                  -0.486
REMARK UNBOUND:                -0.473
REMARK  Name = 
REMARK  4 active torsions:
REMARK  status: ('A' for Active; 'I' for Inactive)
REMARK    1  A    between atoms: C_2  and  C_4
REMARK    2  A    between atoms: C_7  and  C_8
REMARK    3  A    between atoms: C_9  and  C_10
REMARK    4  A    between atoms: C_14  and  N_15
REMARK                            x       y       z     vdW  Elec       q    Type
REMARK                         _______ _______ _______ _____ _____    ______ ____
ROOT
ATOM      1  C   UNL     1      48.372   7.229  11.927  0.00  0.00    +0.000 C 
ATOM      2  C   UNL     1      49.506   7.576  11.748  0.00  0.00    +0.000 C 
ENDROOT
BRANCH   1   6
ATOM      3  C   UNL     1      44.409   5.888  12.540  0.00  0.00    +0.000 A 
ATOM      4  C   UNL     1      45.467   5.271  13.222  0.00  0.00    +0.000 A 
ATOM      5  C   UNL     1      46.779   5.715  13.024  0.00  0.00    +0.000 A 
ATOM      6  C   UNL     1      47.034   6.772  12.146  0.00  0.00    +0.000 A 
ATOM      7  C   UNL     1      45.980   7.382  11.462  0.00  0.00    +0.000 A 
ATOM      8  C   UNL     1      44.670   6.936  11.651  0.00  0.00    +0.000 A 
BRANCH   3  10
ATOM      9  N   UNL     1      42.087   5.926  11.821  0.00  0.00    +0.000 N 
ATOM     10  C   UNL     1      43.001   5.453  12.720  0.00  0.00    +0.000 C 
ATOM     11  O   UNL     1      42.675   4.669  13.602  0.00  0.00    +0.000 OA
ATOM     12  H   UNL     1      41.161   5.518  11.872  0.00  0.00    +0.000 HD
ATOM     13  H   UNL     1      42.364   6.349  10.947  0.00  0.00    +0.000 HD
ENDBRANCH   3  10
ENDBRANCH   1   6
BRANCH   2  14
ATOM     14  C   UNL     1      50.868   7.962  11.536  0.00  0.00    +0.000 A 
ATOM     15  C   UNL     1      51.551   8.681  12.513  0.00  0.00    +0.000 A 
ATOM     16  C   UNL     1      52.877   9.043  12.301  0.00  0.00    +0.000 A 
ATOM     17  C   UNL     1      53.521   8.675  11.114  0.00  0.00    +0.000 A 
ATOM     18  C   UNL     1      52.860   7.951  10.112  0.00  0.00    +0.000 A 
ATOM     19  C   UNL     1      51.518   7.609  10.349  0.00  0.00    +0.000 A 
BRANCH  18  20
ATOM     20  N   UNL     1      53.488   7.569   8.943  0.00  0.00    +0.000 N 
ATOM     21  C   UNL     1      53.725   8.499   7.833  0.00  0.00    +0.000 C 
ATOM     22  C   UNL     1      53.037   8.013   6.541  0.00  0.00    +0.000 C 
ATOM     23  N   UNL     1      53.364   6.615   6.185  0.00  0.00    +0.000 NA
ATOM     24  C   UNL     1      53.018   5.746   7.331  0.00  0.00    +0.000 C 
ATOM     25  C   UNL     1      53.716   6.146   8.652  0.00  0.00    +0.000 C 
ATOM     26  H   UNL     1      54.374   6.557   6.048  0.00  0.00    +0.000 HD
ENDBRANCH  18  20
ENDBRANCH   2  14
TORSDOF 4
ENDMDL
MODEL 5
REMARK VINA RESULT:    -5.785      3.551      9.855
REMARK INTER + INTRA:          -7.611
REMARK INTER:                  -7.127
REMARK INTRA:                  -0.484
REMARK UNBOUND:                -0.473
REMARK  Name = 
REMARK  4 active torsions:
REMARK  status: ('A' for Active; 'I' for Inactive)
REMARK    1  A    between atoms: C_2  and  C_4
REMARK    2  A    between atoms: C_7  and  C_8
REMARK    3  A    between atoms: C_9  and  C_10
REMARK    4  A    between atoms: C_14  and  N_15
REMARK                            x       y       z     vdW  Elec       q    Type
REMARK                         _______ _______ _______ _____ _____    ______ ____
ROOT
ATOM      1  C   UNL     1      46.964   4.716  14.757  0.00  0.00    +0.000 C 
ATOM      2  C   UNL     1      47.347   4.648  15.891  0.00  0.00    +0.000 C 
ENDROOT
BRANCH   1   6
ATOM      3  C   UNL     1      45.558   4.796  10.769  0.00  0.00    +0.000 A 
ATOM      4  C   UNL     1      46.218   5.914  11.298  0.00  0.00    +0.000 A 
ATOM      5  C   UNL     1      46.688   5.889  12.616  0.00  0.00    +0.000 A 
ATOM      6  C   UNL     1      46.497   4.751  13.405  0.00  0.00    +0.000 A 
ATOM      7  C   UNL     1      45.833   3.640  12.879  0.00  0.00    +0.000 A 
ATOM      8  C   UNL     1      45.356   3.665  11.566  0.00  0.00    +0.000 A 
BRANCH   3  10
ATOM      9  N   UNL     1      43.702   4.583   9.214  0.00  0.00    +0.000 N 
ATOM     10  C   UNL     1      45.045   4.776   9.376  0.00  0.00    +0.000 C 
ATOM     11  O   UNL     1      45.778   4.971   8.415  0.00  0.00    +0.000 OA
ATOM     12  H   UNL     1      43.346   4.706   8.273  0.00  0.00    +0.000 HD
ATOM     13  H   UNL     1      43.050   4.685   9.978  0.00  0.00    +0.000 HD
ENDBRANCH   3  10
ENDBRANCH   1   6
BRANCH   2  14
ATOM     14  C   UNL     1      47.801   4.537  17.245  0.00  0.00    +0.000 A 
ATOM     15  C   UNL     1      48.081   3.287  17.787  0.00  0.00    +0.000 A 
ATOM     16  C   UNL     1      48.530   3.191  19.100  0.00  0.00    +0.000 A 
ATOM     17  C   UNL     1      48.709   4.350  19.864  0.00  0.00    +0.000 A 
ATOM     18  C   UNL     1      48.437   5.623  19.344  0.00  0.00    +0.000 A 
ATOM     19  C   UNL     1      47.973   5.688  18.020  0.00  0.00    +0.000 A 
BRANCH  18  20
ATOM     20  N   UNL     1      48.624   6.775  20.083  0.00  0.00    +0.000 N 
ATOM     21  C   UNL     1      48.590   6.787  21.550  0.00  0.00    +0.000 C 
ATOM     22  C   UNL     1      47.484   7.727  22.075  0.00  0.00    +0.000 C 
ATOM     23  N   UNL     1      47.543   9.089  21.500  0.00  0.00    +0.000 NA
ATOM     24  C   UNL     1      47.490   8.978  20.026  0.00  0.00    +0.000 C 
ATOM     25  C   UNL     1      48.605   8.090  19.426  0.00  0.00    +0.000 C 
ATOM     26  H   UNL     1      48.447   9.493  21.748  0.00  0.00    +0.000 HD
ENDBRANCH  18  20
ENDBRANCH   2  14
TORSDOF 4
ENDMDL
MODEL 6
REMARK VINA RESULT:    -5.698      2.590      3.019
REMARK INTER + INTRA:          -7.503
REMARK INTER:                  -7.010
REMARK INTRA:                  -0.493
REMARK UNBOUND:                -0.473
REMARK  Name = 
REMARK  4 active torsions:
REMARK  status: ('A' for Active; 'I' for Inactive)
REMARK    1  A    between atoms: C_2  and  C_4
REMARK    2  A    between atoms: C_7  and  C_8
REMARK    3  A    between atoms: C_9  and  C_10
REMARK    4  A    between atoms: C_14  and  N_15
REMARK                            x       y       z     vdW  Elec       q    Type
REMARK                         _______ _______ _______ _____ _____    ______ ____
ROOT
ATOM      1  C   UNL     1      47.545   6.284  13.458  0.00  0.00    +0.000 C 
ATOM      2  C   UNL     1      46.596   5.774  12.932  0.00  0.00    +0.000 C 
ENDROOT
BRANCH   1   6
ATOM      3  C   UNL     1      50.822   8.120  15.401  0.00  0.00    +0.000 A 
ATOM      4  C   UNL     1      49.929   7.329  16.137  0.00  0.00    +0.000 A 
ATOM      5  C   UNL     1      48.847   6.716  15.497  0.00  0.00    +0.000 A 
ATOM      6  C   UNL     1      48.654   6.896  14.124  0.00  0.00    +0.000 A 
ATOM      7  C   UNL     1      49.540   7.691  13.393  0.00  0.00    +0.000 A 
ATOM      8  C   UNL     1      50.617   8.309  14.031  0.00  0.00    +0.000 A 
BRANCH   3  10
ATOM      9  N   UNL     1      52.183   8.551  17.369  0.00  0.00    +0.000 N 
ATOM     10  C   UNL     1      51.986   8.787  16.038  0.00  0.00    +0.000 C 
ATOM     11  O   UNL     1      52.764   9.479  15.395  0.00  0.00    +0.000 OA
ATOM     12  H   UNL     1      53.050   8.900  17.759  0.00  0.00    +0.000 HD
ATOM     13  H   UNL     1      51.725   7.792  17.852  0.00  0.00    +0.000 HD
ENDBRANCH   3  10
ENDBRANCH   1   6
BRANCH   2  14
ATOM     14  C   UNL     1      45.446   5.170  12.329  0.00  0.00    +0.000 A 
ATOM     15  C   UNL     1      44.208   5.241  12.961  0.00  0.00    +0.000 A 
ATOM     16  C   UNL     1      43.096   4.659  12.363  0.00  0.00    +0.000 A 
ATOM     17  C   UNL     1      43.223   4.016  11.126  0.00  0.00    +0.000 A 
ATOM     18  C   UNL     1      44.457   3.929  10.466  0.00  0.00    +0.000 A 
ATOM     19  C   UNL     1      45.565   4.515  11.099  0.00  0.00    +0.000 A 
BRANCH  18  20
ATOM     20  N   UNL     1      44.593   3.310   9.239  0.00  0.00    +0.000 N 
ATOM     21  C   UNL     1      44.712   1.854   9.097  0.00  0.00    +0.000 C 
ATOM     22  C   UNL     1      46.038   1.466   8.410  0.00  0.00    +0.000 C 
ATOM     23  N   UNL     1      46.274   2.179   7.135  0.00  0.00    +0.000 NA
ATOM     24  C   UNL     1      46.216   3.634   7.393  0.00  0.00    +0.000 C 
ATOM     25  C   UNL     1      44.889   4.101   8.036  0.00  0.00    +0.000 C 
ATOM     26  H   UNL     1      45.509   1.946   6.501  0.00  0.00    +0.000 HD
ENDBRANCH  18  20
ENDBRANCH   2  14
TORSDOF 4
ENDMDL
MODEL 7
REMARK VINA RESULT:    -5.451      2.517      3.344
REMARK INTER + INTRA:          -7.199
REMARK INTER:                  -6.708
REMARK INTRA:                  -0.491
REMARK UNBOUND:                -0.473
REMARK  Name = 
REMARK  4 active torsions:
REMARK  status: ('A' for Active; 'I' for Inactive)
REMARK    1  A    between atoms: C_2  and  C_4
REMARK    2  A    between atoms: C_7  and  C_8
REMARK    3  A    between atoms: C_9  and  C_10
REMARK    4  A    between atoms: C_14  and  N_15
REMARK                            x       y       z     vdW  Elec       q    Type
REMARK                         _______ _______ _______ _____ _____    ______ ____
ROOT
ATOM      1  C   UNL     1      48.575   6.906  14.715  0.00  0.00    +0.000 C 
ATOM      2  C   UNL     1      47.651   7.098  13.975  0.00  0.00    +0.000 C 
ENDROOT
BRANCH   1   6
ATOM      3  C   UNL     1      51.809   6.133  17.329  0.00  0.00    +0.000 A 
ATOM      4  C   UNL     1      50.573   5.509  17.546  0.00  0.00    +0.000 A 
ATOM      5  C   UNL     1      49.502   5.760  16.681  0.00  0.00    +0.000 A 
ATOM      6  C   UNL     1      49.665   6.633  15.602  0.00  0.00    +0.000 A 
ATOM      7  C   UNL     1      50.895   7.260  15.390  0.00  0.00    +0.000 A 
ATOM      8  C   UNL     1      51.963   7.017  16.256  0.00  0.00    +0.000 A 
BRANCH   3  10
ATOM      9  N   UNL     1      53.025   4.692  18.862  0.00  0.00    +0.000 N 
ATOM     10  C   UNL     1      52.973   5.896  18.218  0.00  0.00    +0.000 C 
ATOM     11  O   UNL     1      53.873   6.718  18.337  0.00  0.00    +0.000 OA
ATOM     12  H   UNL     1      53.886   4.489  19.357  0.00  0.00    +0.000 HD
ATOM     13  H   UNL     1      52.451   3.910  18.584  0.00  0.00    +0.000 HD
ENDBRANCH   3  10
ENDBRANCH   1   6
BRANCH   2  14
ATOM     14  C   UNL     1      46.539   7.299  13.096  0.00  0.00    +0.000 A 
ATOM     15  C   UNL     1      46.271   8.566  12.588  0.00  0.00    +0.000 A 
ATOM     16  C   UNL     1      45.194   8.749  11.727  0.00  0.00    +0.000 A 
ATOM     17  C   UNL     1      44.393   7.659  11.368  0.00  0.00    +0.000 A 
ATOM     18  C   UNL     1      44.640   6.371  11.863  0.00  0.00    +0.000 A 
ATOM     19  C   UNL     1      45.727   6.218  12.739  0.00  0.00    +0.000 A 
BRANCH  18  20
ATOM     20  N   UNL     1      43.866   5.284  11.504  0.00  0.00    +0.000 N 
ATOM     21  C   UNL     1      43.134   4.476  12.486  0.00  0.00    +0.000 C 
ATOM     22  C   UNL     1      43.589   3.002  12.447  0.00  0.00    +0.000 C 
ATOM     23  N   UNL     1      43.557   2.409  11.092  0.00  0.00    +0.000 NA
ATOM     24  C   UNL     1      44.385   3.245  10.195  0.00  0.00    +0.000 C 
ATOM     25  C   UNL     1      43.950   4.728  10.146  0.00  0.00    +0.000 C 
ATOM     26  H   UNL     1      42.595   2.453  10.755  0.00  0.00    +0.000 HD
ENDBRANCH  18  20
ENDBRANCH   2  14
TORSDOF 4
ENDMDL
MODEL 8
REMARK VINA RESULT:    -5.435      3.174      9.790
REMARK INTER + INTRA:          -7.178
REMARK INTER:                  -6.712
REMARK INTRA:                  -0.467
REMARK UNBOUND:                -0.473
REMARK  Name = 
REMARK  4 active torsions:
REMARK  status: ('A' for Active; 'I' for Inactive)
REMARK    1  A    between atoms: C_2  and  C_4
REMARK    2  A    between atoms: C_7  and  C_8
REMARK    3  A    between atoms: C_9  and  C_10
REMARK    4  A    between atoms: C_14  and  N_15
REMARK                            x       y       z     vdW  Elec       q    Type
REMARK                         _______ _______ _______ _____ _____    ______ ____
ROOT
ATOM      1  C   UNL     1      47.408   5.591  14.315  0.00  0.00    +0.000 C 
ATOM      2  C   UNL     1      48.096   5.976  15.218  0.00  0.00    +0.000 C 
ENDROOT
BRANCH   1   6
ATOM      3  C   UNL     1      45.078   4.144  11.096  0.00  0.00    +0.000 A 
ATOM      4  C   UNL     1      45.360   3.307  12.184  0.00  0.00    +0.000 A 
ATOM      5  C   UNL     1      46.127   3.783  13.252  0.00  0.00    +0.000 A 
ATOM      6  C   UNL     1      46.613   5.093  13.234  0.00  0.00    +0.000 A 
ATOM      7  C   UNL     1      46.338   5.925  12.145  0.00  0.00    +0.000 A 
ATOM      8  C   UNL     1      45.579   5.450  11.074  0.00  0.00    +0.000 A 
BRANCH   3  10
ATOM      9  N   UNL     1      44.013   4.597   8.958  0.00  0.00    +0.000 N 
ATOM     10  C   UNL     1      44.266   3.683   9.941  0.00  0.00    +0.000 C 
ATOM     11  O   UNL     1      43.879   2.525   9.846  0.00  0.00    +0.000 OA
ATOM     12  H   UNL     1      43.577   4.236   8.118  0.00  0.00    +0.000 HD
ATOM     13  H   UNL     1      44.531   5.461   8.882  0.00  0.00    +0.000 HD
ENDBRANCH   3  10
ENDBRANCH   1   6
BRANCH   2  14
ATOM     14  C   UNL     1      48.936   6.414  16.292  0.00  0.00    +0.000 A 
ATOM     15  C   UNL     1      49.299   7.753  16.393  0.00  0.00    +0.000 A 
ATOM     16  C   UNL     1      50.108   8.170  17.446  0.00  0.00    +0.000 A 
ATOM     17  C   UNL     1      50.542   7.245  18.402  0.00  0.00    +0.000 A 
ATOM     18  C   UNL     1      50.191   5.889  18.327  0.00  0.00    +0.000 A 
ATOM     19  C   UNL     1      49.384   5.496  17.247  0.00  0.00    +0.000 A 
BRANCH  18  20
ATOM     20  N   UNL     1      50.601   4.970  19.273  0.00  0.00    +0.000 N 
ATOM     21  C   UNL     1      50.041   4.928  20.629  0.00  0.00    +0.000 C 
ATOM     22  C   UNL     1      51.139   5.137  21.692  0.00  0.00    +0.000 C 
ATOM     23  N   UNL     1      52.298   4.232  21.532  0.00  0.00    +0.000 NA
ATOM     24  C   UNL     1      52.841   4.403  20.167  0.00  0.00    +0.000 C 
ATOM     25  C   UNL     1      51.804   4.157  19.046  0.00  0.00    +0.000 C 
ATOM     26  H   UNL     1      51.958   3.273  21.611  0.00  0.00    +0.000 HD
ENDBRANCH  18  20
ENDBRANCH   2  14
TORSDOF 4
ENDMDL
MODEL 9
REMARK VINA RESULT:    -5.329      3.981     10.017
REMARK INTER + INTRA:          -7.049
REMARK INTER:                  -6.556
REMARK INTRA:                  -0.492
REMARK UNBOUND:                -0.473
REMARK  Name = 
REMARK  4 active torsions:
REMARK  status: ('A' for Active; 'I' for Inactive)
REMARK    1  A    between atoms: C_2  and  C_4
REMARK    2  A    between atoms: C_7  and  C_8
REMARK    3  A    between atoms: C_9  and  C_10
REMARK    4  A    between atoms: C_14  and  N_15
REMARK                            x       y       z     vdW  Elec       q    Type
REMARK                         _______ _______ _______ _____ _____    ______ ____
ROOT
ATOM      1  C   UNL     1      47.715   6.191  14.002  0.00  0.00    +0.000 C 
ATOM      2  C   UNL     1      48.483   6.679  14.783  0.00  0.00    +0.000 C 
ENDROOT
BRANCH   1   6
ATOM      3  C   UNL     1      45.079   4.475  11.176  0.00  0.00    +0.000 A 
ATOM      4  C   UNL     1      45.682   5.711  10.906  0.00  0.00    +0.000 A 
ATOM      5  C   UNL     1      46.558   6.280  11.837  0.00  0.00    +0.000 A 
ATOM      6  C   UNL     1      46.829   5.617  13.037  0.00  0.00    +0.000 A 
ATOM      7  C   UNL     1      46.222   4.388  13.309  0.00  0.00    +0.000 A 
ATOM      8  C   UNL     1      45.342   3.822  12.384  0.00  0.00    +0.000 A 
BRANCH   3  10
ATOM      9  N   UNL     1      44.010   4.425   8.994  0.00  0.00    +0.000 N 
ATOM     10  C   UNL     1      44.145   3.832  10.217  0.00  0.00    +0.000 C 
ATOM     11  O   UNL     1      43.558   2.793  10.487  0.00  0.00    +0.000 OA
ATOM     12  H   UNL     1      43.478   3.906   8.305  0.00  0.00    +0.000 HD
ATOM     13  H   UNL     1      44.666   5.113   8.656  0.00  0.00    +0.000 HD
ENDBRANCH   3  10
ENDBRANCH   1   6
BRANCH   2  14
ATOM     14  C   UNL     1      49.419   7.267  15.694  0.00  0.00    +0.000 A 
ATOM     15  C   UNL     1      50.721   7.536  15.280  0.00  0.00    +0.000 A 
ATOM     16  C   UNL     1      51.619   8.116  16.169  0.00  0.00    +0.000 A 
ATOM     17  C   UNL     1      51.209   8.437  17.468  0.00  0.00    +0.000 A 
ATOM     18  C   UNL     1      49.905   8.179  17.913  0.00  0.00    +0.000 A 
ATOM     19  C   UNL     1      49.023   7.582  16.997  0.00  0.00    +0.000 A 
BRANCH  18  20
ATOM     20  N   UNL     1      49.484   8.504  19.187  0.00  0.00    +0.000 N 
ATOM     21  C   UNL     1      48.173   8.105  19.712  0.00  0.00    +0.000 C 
ATOM     22  C   UNL     1      47.334   9.337  20.112  0.00  0.00    +0.000 C 
ATOM     23  N   UNL     1      48.043  10.269  21.015  0.00  0.00    +0.000 NA
ATOM     24  C   UNL     1      49.309  10.676  20.368  0.00  0.00    +0.000 C 
ATOM     25  C   UNL     1      50.226   9.490  19.986  0.00  0.00    +0.000 C 
ATOM     26  H   UNL     1      48.282   9.758  21.865  0.00  0.00    +0.000 HD
ENDBRANCH  18  20
ENDBRANCH   2  14
TORSDOF 4
ENDMDL
