MODEL 1
REMARK VINA RESULT:    -7.825      0.000      0.000
REMARK INTER + INTRA:         -10.119
REMARK INTER:                  -9.655
REMARK INTRA:                  -0.463
REMARK UNBOUND:                -0.463
REMARK  Name = 
REMARK  4 active torsions:
REMARK  status: ('A' for Active; 'I' for Inactive)
REMARK    1  A    between atoms: C_2  and  C_4
REMARK    2  A    between atoms: N_8  and  C_9
REMARK    3  A    between atoms: C_9  and  C_10
REMARK    4  A    between atoms: C_10  and  C_11
REMARK                            x       y       z     vdW  Elec       q    Type
REMARK                         _______ _______ _______ _____ _____    ______ ____
ROOT
ATOM      1  C   UNL     1      46.488   2.553   7.705  0.00  0.00    +0.000 A 
ATOM      2  C   UNL     1      46.481   3.946   7.687  0.00  0.00    +0.000 A 
ATOM      3  C   UNL     1      45.531   4.636   8.453  0.00  0.00    +0.000 A 
ATOM      4  C   UNL     1      44.637   3.921   9.253  0.00  0.00    +0.000 A 
ATOM      5  N   UNL     1      43.642   4.598   9.984  0.00  0.00    +0.000 N 
ATOM      6  N   UNL     1      44.644   2.574   9.261  0.00  0.00    +0.000 NA
ATOM      7  C   UNL     1      45.540   1.919   8.486  0.00  0.00    +0.000 A 
ATOM      8  H   UNL     1      43.857   5.583  10.090  0.00  0.00    +0.000 HD
ENDROOT
BRANCH   1  10
ATOM      9  N   UNL     1      48.502   2.365   6.367  0.00  0.00    +0.000 N 
ATOM     10  C   UNL     1      47.432   1.726   6.932  0.00  0.00    +0.000 C 
ATOM     11  O   UNL     1      47.300   0.510   6.839  0.00  0.00    +0.000 OA
ATOM     12  H   UNL     1      49.208   1.766   5.954  0.00  0.00    +0.000 HD
ATOM     13  H   UNL     1      48.786   3.289   6.652  0.00  0.00    +0.000 HD
ENDBRANCH   1  10
BRANCH   5  14
ATOM     14  C   UNL     1      43.383   3.956  11.278  0.00  0.00    +0.000 C 
BRANCH  14  15
ATOM     15  C   UNL     1      43.130   4.992  12.379  0.00  0.00    +0.000 C 
BRANCH  15  16
ATOM     16  C   UNL     1      44.448   5.527  12.993  0.00  0.00    +0.000 C 
ATOM     17  C   UNL     1      44.923   6.792  12.255  0.00  0.00    +0.000 C 
ATOM     18  C   UNL     1      46.249   7.320  12.807  0.00  0.00    +0.000 C 
ATOM     19  C   UNL     1      47.331   6.245  12.803  0.00  0.00    +0.000 C 
ATOM     20  C   UNL     1      46.875   5.011  13.566  0.00  0.00    +0.000 C 
ATOM     21  C   UNL     1      45.561   4.464  13.012  0.00  0.00    +0.000 C 
ENDBRANCH  15  16
ENDBRANCH  14  15
ENDBRANCH   5  14
TORSDOF 4
ENDMDL
MODEL 2
REMARK VINA RESULT:    -7.331      3.170      6.327
REMARK INTER + INTRA:          -9.508
REMARK INTER:                  -9.126
REMARK INTRA:                  -0.383
REMARK UNBOUND:                -0.463
REMARK  Name = 
REMARK  4 active torsions:
REMARK  status: ('A' for Active; 'I' for Inactive)
REMARK    1  A    between atoms: C_2  and  C_4
REMARK    2  A    between atoms: N_8  and  C_9
REMARK    3  A    between atoms: C_9  and  C_10
REMARK    4  A    between atoms: C_10  and  C_11
REMARK                            x       y       z     vdW  Elec       q    Type
REMARK                         _______ _______ _______ _____ _____    ______ ____
ROOT
ATOM      1  C   UNL     1      46.996   5.662  13.476  0.00  0.00    +0.000 A 
ATOM      2  C   UNL     1      47.144   4.314  13.798  0.00  0.00    +0.000 A 
ATOM      3  C   UNL     1      46.267   3.376  13.235  0.00  0.00    +0.000 A 
ATOM      4  C   UNL     1      45.291   3.798  12.330  0.00  0.00    +0.000 A 
ATOM      5  N   UNL     1      44.370   2.875  11.800  0.00  0.00    +0.000 N 
ATOM      6  N   UNL     1      45.149   5.103  12.027  0.00  0.00    +0.000 NA
ATOM      7  C   UNL     1      45.975   6.004  12.609  0.00  0.00    +0.000 A 
ATOM      8  H   UNL     1      44.690   1.920  11.903  0.00  0.00    +0.000 HD
ENDROOT
BRANCH   1  10
ATOM      9  N   UNL     1      47.319   7.993  14.061  0.00  0.00    +0.000 N 
ATOM     10  C   UNL     1      47.851   6.733  14.016  0.00  0.00    +0.000 C 
ATOM     11  O   UNL     1      48.973   6.505  14.457  0.00  0.00    +0.000 OA
ATOM     12  H   UNL     1      47.867   8.689  14.555  0.00  0.00    +0.000 HD
ATOM     13  H   UNL     1      46.329   8.159  13.973  0.00  0.00    +0.000 HD
ENDBRANCH   1  10
BRANCH   5  14
ATOM     14  C   UNL     1      44.027   3.185  10.406  0.00  0.00    +0.000 C 
BRANCH  14  15
ATOM     15  C   UNL     1      44.399   2.033   9.466  0.00  0.00    +0.000 C 
BRANCH  15  16
ATOM     16  C   UNL     1      45.692   2.326   8.664  0.00  0.00    +0.000 C 
ATOM     17  C   UNL     1      45.450   3.431   7.619  0.00  0.00    +0.000 C 
ATOM     18  C   UNL     1      46.695   3.713   6.776  0.00  0.00    +0.000 C 
ATOM     19  C   UNL     1      47.231   2.445   6.117  0.00  0.00    +0.000 C 
ATOM     20  C   UNL     1      47.505   1.367   7.155  0.00  0.00    +0.000 C 
ATOM     21  C   UNL     1      46.264   1.065   7.990  0.00  0.00    +0.000 C 
ENDBRANCH  15  16
ENDBRANCH  14  15
ENDBRANCH   5  14
TORSDOF 4
ENDMDL
MODEL 3
REMARK VINA RESULT:    -6.959      3.192      6.564
REMARK INTER + INTRA:          -9.050
REMARK INTER:                  -9.059
REMARK INTRA:                   0.009
REMARK UNBOUND:                -0.463
REMARK  Name = 
REMARK  4 active torsions:
REMARK  status: ('A' for Active; 'I' for Inactive)
REMARK    1  A    between atoms: C_2  and  C_4
REMARK    2  A    between atoms: N_8  and  C_9
REMARK    3  A    between atoms: C_9  and  C_10
REMARK    4  A    between atoms: C_10  and  C_11
REMARK                            x       y       z     vdW  Elec       q    Type
REMARK                         _______ _______ _______ _____ _____    ______ ____
ROOT
ATOM      1  C   UNL     1      45.520   7.179  12.622  0.00  0.00    +0.000 A 
ATOM      2  C   UNL     1      46.467   6.194  12.895  0.00  0.00    +0.000 A 
ATOM      3  C   UNL     1      46.211   4.872  12.505  0.00  0.00    +0.000 A 
ATOM      4  C   UNL     1      45.037   4.570  11.812  0.00  0.00    +0.000 A 
ATOM      5  N   UNL     1      44.742   3.239  11.464  0.00  0.00    +0.000 N 
ATOM      6  N   UNL     1      44.122   5.526  11.556  0.00  0.00    +0.000 NA
ATOM      7  C   UNL     1      44.362   6.791  11.974  0.00  0.00    +0.000 A 
ATOM      8  H   UNL     1      45.565   2.650  11.493  0.00  0.00    +0.000 HD
ENDROOT
BRANCH   1  10
ATOM      9  N   UNL     1      46.600   8.887  13.962  0.00  0.00    +0.000 N 
ATOM     10  C   UNL     1      45.678   8.596  12.994  0.00  0.00    +0.000 C 
ATOM     11  O   UNL     1      45.052   9.487  12.430  0.00  0.00    +0.000 OA
ATOM     12  H   UNL     1      46.791   9.872  14.112  0.00  0.00    +0.000 HD
ATOM     13  H   UNL     1      47.313   8.230  14.238  0.00  0.00    +0.000 HD
ENDBRANCH   1  10
BRANCH   5  14
ATOM     14  C   UNL     1      44.058   3.153  10.168  0.00  0.00    +0.000 C 
BRANCH  14  15
ATOM     15  C   UNL     1      44.789   3.965   9.092  0.00  0.00    +0.000 C 
BRANCH  15  16
ATOM     16  C   UNL     1      45.432   3.059   8.012  0.00  0.00    +0.000 C 
ATOM     17  C   UNL     1      45.931   1.740   8.628  0.00  0.00    +0.000 C 
ATOM     18  C   UNL     1      46.616   0.841   7.596  0.00  0.00    +0.000 C 
ATOM     19  C   UNL     1      47.745   1.569   6.873  0.00  0.00    +0.000 C 
ATOM     20  C   UNL     1      47.242   2.854   6.232  0.00  0.00    +0.000 C 
ATOM     21  C   UNL     1      46.573   3.766   7.256  0.00  0.00    +0.000 C 
ENDBRANCH  15  16
ENDBRANCH  14  15
ENDBRANCH   5  14
TORSDOF 4
ENDMDL
MODEL 4
REMARK VINA RESULT:    -5.940      3.785      6.757
REMARK INTER + INTRA:          -7.792
REMARK INTER:                  -7.512
REMARK INTRA:                  -0.280
REMARK UNBOUND:                -0.463
REMARK  Name = 
REMARK  4 active torsions:
REMARK  status: ('A' for Active; 'I' for Inactive)
REMARK    1  A    between atoms: C_2  and  C_4
REMARK    2  A    between atoms: N_8  and  C_9
REMARK    3  A    between atoms: C_9  and  C_10
REMARK    4  A    between atoms: C_10  and  C_11
REMARK                            x       y       z     vdW  Elec       q    Type
REMARK                         _______ _______ _______ _____ _____    ______ ____
ROOT
ATOM      1  C   UNL     1      47.618   8.308  12.969  0.00  0.00    +0.000 A 
ATOM      2  C   UNL     1      46.283   8.705  13.012  0.00  0.00    +0.000 A 
ATOM      3  C   UNL     1      45.335   8.002  12.255  0.00  0.00    +0.000 A 
ATOM      4  C   UNL     1      45.733   6.893  11.507  0.00  0.00    +0.000 A 
ATOM      5  N   UNL     1      44.803   6.211  10.699  0.00  0.00    +0.000 N 
ATOM      6  N   UNL     1      47.027   6.517  11.464  0.00  0.00    +0.000 NA
ATOM      7  C   UNL     1      47.938   7.229  12.167  0.00  0.00    +0.000 A 
ATOM      8  H   UNL     1      43.848   6.418  10.968  0.00  0.00    +0.000 HD
ENDROOT
BRANCH   1  10
ATOM      9  N   UNL     1      49.608   9.694  12.982  0.00  0.00    +0.000 N 
ATOM     10  C   UNL     1      48.698   8.979  13.713  0.00  0.00    +0.000 C 
ATOM     11  O   UNL     1      48.757   8.946  14.937  0.00  0.00    +0.000 OA
ATOM     12  H   UNL     1      50.263  10.255  13.516  0.00  0.00    +0.000 HD
ATOM     13  H   UNL     1      49.432   9.968  12.028  0.00  0.00    +0.000 HD
ENDBRANCH   1  10
BRANCH   5  14
ATOM     14  C   UNL     1      45.059   4.766  10.672  0.00  0.00    +0.000 C 
BRANCH  14  15
ATOM     15  C   UNL     1      44.082   4.040   9.739  0.00  0.00    +0.000 C 
BRANCH  15  16
ATOM     16  C   UNL     1      44.809   3.327   8.571  0.00  0.00    +0.000 C 
ATOM     17  C   UNL     1      45.442   2.006   9.044  0.00  0.00    +0.000 C 
ATOM     18  C   UNL     1      46.209   1.299   7.924  0.00  0.00    +0.000 C 
ATOM     19  C   UNL     1      47.255   2.211   7.291  0.00  0.00    +0.000 C 
ATOM     20  C   UNL     1      46.621   3.500   6.790  0.00  0.00    +0.000 C 
ATOM     21  C   UNL     1      45.868   4.224   7.903  0.00  0.00    +0.000 C 
ENDBRANCH  15  16
ENDBRANCH  14  15
ENDBRANCH   5  14
TORSDOF 4
ENDMDL
MODEL 5
REMARK VINA RESULT:    -5.903      4.183      5.710
REMARK INTER + INTRA:          -7.747
REMARK INTER:                  -7.488
REMARK INTRA:                  -0.259
REMARK UNBOUND:                -0.463
REMARK  Name = 
REMARK  4 active torsions:
REMARK  status: ('A' for Active; 'I' for Inactive)
REMARK    1  A    between atoms: C_2  and  C_4
REMARK    2  A    between atoms: N_8  and  C_9
REMARK    3  A    between atoms: C_9  and  C_10
REMARK    4  A    between atoms: C_10  and  C_11
REMARK                            x       y       z     vdW  Elec       q    Type
REMARK                         _______ _______ _______ _____ _____    ______ ____
ROOT
ATOM      1  C   UNL     1      44.938   4.131  11.118  0.00  0.00    +0.000 A 
ATOM      2  C   UNL     1      45.507   5.399  11.216  0.00  0.00    +0.000 A 
ATOM      3  C   UNL     1      46.105   5.789  12.422  0.00  0.00    +0.000 A 
ATOM      4  C   UNL     1      46.162   4.890  13.489  0.00  0.00    +0.000 A 
ATOM      5  N   UNL     1      46.711   5.287  14.722  0.00  0.00    +0.000 N 
ATOM      6  N   UNL     1      45.605   3.667  13.390  0.00  0.00    +0.000 NA
ATOM      7  C   UNL     1      44.994   3.317  12.234  0.00  0.00    +0.000 A 
ATOM      8  H   UNL     1      47.289   6.114  14.630  0.00  0.00    +0.000 HD
ENDROOT
BRANCH   1  10
ATOM      9  N   UNL     1      43.986   4.528   8.923  0.00  0.00    +0.000 N 
ATOM     10  C   UNL     1      44.274   3.620   9.906  0.00  0.00    +0.000 C 
ATOM     11  O   UNL     1      44.034   2.427   9.754  0.00  0.00    +0.000 OA
ATOM     12  H   UNL     1      43.652   4.142   8.047  0.00  0.00    +0.000 HD
ATOM     13  H   UNL     1      44.412   5.441   8.896  0.00  0.00    +0.000 HD
ENDBRANCH   1  10
BRANCH   5  14
ATOM     14  C   UNL     1      47.434   4.190  15.377  0.00  0.00    +0.000 C 
BRANCH  14  15
ATOM     15  C   UNL     1      46.984   4.010  16.832  0.00  0.00    +0.000 C 
BRANCH  15  16
ATOM     16  C   UNL     1      47.815   4.876  17.812  0.00  0.00    +0.000 C 
ATOM     17  C   UNL     1      48.859   4.019  18.551  0.00  0.00    +0.000 C 
ATOM     18  C   UNL     1      49.666   4.835  19.563  0.00  0.00    +0.000 C 
ATOM     19  C   UNL     1      48.762   5.566  20.550  0.00  0.00    +0.000 C 
ATOM     20  C   UNL     1      47.755   6.442  19.820  0.00  0.00    +0.000 C 
ATOM     21  C   UNL     1      46.931   5.634  18.820  0.00  0.00    +0.000 C 
ENDBRANCH  15  16
ENDBRANCH  14  15
ENDBRANCH   5  14
TORSDOF 4
ENDMDL
MODEL 6
REMARK VINA RESULT:    -5.677      3.722      5.648
REMARK INTER + INTRA:          -7.468
REMARK INTER:                  -7.111
REMARK INTRA:                  -0.356
REMARK UNBOUND:                -0.463
REMARK  Name = 
REMARK  4 active torsions:
REMARK  status: ('A' for Active; 'I' for Inactive)
REMARK    1  A    between atoms: C_2  and  C_4
REMARK    2  A    between atoms: N_8  and  C_9
REMARK    3  A    between atoms: C_9  and  C_10
REMARK    4  A    between atoms: C_10  and  C_11
REMARK                            x       y       z     vdW  Elec       q    Type
REMARK                         _______ _______ _______ _____ _____    ______ ____
ROOT
ATOM      1  C   UNL     1      44.805   5.028  11.313  0.00  0.00    +0.000 A 
ATOM      2  C   UNL     1      45.086   6.371  11.069  0.00  0.00    +0.000 A 
ATOM      3  C   UNL     1      45.916   7.068  11.958  0.00  0.00    +0.000 A 
ATOM      4  C   UNL     1      46.482   6.399  13.045  0.00  0.00    +0.000 A 
ATOM      5  N   UNL     1      47.273   7.100  13.975  0.00  0.00    +0.000 N 
ATOM      6  N   UNL     1      46.202   5.102  13.278  0.00  0.00    +0.000 NA
ATOM      7  C   UNL     1      45.367   4.451  12.436  0.00  0.00    +0.000 A 
ATOM      8  H   UNL     1      47.602   7.983  13.602  0.00  0.00    +0.000 HD
ENDROOT
BRANCH   1  10
ATOM      9  N   UNL     1      43.977   4.447   9.109  0.00  0.00    +0.000 N 
ATOM     10  C   UNL     1      43.938   4.202  10.454  0.00  0.00    +0.000 C 
ATOM     11  O   UNL     1      43.248   3.297  10.912  0.00  0.00    +0.000 OA
ATOM     12  H   UNL     1      43.479   3.786   8.523  0.00  0.00    +0.000 HD
ATOM     13  H   UNL     1      44.722   4.976   8.682  0.00  0.00    +0.000 HD
ENDBRANCH   1  10
BRANCH   5  14
ATOM     14  C   UNL     1      48.379   6.278  14.481  0.00  0.00    +0.000 C 
BRANCH  14  15
ATOM     15  C   UNL     1      48.784   6.693  15.900  0.00  0.00    +0.000 C 
BRANCH  15  16
ATOM     16  C   UNL     1      48.283   5.690  16.969  0.00  0.00    +0.000 C 
ATOM     17  C   UNL     1      49.384   5.395  18.004  0.00  0.00    +0.000 C 
ATOM     18  C   UNL     1      48.937   4.370  19.049  0.00  0.00    +0.000 C 
ATOM     19  C   UNL     1      48.437   3.083  18.400  0.00  0.00    +0.000 C 
ATOM     20  C   UNL     1      47.322   3.372  17.406  0.00  0.00    +0.000 C 
ATOM     21  C   UNL     1      47.763   4.380  16.348  0.00  0.00    +0.000 C 
ENDBRANCH  15  16
ENDBRANCH  14  15
ENDBRANCH   5  14
TORSDOF 4
ENDMDL
MODEL 7
REMARK VINA RESULT:    -5.676      4.400      6.384
REMARK INTER + INTRA:          -7.467
REMARK INTER:                  -7.144
REMARK INTRA:                  -0.323
REMARK UNBOUND:                -0.463
REMARK  Name = 
REMARK  4 active torsions:
REMARK  status: ('A' for Active; 'I' for Inactive)
REMARK    1  A    between atoms: C_2  and  C_4
REMARK    2  A    between atoms: N_8  and  C_9
REMARK    3  A    between atoms: C_9  and  C_10
REMARK    4  A    between atoms: C_10  and  C_11
REMARK                            x       y       z     vdW  Elec       q    Type
REMARK                         _______ _______ _______ _____ _____    ______ ____
ROOT
ATOM      1  C   UNL     1      44.621   4.960  11.921  0.00  0.00    +0.000 A 
ATOM      2  C   UNL     1      44.906   3.596  11.877  0.00  0.00    +0.000 A 
ATOM      3  C   UNL     1      45.852   3.067  12.766  0.00  0.00    +0.000 A 
ATOM      4  C   UNL     1      46.459   3.901  13.708  0.00  0.00    +0.000 A 
ATOM      5  N   UNL     1      47.450   3.394  14.569  0.00  0.00    +0.000 N 
ATOM      6  N   UNL     1      46.183   5.219  13.741  0.00  0.00    +0.000 NA
ATOM      7  C   UNL     1      45.299   5.726  12.850  0.00  0.00    +0.000 A 
ATOM      8  H   UNL     1      47.423   2.382  14.622  0.00  0.00    +0.000 HD
ENDROOT
BRANCH   1  10
ATOM      9  N   UNL     1      43.312   6.915  11.332  0.00  0.00    +0.000 N 
ATOM     10  C   UNL     1      43.655   5.625  11.029  0.00  0.00    +0.000 C 
ATOM     11  O   UNL     1      43.213   5.073  10.027  0.00  0.00    +0.000 OA
ATOM     12  H   UNL     1      42.754   7.399  10.638  0.00  0.00    +0.000 HD
ATOM     13  H   UNL     1      43.856   7.478  11.966  0.00  0.00    +0.000 HD
ENDBRANCH   1  10
BRANCH   5  14
ATOM     14  C   UNL     1      47.384   4.010  15.900  0.00  0.00    +0.000 C 
BRANCH  14  15
ATOM     15  C   UNL     1      47.682   2.991  17.006  0.00  0.00    +0.000 C 
BRANCH  15  16
ATOM     16  C   UNL     1      49.064   3.228  17.664  0.00  0.00    +0.000 C 
ATOM     17  C   UNL     1      49.493   4.700  17.523  0.00  0.00    +0.000 C 
ATOM     18  C   UNL     1      50.878   4.959  18.121  0.00  0.00    +0.000 C 
ATOM     19  C   UNL     1      51.931   4.023  17.536  0.00  0.00    +0.000 C 
ATOM     20  C   UNL     1      51.524   2.568  17.712  0.00  0.00    +0.000 C 
ATOM     21  C   UNL     1      50.151   2.294  17.102  0.00  0.00    +0.000 C 
ENDBRANCH  15  16
ENDBRANCH  14  15
ENDBRANCH   5  14
TORSDOF 4
ENDMDL
MODEL 8
REMARK VINA RESULT:    -5.390      5.438      7.999
REMARK INTER + INTRA:          -7.113
REMARK INTER:                  -6.817
REMARK INTRA:                  -0.296
REMARK UNBOUND:                -0.463
REMARK  Name = 
REMARK  4 active torsions:
REMARK  status: ('A' for Active; 'I' for Inactive)
REMARK    1  A    between atoms: C_2  and  C_4
REMARK    2  A    between atoms: N_8  and  C_9
REMARK    3  A    between atoms: C_9  and  C_10
REMARK    4  A    between atoms: C_10  and  C_11
REMARK                            x       y       z     vdW  Elec       q    Type
REMARK                         _______ _______ _______ _____ _____    ______ ____
ROOT
ATOM      1  C   UNL     1      49.606   4.661  17.517  0.00  0.00    +0.000 A 
ATOM      2  C   UNL     1      48.797   3.532  17.623  0.00  0.00    +0.000 A 
ATOM      3  C   UNL     1      47.688   3.403  16.774  0.00  0.00    +0.000 A 
ATOM      4  C   UNL     1      47.438   4.381  15.810  0.00  0.00    +0.000 A 
ATOM      5  N   UNL     1      46.298   4.291  14.989  0.00  0.00    +0.000 N 
ATOM      6  N   UNL     1      48.221   5.473  15.716  0.00  0.00    +0.000 NA
ATOM      7  C   UNL     1      49.264   5.606  16.568  0.00  0.00    +0.000 A 
ATOM      8  H   UNL     1      45.913   3.354  14.978  0.00  0.00    +0.000 HD
ENDROOT
BRANCH   1  10
ATOM      9  N   UNL     1      50.833   4.269  19.572  0.00  0.00    +0.000 N 
ATOM     10  C   UNL     1      50.788   4.907  18.362  0.00  0.00    +0.000 C 
ATOM     11  O   UNL     1      51.719   5.609  17.983  0.00  0.00    +0.000 OA
ATOM     12  H   UNL     1      51.707   4.343  20.080  0.00  0.00    +0.000 HD
ATOM     13  H   UNL     1      50.236   3.486  19.786  0.00  0.00    +0.000 HD
ENDBRANCH   1  10
BRANCH   5  14
ATOM     14  C   UNL     1      46.562   4.786  13.632  0.00  0.00    +0.000 C 
BRANCH  14  15
ATOM     15  C   UNL     1      45.386   5.612  13.097  0.00  0.00    +0.000 C 
BRANCH  15  16
ATOM     16  C   UNL     1      44.855   5.069  11.747  0.00  0.00    +0.000 C 
ATOM     17  C   UNL     1      44.655   3.544  11.811  0.00  0.00    +0.000 C 
ATOM     18  C   UNL     1      44.175   2.967  10.477  0.00  0.00    +0.000 C 
ATOM     19  C   UNL     1      45.104   3.349   9.329  0.00  0.00    +0.000 C 
ATOM     20  C   UNL     1      45.270   4.859   9.243  0.00  0.00    +0.000 C 
ATOM     21  C   UNL     1      45.766   5.443  10.563  0.00  0.00    +0.000 C 
ENDBRANCH  15  16
ENDBRANCH  14  15
ENDBRANCH   5  14
TORSDOF 4
ENDMDL
MODEL 9
REMARK VINA RESULT:    -5.287      5.930      8.187
REMARK INTER + INTRA:          -6.986
REMARK INTER:                  -6.579
REMARK INTRA:                  -0.407
REMARK UNBOUND:                -0.463
REMARK  Name = 
REMARK  4 active torsions:
REMARK  status: ('A' for Active; 'I' for Inactive)
REMARK    1  A    between atoms: C_2  and  C_4
REMARK    2  A    between atoms: N_8  and  C_9
REMARK    3  A    between atoms: C_9  and  C_10
REMARK    4  A    between atoms: C_10  and  C_11
REMARK                            x       y       z     vdW  Elec       q    Type
REMARK                         _______ _______ _______ _____ _____    ______ ____
ROOT
ATOM      1  C   UNL     1      50.734   2.493  17.387  0.00  0.00    +0.000 A 
ATOM      2  C   UNL     1      49.453   2.070  17.034  0.00  0.00    +0.000 A 
ATOM      3  C   UNL     1      48.474   3.028  16.739  0.00  0.00    +0.000 A 
ATOM      4  C   UNL     1      48.805   4.384  16.758  0.00  0.00    +0.000 A 
ATOM      5  N   UNL     1      47.818   5.358  16.517  0.00  0.00    +0.000 N 
ATOM      6  N   UNL     1      50.043   4.787  17.106  0.00  0.00    +0.000 NA
ATOM      7  C   UNL     1      50.968   3.854  17.429  0.00  0.00    +0.000 A 
ATOM      8  H   UNL     1      47.005   4.966  16.056  0.00  0.00    +0.000 HD
ENDROOT
BRANCH   1  10
ATOM      9  N   UNL     1      51.500   0.291  18.056  0.00  0.00    +0.000 N 
ATOM     10  C   UNL     1      51.836   1.577  17.729  0.00  0.00    +0.000 C 
ATOM     11  O   UNL     1      53.009   1.928  17.674  0.00  0.00    +0.000 OA
ATOM     12  H   UNL     1      52.273  -0.357  18.158  0.00  0.00    +0.000 HD
ATOM     13  H   UNL     1      50.594  -0.096  17.842  0.00  0.00    +0.000 HD
ENDBRANCH   1  10
BRANCH   5  14
ATOM     14  C   UNL     1      48.355   6.511  15.783  0.00  0.00    +0.000 C 
BRANCH  14  15
ATOM     15  C   UNL     1      48.412   6.240  14.275  0.00  0.00    +0.000 C 
BRANCH  15  16
ATOM     16  C   UNL     1      47.000   6.098  13.652  0.00  0.00    +0.000 C 
ATOM     17  C   UNL     1      46.644   4.616  13.434  0.00  0.00    +0.000 C 
ATOM     18  C   UNL     1      45.273   4.441  12.775  0.00  0.00    +0.000 C 
ATOM     19  C   UNL     1      45.167   5.228  11.473  0.00  0.00    +0.000 C 
ATOM     20  C   UNL     1      45.482   6.699  11.698  0.00  0.00    +0.000 C 
ATOM     21  C   UNL     1      46.855   6.886  12.338  0.00  0.00    +0.000 C 
ENDBRANCH  15  16
ENDBRANCH  14  15
ENDBRANCH   5  14
TORSDOF 4
ENDMDL
