MODEL 1
REMARK VINA RESULT:    -7.509      0.000      0.000
REMARK INTER + INTRA:         -10.379
REMARK INTER:                  -9.704
REMARK INTRA:                  -0.675
REMARK UNBOUND:                -0.675
REMARK  Name = 
REMARK  5 active torsions:
REMARK  status: ('A' for Active; 'I' for Inactive)
REMARK    1  A    between atoms: C_2  and  C_4
REMARK    2  A    between atoms: C_8  and  O_9
REMARK    3  A    between atoms: O_9  and  C_10
REMARK    4  A    between atoms: C_10  and  C_11
REMARK    5  A    between atoms: C_16  and  N_17
REMARK                            x       y       z     vdW  Elec       q    Type
REMARK                         _______ _______ _______ _____ _____    ______ ____
ROOT
ATOM      1  C   UNL     1      45.104   4.914  11.635  0.00  0.00    +0.000 A 
ATOM      2  C   UNL     1      45.471   3.941  12.557  0.00  0.00    +0.000 A 
ATOM      3  F   UNL     1      44.885   2.737  12.533  0.00  0.00    +0.000 F 
ATOM      4  C   UNL     1      46.423   4.203  13.531  0.00  0.00    +0.000 A 
ATOM      5  C   UNL     1      47.027   5.461  13.590  0.00  0.00    +0.000 A 
ATOM      6  C   UNL     1      46.694   6.486  12.687  0.00  0.00    +0.000 A 
ATOM      7  C   UNL     1      45.726   6.166  11.709  0.00  0.00    +0.000 A 
ATOM      8  F   UNL     1      45.381   7.088  10.790  0.00  0.00    +0.000 F 
ENDROOT
BRANCH   6   9
ATOM      9  N   UNL     1      47.271   7.738  12.796  0.00  0.00    +0.000 N 
ATOM     10  C   UNL     1      46.515   8.943  13.162  0.00  0.00    +0.000 C 
ATOM     11  C   UNL     1      46.778  10.069  12.136  0.00  0.00    +0.000 C 
ATOM     12  N   UNL     1      48.214  10.369  11.950  0.00  0.00    +0.000 NA
ATOM     13  C   UNL     1      48.914   9.122  11.574  0.00  0.00    +0.000 C 
ATOM     14  C   UNL     1      48.710   7.952  12.571  0.00  0.00    +0.000 C 
ATOM     15  H   UNL     1      48.590  10.678  12.847  0.00  0.00    +0.000 HD
ENDBRANCH   6   9
BRANCH   1  16
ATOM     16  C   UNL     1      44.069   4.632  10.593  0.00  0.00    +0.000 C 
BRANCH  16  17
ATOM     17  O   UNL     1      44.624   4.856   9.293  0.00  0.00    +0.000 OA
BRANCH  17  22
ATOM     18  C   UNL     1      46.516   2.628   7.236  0.00  0.00    +0.000 A 
ATOM     19  C   UNL     1      46.176   1.377   7.727  0.00  0.00    +0.000 A 
ATOM     20  C   UNL     1      45.285   1.315   8.794  0.00  0.00    +0.000 A 
ATOM     21  C   UNL     1      44.766   2.499   9.319  0.00  0.00    +0.000 A 
ATOM     22  C   UNL     1      45.163   3.703   8.758  0.00  0.00    +0.000 A 
ATOM     23  N   UNL     1      46.031   3.799   7.731  0.00  0.00    +0.000 NA
BRANCH  18  25
ATOM     24  N   UNL     1      48.797   2.641   6.432  0.00  0.00    +0.000 N 
ATOM     25  C   UNL     1      47.476   2.762   6.095  0.00  0.00    +0.000 C 
ATOM     26  O   UNL     1      47.114   2.959   4.943  0.00  0.00    +0.000 OA
ATOM     27  H   UNL     1      49.504   2.713   5.715  0.00  0.00    +0.000 HD
ATOM     28  H   UNL     1      49.053   2.467   7.397  0.00  0.00    +0.000 HD
ENDBRANCH  18  25
ENDBRANCH  17  22
ENDBRANCH  16  17
ENDBRANCH   1  16
TORSDOF 5
ENDMDL
MODEL 2
REMARK VINA RESULT:    -7.418      4.487      7.957
REMARK INTER + INTRA:         -10.262
REMARK INTER:                  -9.413
REMARK INTRA:                  -0.849
REMARK UNBOUND:                -0.675
REMARK  Name = 
REMARK  5 active torsions:
REMARK  status: ('A' for Active; 'I' for Inactive)
REMARK    1  A    between atoms: C_2  and  C_4
REMARK    2  A    between atoms: C_8  and  O_9
REMARK    3  A    between atoms: O_9  and  C_10
REMARK    4  A    between atoms: C_10  and  C_11
REMARK    5  A    between atoms: C_16  and  N_17
REMARK                            x       y       z     vdW  Elec       q    Type
REMARK                         _______ _______ _______ _____ _____    ______ ____
ROOT
ATOM      1  C   UNL     1      48.045   6.742  13.891  0.00  0.00    +0.000 A 
ATOM      2  C   UNL     1      48.010   7.877  13.090  0.00  0.00    +0.000 A 
ATOM      3  F   UNL     1      48.938   8.832  13.234  0.00  0.00    +0.000 F 
ATOM      4  C   UNL     1      47.006   8.056  12.149  0.00  0.00    +0.000 A 
ATOM      5  C   UNL     1      46.014   7.083  12.001  0.00  0.00    +0.000 A 
ATOM      6  C   UNL     1      45.995   5.917  12.786  0.00  0.00    +0.000 A 
ATOM      7  C   UNL     1      47.045   5.778  13.723  0.00  0.00    +0.000 A 
ATOM      8  F   UNL     1      47.110   4.672  14.486  0.00  0.00    +0.000 F 
ENDROOT
BRANCH   6   9
ATOM      9  N   UNL     1      44.975   4.993  12.653  0.00  0.00    +0.000 N 
ATOM     10  C   UNL     1      45.197   3.603  12.233  0.00  0.00    +0.000 C 
ATOM     11  C   UNL     1      44.255   3.244  11.063  0.00  0.00    +0.000 C 
ATOM     12  N   UNL     1      42.828   3.496  11.359  0.00  0.00    +0.000 NA
ATOM     13  C   UNL     1      42.671   4.910  11.764  0.00  0.00    +0.000 C 
ATOM     14  C   UNL     1      43.575   5.336  12.948  0.00  0.00    +0.000 C 
ATOM     15  H   UNL     1      42.565   2.914  12.155  0.00  0.00    +0.000 HD
ENDBRANCH   6   9
BRANCH   1  16
ATOM     16  C   UNL     1      49.124   6.557  14.912  0.00  0.00    +0.000 C 
BRANCH  16  17
ATOM     17  O   UNL     1      48.616   6.884  16.209  0.00  0.00    +0.000 OA
BRANCH  17  22
ATOM     18  C   UNL     1      49.304   3.644  17.555  0.00  0.00    +0.000 A 
ATOM     19  C   UNL     1      48.759   3.708  18.829  0.00  0.00    +0.000 A 
ATOM     20  C   UNL     1      48.156   4.899  19.221  0.00  0.00    +0.000 A 
ATOM     21  C   UNL     1      48.114   5.970  18.328  0.00  0.00    +0.000 A 
ATOM     22  C   UNL     1      48.683   5.809  17.074  0.00  0.00    +0.000 A 
ATOM     23  N   UNL     1      49.284   4.673  16.665  0.00  0.00    +0.000 NA
BRANCH  18  25
ATOM     24  N   UNL     1      51.032   1.976  17.838  0.00  0.00    +0.000 N 
ATOM     25  C   UNL     1      49.975   2.394  17.077  0.00  0.00    +0.000 C 
ATOM     26  O   UNL     1      49.607   1.783  16.082  0.00  0.00    +0.000 OA
ATOM     27  H   UNL     1      51.530   1.136  17.582  0.00  0.00    +0.000 HD
ATOM     28  H   UNL     1      51.297   2.506  18.661  0.00  0.00    +0.000 HD
ENDBRANCH  18  25
ENDBRANCH  17  22
ENDBRANCH  16  17
ENDBRANCH   1  16
TORSDOF 5
ENDMDL
MODEL 3
REMARK VINA RESULT:    -7.290      4.073      7.686
REMARK INTER + INTRA:         -10.096
REMARK INTER:                  -9.199
REMARK INTRA:                  -0.897
REMARK UNBOUND:                -0.675
REMARK  Name = 
REMARK  5 active torsions:
REMARK  status: ('A' for Active; 'I' for Inactive)
REMARK    1  A    between atoms: C_2  and  C_4
REMARK    2  A    between atoms: C_8  and  O_9
REMARK    3  A    between atoms: O_9  and  C_10
REMARK    4  A    between atoms: C_10  and  C_11
REMARK    5  A    between atoms: C_16  and  N_17
REMARK                            x       y       z     vdW  Elec       q    Type
REMARK                         _______ _______ _______ _____ _____    ______ ____
ROOT
ATOM      1  C   UNL     1      47.181   7.140  12.924  0.00  0.00    +0.000 A 
ATOM      2  C   UNL     1      46.760   8.431  12.631  0.00  0.00    +0.000 A 
ATOM      3  F   UNL     1      47.516   9.481  12.977  0.00  0.00    +0.000 F 
ATOM      4  C   UNL     1      45.544   8.660  12.003  0.00  0.00    +0.000 A 
ATOM      5  C   UNL     1      44.728   7.580  11.658  0.00  0.00    +0.000 A 
ATOM      6  C   UNL     1      45.100   6.252  11.933  0.00  0.00    +0.000 A 
ATOM      7  C   UNL     1      46.351   6.072  12.565  0.00  0.00    +0.000 A 
ATOM      8  F   UNL     1      46.787   4.827  12.830  0.00  0.00    +0.000 F 
ENDROOT
BRANCH   6   9
ATOM      9  N   UNL     1      44.252   5.203  11.625  0.00  0.00    +0.000 N 
ATOM     10  C   UNL     1      43.350   4.583  12.604  0.00  0.00    +0.000 C 
ATOM     11  C   UNL     1      43.539   3.050  12.605  0.00  0.00    +0.000 C 
ATOM     12  N   UNL     1      43.384   2.438  11.267  0.00  0.00    +0.000 NA
ATOM     13  C   UNL     1      44.324   3.097  10.334  0.00  0.00    +0.000 C 
ATOM     14  C   UNL     1      44.179   4.638  10.268  0.00  0.00    +0.000 C 
ATOM     15  H   UNL     1      42.437   2.631  10.941  0.00  0.00    +0.000 HD
ENDBRANCH   6   9
BRANCH   1  16
ATOM     16  C   UNL     1      48.488   6.897  13.611  0.00  0.00    +0.000 C 
BRANCH  16  17
ATOM     17  O   UNL     1      48.492   7.557  14.881  0.00  0.00    +0.000 OA
BRANCH  17  22
ATOM     18  C   UNL     1      48.485   4.571  16.847  0.00  0.00    +0.000 A 
ATOM     19  C   UNL     1      49.086   4.971  18.031  0.00  0.00    +0.000 A 
ATOM     20  C   UNL     1      49.505   6.293  18.137  0.00  0.00    +0.000 A 
ATOM     21  C   UNL     1      49.302   7.161  17.064  0.00  0.00    +0.000 A 
ATOM     22  C   UNL     1      48.689   6.670  15.921  0.00  0.00    +0.000 A 
ATOM     23  N   UNL     1      48.279   5.393  15.782  0.00  0.00    +0.000 NA
BRANCH  18  25
ATOM     24  N   UNL     1      47.000   2.777  17.496  0.00  0.00    +0.000 N 
ATOM     25  C   UNL     1      48.020   3.160  16.668  0.00  0.00    +0.000 C 
ATOM     26  O   UNL     1      48.508   2.401  15.841  0.00  0.00    +0.000 OA
ATOM     27  H   UNL     1      46.628   1.841  17.430  0.00  0.00    +0.000 HD
ATOM     28  H   UNL     1      46.618   3.441  18.160  0.00  0.00    +0.000 HD
ENDBRANCH  18  25
ENDBRANCH  17  22
ENDBRANCH  16  17
ENDBRANCH   1  16
TORSDOF 5
ENDMDL
MODEL 4
REMARK VINA RESULT:    -7.195      1.891      3.213
REMARK INTER + INTRA:          -9.973
REMARK INTER:                  -9.311
REMARK INTRA:                  -0.662
REMARK UNBOUND:                -0.675
REMARK  Name = 
REMARK  5 active torsions:
REMARK  status: ('A' for Active; 'I' for Inactive)
REMARK    1  A    between atoms: C_2  and  C_4
REMARK    2  A    between atoms: C_8  and  O_9
REMARK    3  A    between atoms: O_9  and  C_10
REMARK    4  A    between atoms: C_10  and  C_11
REMARK    5  A    between atoms: C_16  and  N_17
REMARK                            x       y       z     vdW  Elec       q    Type
REMARK                         _______ _______ _______ _____ _____    ______ ____
ROOT
ATOM      1  C   UNL     1      45.143   6.173  11.616  0.00  0.00    +0.000 A 
ATOM      2  C   UNL     1      44.955   7.549  11.627  0.00  0.00    +0.000 A 
ATOM      3  F   UNL     1      44.112   8.120  10.756  0.00  0.00    +0.000 F 
ATOM      4  C   UNL     1      45.651   8.358  12.513  0.00  0.00    +0.000 A 
ATOM      5  C   UNL     1      46.554   7.785  13.411  0.00  0.00    +0.000 A 
ATOM      6  C   UNL     1      46.789   6.399  13.445  0.00  0.00    +0.000 A 
ATOM      7  C   UNL     1      46.049   5.619  12.528  0.00  0.00    +0.000 A 
ATOM      8  F   UNL     1      46.198   4.281  12.524  0.00  0.00    +0.000 F 
ENDROOT
BRANCH   6   9
ATOM      9  N   UNL     1      47.725   5.862  14.310  0.00  0.00    +0.000 N 
ATOM     10  C   UNL     1      47.516   4.606  15.043  0.00  0.00    +0.000 C 
ATOM     11  C   UNL     1      47.792   4.816  16.548  0.00  0.00    +0.000 C 
ATOM     12  N   UNL     1      49.128   5.387  16.826  0.00  0.00    +0.000 NA
ATOM     13  C   UNL     1      49.271   6.649  16.069  0.00  0.00    +0.000 C 
ATOM     14  C   UNL     1      49.025   6.510  14.546  0.00  0.00    +0.000 C 
ATOM     15  H   UNL     1      49.828   4.733  16.473  0.00  0.00    +0.000 HD
ENDBRANCH   6   9
BRANCH   1  16
ATOM     16  C   UNL     1      44.399   5.304  10.651  0.00  0.00    +0.000 C 
BRANCH  16  17
ATOM     17  O   UNL     1      45.071   5.307   9.388  0.00  0.00    +0.000 OA
BRANCH  17  22
ATOM     18  C   UNL     1      46.500   2.572   7.582  0.00  0.00    +0.000 A 
ATOM     19  C   UNL     1      45.868   1.466   8.130  0.00  0.00    +0.000 A 
ATOM     20  C   UNL     1      44.943   1.680   9.146  0.00  0.00    +0.000 A 
ATOM     21  C   UNL     1      44.681   2.984   9.568  0.00  0.00    +0.000 A 
ATOM     22  C   UNL     1      45.360   4.027   8.956  0.00  0.00    +0.000 A 
ATOM     23  N   UNL     1      46.269   3.854   7.976  0.00  0.00    +0.000 NA
BRANCH  18  25
ATOM     24  N   UNL     1      47.293   3.173   5.378  0.00  0.00    +0.000 N 
ATOM     25  C   UNL     1      47.511   2.408   6.491  0.00  0.00    +0.000 C 
ATOM     26  O   UNL     1      48.469   1.651   6.583  0.00  0.00    +0.000 OA
ATOM     27  H   UNL     1      47.937   3.122   4.602  0.00  0.00    +0.000 HD
ATOM     28  H   UNL     1      46.493   3.795   5.347  0.00  0.00    +0.000 HD
ENDBRANCH  18  25
ENDBRANCH  17  22
ENDBRANCH  16  17
ENDBRANCH   1  16
TORSDOF 5
ENDMDL
MODEL 5
REMARK VINA RESULT:    -6.670      3.814      7.127
REMARK INTER + INTRA:          -9.296
REMARK INTER:                  -8.226
REMARK INTRA:                  -1.070
REMARK UNBOUND:                -0.675
REMARK  Name = 
REMARK  5 active torsions:
REMARK  status: ('A' for Active; 'I' for Inactive)
REMARK    1  A    between atoms: C_2  and  C_4
REMARK    2  A    between atoms: C_8  and  O_9
REMARK    3  A    between atoms: O_9  and  C_10
REMARK    4  A    between atoms: C_10  and  C_11
REMARK    5  A    between atoms: C_16  and  N_17
REMARK                            x       y       z     vdW  Elec       q    Type
REMARK                         _______ _______ _______ _____ _____    ______ ____
ROOT
ATOM      1  C   UNL     1      47.855   6.835  13.013  0.00  0.00    +0.000 A 
ATOM      2  C   UNL     1      48.444   6.445  14.210  0.00  0.00    +0.000 A 
ATOM      3  F   UNL     1      49.575   7.030  14.624  0.00  0.00    +0.000 F 
ATOM      4  C   UNL     1      47.892   5.432  14.980  0.00  0.00    +0.000 A 
ATOM      5  C   UNL     1      46.727   4.792  14.551  0.00  0.00    +0.000 A 
ATOM      6  C   UNL     1      46.088   5.141  13.348  0.00  0.00    +0.000 A 
ATOM      7  C   UNL     1      46.685   6.184  12.605  0.00  0.00    +0.000 A 
ATOM      8  F   UNL     1      46.111   6.594  11.459  0.00  0.00    +0.000 F 
ENDROOT
BRANCH   6   9
ATOM      9  N   UNL     1      44.963   4.459  12.922  0.00  0.00    +0.000 N 
ATOM     10  C   UNL     1      45.021   3.174  12.214  0.00  0.00    +0.000 C 
ATOM     11  C   UNL     1      44.183   3.242  10.917  0.00  0.00    +0.000 C 
ATOM     12  N   UNL     1      42.786   3.671  11.144  0.00  0.00    +0.000 NA
ATOM     13  C   UNL     1      42.797   4.971  11.849  0.00  0.00    +0.000 C 
ATOM     14  C   UNL     1      43.606   4.971  13.171  0.00  0.00    +0.000 C 
ATOM     15  H   UNL     1      42.343   2.988  11.759  0.00  0.00    +0.000 HD
ENDBRANCH   6   9
BRANCH   1  16
ATOM     16  C   UNL     1      48.459   7.921  12.179  0.00  0.00    +0.000 C 
BRANCH  16  17
ATOM     17  O   UNL     1      48.253   9.185  12.816  0.00  0.00    +0.000 OA
BRANCH  17  22
ATOM     18  C   UNL     1      45.299  10.593  11.377  0.00  0.00    +0.000 A 
ATOM     19  C   UNL     1      45.790  11.630  10.597  0.00  0.00    +0.000 A 
ATOM     20  C   UNL     1      47.164  11.842  10.585  0.00  0.00    +0.000 A 
ATOM     21  C   UNL     1      47.991  11.011  11.341  0.00  0.00    +0.000 A 
ATOM     22  C   UNL     1      47.407   9.998  12.086  0.00  0.00    +0.000 A 
ATOM     23  N   UNL     1      46.079   9.770  12.129  0.00  0.00    +0.000 NA
BRANCH  18  25
ATOM     24  N   UNL     1      43.457   9.063  11.044  0.00  0.00    +0.000 N 
ATOM     25  C   UNL     1      43.829  10.319  11.439  0.00  0.00    +0.000 C 
ATOM     26  O   UNL     1      43.015  11.149  11.821  0.00  0.00    +0.000 OA
ATOM     27  H   UNL     1      42.482   8.801  11.064  0.00  0.00    +0.000 HD
ATOM     28  H   UNL     1      44.165   8.402  10.745  0.00  0.00    +0.000 HD
ENDBRANCH  18  25
ENDBRANCH  17  22
ENDBRANCH  16  17
ENDBRANCH   1  16
TORSDOF 5
ENDMDL
MODEL 6
REMARK VINA RESULT:    -6.417      4.150      5.519
REMARK INTER + INTRA:          -8.968
REMARK INTER:                  -8.063
REMARK INTRA:                  -0.906
REMARK UNBOUND:                -0.675
REMARK  Name = 
REMARK  5 active torsions:
REMARK  status: ('A' for Active; 'I' for Inactive)
REMARK    1  A    between atoms: C_2  and  C_4
REMARK    2  A    between atoms: C_8  and  O_9
REMARK    3  A    between atoms: O_9  and  C_10
REMARK    4  A    between atoms: C_10  and  C_11
REMARK    5  A    between atoms: C_16  and  N_17
REMARK                            x       y       z     vdW  Elec       q    Type
REMARK                         _______ _______ _______ _____ _____    ______ ____
ROOT
ATOM      1  C   UNL     1      47.910   4.393  16.315  0.00  0.00    +0.000 A 
ATOM      2  C   UNL     1      47.885   3.586  17.445  0.00  0.00    +0.000 A 
ATOM      3  F   UNL     1      47.307   2.379  17.398  0.00  0.00    +0.000 F 
ATOM      4  C   UNL     1      48.429   4.021  18.645  0.00  0.00    +0.000 A 
ATOM      5  C   UNL     1      49.013   5.288  18.722  0.00  0.00    +0.000 A 
ATOM      6  C   UNL     1      49.064   6.150  17.613  0.00  0.00    +0.000 A 
ATOM      7  C   UNL     1      48.504   5.657  16.412  0.00  0.00    +0.000 A 
ATOM      8  F   UNL     1      48.546   6.414  15.301  0.00  0.00    +0.000 F 
ENDROOT
BRANCH   6   9
ATOM      9  N   UNL     1      49.604   7.418  17.728  0.00  0.00    +0.000 N 
ATOM     10  C   UNL     1      48.803   8.608  18.044  0.00  0.00    +0.000 C 
ATOM     11  C   UNL     1      49.080   9.726  17.013  0.00  0.00    +0.000 C 
ATOM     12  N   UNL     1      50.515  10.060  16.883  0.00  0.00    +0.000 NA
ATOM     13  C   UNL     1      51.262   8.826  16.555  0.00  0.00    +0.000 C 
ATOM     14  C   UNL     1      51.045   7.666  17.559  0.00  0.00    +0.000 C 
ATOM     15  H   UNL     1      50.845  10.391  17.790  0.00  0.00    +0.000 HD
ENDBRANCH   6   9
BRANCH   1  16
ATOM     16  C   UNL     1      47.312   3.925  15.025  0.00  0.00    +0.000 C 
BRANCH  16  17
ATOM     17  O   UNL     1      46.052   4.570  14.819  0.00  0.00    +0.000 OA
BRANCH  17  22
ATOM     18  C   UNL     1      44.741   3.835  11.575  0.00  0.00    +0.000 A 
ATOM     19  C   UNL     1      45.168   4.910  10.810  0.00  0.00    +0.000 A 
ATOM     20  C   UNL     1      45.911   5.903  11.438  0.00  0.00    +0.000 A 
ATOM     21  C   UNL     1      46.204   5.781  12.797  0.00  0.00    +0.000 A 
ATOM     22  C   UNL     1      45.736   4.667  13.477  0.00  0.00    +0.000 A 
ATOM     23  N   UNL     1      45.006   3.691  12.902  0.00  0.00    +0.000 NA
BRANCH  18  25
ATOM     24  N   UNL     1      44.458   2.197   9.819  0.00  0.00    +0.000 N 
ATOM     25  C   UNL     1      43.931   2.737  10.960  0.00  0.00    +0.000 C 
ATOM     26  O   UNL     1      42.876   2.343  11.439  0.00  0.00    +0.000 OA
ATOM     27  H   UNL     1      43.972   1.447   9.349  0.00  0.00    +0.000 HD
ATOM     28  H   UNL     1      45.341   2.546   9.461  0.00  0.00    +0.000 HD
ENDBRANCH  18  25
ENDBRANCH  17  22
ENDBRANCH  16  17
ENDBRANCH   1  16
TORSDOF 5
ENDMDL
MODEL 7
REMARK VINA RESULT:    -6.365      5.128      6.516
REMARK INTER + INTRA:          -8.901
REMARK INTER:                  -8.284
REMARK INTRA:                  -0.618
REMARK UNBOUND:                -0.675
REMARK  Name = 
REMARK  5 active torsions:
REMARK  status: ('A' for Active; 'I' for Inactive)
REMARK    1  A    between atoms: C_2  and  C_4
REMARK    2  A    between atoms: C_8  and  O_9
REMARK    3  A    between atoms: O_9  and  C_10
REMARK    4  A    between atoms: C_10  and  C_11
REMARK    5  A    between atoms: C_16  and  N_17
REMARK                            x       y       z     vdW  Elec       q    Type
REMARK                         _______ _______ _______ _____ _____    ______ ____
ROOT
ATOM      1  C   UNL     1      48.128   4.735  16.667  0.00  0.00    +0.000 A 
ATOM      2  C   UNL     1      48.280   3.432  17.123  0.00  0.00    +0.000 A 
ATOM      3  F   UNL     1      48.081   2.401  16.293  0.00  0.00    +0.000 F 
ATOM      4  C   UNL     1      48.611   3.173  18.445  0.00  0.00    +0.000 A 
ATOM      5  C   UNL     1      48.797   4.234  19.334  0.00  0.00    +0.000 A 
ATOM      6  C   UNL     1      48.653   5.573  18.931  0.00  0.00    +0.000 A 
ATOM      7  C   UNL     1      48.324   5.784  17.573  0.00  0.00    +0.000 A 
ATOM      8  F   UNL     1      48.201   7.041  17.108  0.00  0.00    +0.000 F 
ENDROOT
BRANCH   6   9
ATOM      9  N   UNL     1      48.795   6.604  19.842  0.00  0.00    +0.000 N 
ATOM     10  C   UNL     1      47.840   6.854  20.930  0.00  0.00    +0.000 C 
ATOM     11  C   UNL     1      47.391   8.332  20.916  0.00  0.00    +0.000 C 
ATOM     12  N   UNL     1      48.519   9.288  20.958  0.00  0.00    +0.000 NA
ATOM     13  C   UNL     1      49.435   8.991  19.835  0.00  0.00    +0.000 C 
ATOM     14  C   UNL     1      49.941   7.527  19.797  0.00  0.00    +0.000 C 
ATOM     15  H   UNL     1      49.032   9.131  21.827  0.00  0.00    +0.000 HD
ENDBRANCH   6   9
BRANCH   1  16
ATOM     16  C   UNL     1      47.759   5.011  15.243  0.00  0.00    +0.000 C 
BRANCH  16  17
ATOM     17  O   UNL     1      46.514   4.377  14.939  0.00  0.00    +0.000 OA
BRANCH  17  22
ATOM     18  C   UNL     1      44.938   4.084  11.743  0.00  0.00    +0.000 A 
ATOM     19  C   UNL     1      45.330   5.242  11.089  0.00  0.00    +0.000 A 
ATOM     20  C   UNL     1      46.143   6.137  11.778  0.00  0.00    +0.000 A 
ATOM     21  C   UNL     1      46.537   5.836  13.082  0.00  0.00    +0.000 A 
ATOM     22  C   UNL     1      46.097   4.650  13.650  0.00  0.00    +0.000 A 
ATOM     23  N   UNL     1      45.302   3.767  13.016  0.00  0.00    +0.000 NA
BRANCH  18  25
ATOM     24  N   UNL     1      43.417   2.210  11.894  0.00  0.00    +0.000 N 
ATOM     25  C   UNL     1      44.057   3.086  11.060  0.00  0.00    +0.000 C 
ATOM     26  O   UNL     1      43.909   3.053   9.845  0.00  0.00    +0.000 OA
ATOM     27  H   UNL     1      42.800   1.511  11.507  0.00  0.00    +0.000 HD
ATOM     28  H   UNL     1      43.559   2.279  12.896  0.00  0.00    +0.000 HD
ENDBRANCH  18  25
ENDBRANCH  17  22
ENDBRANCH  16  17
ENDBRANCH   1  16
TORSDOF 5
ENDMDL
MODEL 8
REMARK VINA RESULT:    -6.289      4.575      8.553
REMARK INTER + INTRA:          -8.803
REMARK INTER:                  -8.069
REMARK INTRA:                  -0.734
REMARK UNBOUND:                -0.675
REMARK  Name = 
REMARK  5 active torsions:
REMARK  status: ('A' for Active; 'I' for Inactive)
REMARK    1  A    between atoms: C_2  and  C_4
REMARK    2  A    between atoms: C_8  and  O_9
REMARK    3  A    between atoms: O_9  and  C_10
REMARK    4  A    between atoms: C_10  and  C_11
REMARK    5  A    between atoms: C_16  and  N_17
REMARK                            x       y       z     vdW  Elec       q    Type
REMARK                         _______ _______ _______ _____ _____    ______ ____
ROOT
ATOM      1  C   UNL     1      47.151   6.881  13.289  0.00  0.00    +0.000 A 
ATOM      2  C   UNL     1      46.700   8.188  13.155  0.00  0.00    +0.000 A 
ATOM      3  F   UNL     1      47.401   9.200  13.682  0.00  0.00    +0.000 F 
ATOM      4  C   UNL     1      45.509   8.469  12.501  0.00  0.00    +0.000 A 
ATOM      5  C   UNL     1      44.750   7.425  11.966  0.00  0.00    +0.000 A 
ATOM      6  C   UNL     1      45.153   6.083  12.074  0.00  0.00    +0.000 A 
ATOM      7  C   UNL     1      46.378   5.851  12.741  0.00  0.00    +0.000 A 
ATOM      8  F   UNL     1      46.844   4.594  12.854  0.00  0.00    +0.000 F 
ENDROOT
BRANCH   6   9
ATOM      9  N   UNL     1      44.360   5.065  11.579  0.00  0.00    +0.000 N 
ATOM     10  C   UNL     1      43.328   4.388  12.376  0.00  0.00    +0.000 C 
ATOM     11  C   UNL     1      43.516   2.857  12.301  0.00  0.00    +0.000 C 
ATOM     12  N   UNL     1      43.554   2.337  10.916  0.00  0.00    +0.000 NA
ATOM     13  C   UNL     1      44.616   3.049  10.172  0.00  0.00    +0.000 C 
ATOM     14  C   UNL     1      44.480   4.592  10.190  0.00  0.00    +0.000 C 
ATOM     15  H   UNL     1      42.662   2.559  10.473  0.00  0.00    +0.000 HD
ENDBRANCH   6   9
BRANCH   1  16
ATOM     16  C   UNL     1      48.431   6.581  14.004  0.00  0.00    +0.000 C 
BRANCH  16  17
ATOM     17  O   UNL     1      48.175   5.681  15.086  0.00  0.00    +0.000 OA
BRANCH  17  22
ATOM     18  C   UNL     1      49.439   5.749  18.429  0.00  0.00    +0.000 A 
ATOM     19  C   UNL     1      49.838   7.068  18.590  0.00  0.00    +0.000 A 
ATOM     20  C   UNL     1      49.671   7.935  17.515  0.00  0.00    +0.000 A 
ATOM     21  C   UNL     1      49.110   7.456  16.331  0.00  0.00    +0.000 A 
ATOM     22  C   UNL     1      48.739   6.122  16.268  0.00  0.00    +0.000 A 
ATOM     23  N   UNL     1      48.894   5.252  17.285  0.00  0.00    +0.000 NA
BRANCH  18  25
ATOM     24  N   UNL     1      50.868   4.279  19.712  0.00  0.00    +0.000 N 
ATOM     25  C   UNL     1      49.600   4.765  19.545  0.00  0.00    +0.000 C 
ATOM     26  O   UNL     1      48.671   4.418  20.263  0.00  0.00    +0.000 OA
ATOM     27  H   UNL     1      51.057   3.616  20.449  0.00  0.00    +0.000 HD
ATOM     28  H   UNL     1      51.612   4.601  19.101  0.00  0.00    +0.000 HD
ENDBRANCH  18  25
ENDBRANCH  17  22
ENDBRANCH  16  17
ENDBRANCH   1  16
TORSDOF 5
ENDMDL
MODEL 9
REMARK VINA RESULT:    -6.247      4.577      7.048
REMARK INTER + INTRA:          -8.748
REMARK INTER:                  -7.865
REMARK INTRA:                  -0.883
REMARK UNBOUND:                -0.675
REMARK  Name = 
REMARK  5 active torsions:
REMARK  status: ('A' for Active; 'I' for Inactive)
REMARK    1  A    between atoms: C_2  and  C_4
REMARK    2  A    between atoms: C_8  and  O_9
REMARK    3  A    between atoms: O_9  and  C_10
REMARK    4  A    between atoms: C_10  and  C_11
REMARK    5  A    between atoms: C_16  and  N_17
REMARK                            x       y       z     vdW  Elec       q    Type
REMARK                         _______ _______ _______ _____ _____    ______ ____
ROOT
ATOM      1  C   UNL     1      49.705   7.173  14.967  0.00  0.00    +0.000 A 
ATOM      2  C   UNL     1      50.980   7.725  14.928  0.00  0.00    +0.000 A 
ATOM      3  F   UNL     1      51.322   8.559  13.938  0.00  0.00    +0.000 F 
ATOM      4  C   UNL     1      51.926   7.404  15.890  0.00  0.00    +0.000 A 
ATOM      5  C   UNL     1      51.598   6.515  16.916  0.00  0.00    +0.000 A 
ATOM      6  C   UNL     1      50.326   5.922  17.006  0.00  0.00    +0.000 A 
ATOM      7  C   UNL     1      49.395   6.288  16.007  0.00  0.00    +0.000 A 
ATOM      8  F   UNL     1      48.148   5.785  16.046  0.00  0.00    +0.000 F 
ENDROOT
BRANCH   6   9
ATOM      9  N   UNL     1      50.041   5.007  18.003  0.00  0.00    +0.000 N 
ATOM     10  C   UNL     1      49.836   3.576  17.747  0.00  0.00    +0.000 C 
ATOM     11  C   UNL     1      48.511   3.105  18.389  0.00  0.00    +0.000 C 
ATOM     12  N   UNL     1      48.417   3.414  19.833  0.00  0.00    +0.000 NA
ATOM     13  C   UNL     1      48.622   4.867  20.021  0.00  0.00    +0.000 C 
ATOM     14  C   UNL     1      49.942   5.406  19.416  0.00  0.00    +0.000 C 
ATOM     15  H   UNL     1      49.178   2.929  20.309  0.00  0.00    +0.000 HD
ENDBRANCH   6   9
BRANCH   1  16
ATOM     16  C   UNL     1      48.690   7.512  13.921  0.00  0.00    +0.000 C 
BRANCH  16  17
ATOM     17  O   UNL     1      48.479   6.380  13.074  0.00  0.00    +0.000 OA
BRANCH  17  22
ATOM     18  C   UNL     1      45.249   5.063  12.290  0.00  0.00    +0.000 A 
ATOM     19  C   UNL     1      44.569   6.165  11.793  0.00  0.00    +0.000 A 
ATOM     20  C   UNL     1      45.246   7.380  11.742  0.00  0.00    +0.000 A 
ATOM     21  C   UNL     1      46.569   7.444  12.180  0.00  0.00    +0.000 A 
ATOM     22  C   UNL     1      47.164   6.286  12.658  0.00  0.00    +0.000 A 
ATOM     23  N   UNL     1      46.536   5.096  12.730  0.00  0.00    +0.000 NA
BRANCH  18  25
ATOM     24  N   UNL     1      45.418   2.658  12.472  0.00  0.00    +0.000 N 
ATOM     25  C   UNL     1      44.574   3.730  12.379  0.00  0.00    +0.000 C 
ATOM     26  O   UNL     1      43.357   3.601  12.375  0.00  0.00    +0.000 OA
ATOM     27  H   UNL     1      45.037   1.726  12.543  0.00  0.00    +0.000 HD
ATOM     28  H   UNL     1      46.421   2.810  12.483  0.00  0.00    +0.000 HD
ENDBRANCH  18  25
ENDBRANCH  17  22
ENDBRANCH  16  17
ENDBRANCH   1  16
TORSDOF 5
ENDMDL
