MODEL 1
REMARK VINA RESULT:    -8.002      0.000      0.000
REMARK INTER + INTRA:         -12.212
REMARK INTER:                 -10.809
REMARK INTRA:                  -1.403
REMARK UNBOUND:                -1.403
REMARK  Name = 
REMARK  10 active torsions:
REMARK  status: ('A' for Active; 'I' for Inactive)
REMARK    1  A    between atoms: C_1  and  C_2
REMARK    2  A    between atoms: C_2  and  C_3
REMARK    3  A    between atoms: C_2  and  C_4
REMARK    4  A    between atoms: C_2  and  C_15
REMARK    5  A    between atoms: C_4  and  N_5
REMARK    6  A    between atoms: C_9  and  C_10
REMARK    7  A    between atoms: C_19  and  C_20
REMARK    8  A    between atoms: C_20  and  C_21
REMARK    9  A    between atoms: C_20  and  C_22
REMARK   10  A    between atoms: C_20  and  C_23
REMARK                            x       y       z     vdW  Elec       q    Type
REMARK                         _______ _______ _______ _____ _____    ______ ____
ROOT
ATOM      1  C   UNL     1      43.500   6.886  11.334  0.00  0.00    +0.000 C 
ATOM      2  C   UNL     1      43.620   5.508  12.022  0.00  0.00    +0.000 C 
ATOM      3  C   UNL     1      42.502   5.417  13.089  0.00  0.00    +0.000 C 
ENDROOT
BRANCH   2   4
ATOM      4  C   UNL     1      45.039   5.367  12.623  0.00  0.00    +0.000 A 
ATOM      5  C   UNL     1      45.576   4.136  13.015  0.00  0.00    +0.000 A 
ATOM      6  C   UNL     1      46.874   4.055  13.509  0.00  0.00    +0.000 A 
ATOM      7  C   UNL     1      47.675   5.196  13.595  0.00  0.00    +0.000 A 
ATOM      8  C   UNL     1      47.203   6.454  13.190  0.00  0.00    +0.000 A 
ATOM      9  C   UNL     1      45.864   6.510  12.753  0.00  0.00    +0.000 A 
BRANCH   8  10
ATOM     10  C   UNL     1      48.114   7.700  13.154  0.00  0.00    +0.000 C 
ATOM     11  C   UNL     1      47.633   8.721  12.092  0.00  0.00    +0.000 C 
ATOM     12  C   UNL     1      48.100   8.461  14.508  0.00  0.00    +0.000 C 
BRANCH  10  13
ATOM     13  C   UNL     1      49.590   7.365  12.839  0.00  0.00    +0.000 C 
ATOM     14  C   UNL     1      50.743   8.173  13.463  0.00  0.00    +0.000 C 
ATOM     15  N   UNL     1      51.443   8.177  12.171  0.00  0.00    +0.000 NA
ATOM     16  C   UNL     1      50.247   7.678  11.478  0.00  0.00    +0.000 C 
ATOM     17  H   UNL     1      52.242   7.545  12.132  0.00  0.00    +0.000 HD
ENDBRANCH  10  13
ENDBRANCH   8  10
ENDBRANCH   2   4
BRANCH   2  18
ATOM     18  C   UNL     1      43.418   4.350  10.990  0.00  0.00    +0.000 C 
BRANCH  18  19
ATOM     19  N   UNL     1      43.857   4.708   9.648  0.00  0.00    +0.000 N 
ATOM     20  C   UNL     1      44.819   3.952   9.011  0.00  0.00    +0.000 A 
ATOM     21  C   UNL     1      44.965   2.578   9.186  0.00  0.00    +0.000 A 
ATOM     22  C   UNL     1      45.927   1.891   8.442  0.00  0.00    +0.000 A 
ATOM     23  C   UNL     1      46.713   2.577   7.523  0.00  0.00    +0.000 A 
ATOM     24  C   UNL     1      46.497   3.940   7.408  0.00  0.00    +0.000 A 
ATOM     25  N   UNL     1      45.584   4.633   8.133  0.00  0.00    +0.000 NA
ATOM     26  H   UNL     1      44.099   5.684   9.492  0.00  0.00    +0.000 HD
BRANCH  23  27
ATOM     27  C   UNL     1      47.712   1.824   6.724  0.00  0.00    +0.000 C 
ATOM     28  N   UNL     1      48.762   2.501   6.171  0.00  0.00    +0.000 N 
ATOM     29  O   UNL     1      47.604   0.613   6.561  0.00  0.00    +0.000 OA
ATOM     30  H   UNL     1      48.929   3.487   6.216  0.00  0.00    +0.000 HD
ATOM     31  H   UNL     1      49.408   1.938   5.624  0.00  0.00    +0.000 HD
ENDBRANCH  23  27
ENDBRANCH  18  19
ENDBRANCH   2  18
TORSDOF 6
ENDMDL
MODEL 2
REMARK VINA RESULT:    -7.817      0.986      2.059
REMARK INTER + INTRA:         -11.963
REMARK INTER:                 -11.094
REMARK INTRA:                  -0.869
REMARK UNBOUND:                -1.403
REMARK  Name = 
REMARK  10 active torsions:
REMARK  status: ('A' for Active; 'I' for Inactive)
REMARK    1  A    between atoms: C_1  and  C_2
REMARK    2  A    between atoms: C_2  and  C_3
REMARK    3  A    between atoms: C_2  and  C_4
REMARK    4  A    between atoms: C_2  and  C_15
REMARK    5  A    between atoms: C_4  and  N_5
REMARK    6  A    between atoms: C_9  and  C_10
REMARK    7  A    between atoms: C_19  and  C_20
REMARK    8  A    between atoms: C_20  and  C_21
REMARK    9  A    between atoms: C_20  and  C_22
REMARK   10  A    between atoms: C_20  and  C_23
REMARK                            x       y       z     vdW  Elec       q    Type
REMARK                         _______ _______ _______ _____ _____    ______ ____
ROOT
ATOM      1  C   UNL     1      43.190   4.796  13.549  0.00  0.00    +0.000 C 
ATOM      2  C   UNL     1      44.072   4.751  12.283  0.00  0.00    +0.000 C 
ATOM      3  C   UNL     1      45.147   3.657  12.499  0.00  0.00    +0.000 C 
ENDROOT
BRANCH   2   4
ATOM      4  C   UNL     1      44.680   6.153  12.043  0.00  0.00    +0.000 A 
ATOM      5  C   UNL     1      43.925   7.237  11.583  0.00  0.00    +0.000 A 
ATOM      6  C   UNL     1      44.509   8.490  11.425  0.00  0.00    +0.000 A 
ATOM      7  C   UNL     1      45.852   8.696  11.750  0.00  0.00    +0.000 A 
ATOM      8  C   UNL     1      46.653   7.655  12.244  0.00  0.00    +0.000 A 
ATOM      9  C   UNL     1      46.047   6.385  12.333  0.00  0.00    +0.000 A 
BRANCH   8  10
ATOM     10  C   UNL     1      48.098   7.893  12.732  0.00  0.00    +0.000 C 
ATOM     11  C   UNL     1      48.124   8.769  14.011  0.00  0.00    +0.000 C 
ATOM     12  C   UNL     1      48.800   6.563  13.118  0.00  0.00    +0.000 C 
BRANCH  10  13
ATOM     13  C   UNL     1      48.990   8.587  11.677  0.00  0.00    +0.000 C 
ATOM     14  C   UNL     1      50.420   8.091  11.390  0.00  0.00    +0.000 C 
ATOM     15  N   UNL     1      50.895   9.481  11.341  0.00  0.00    +0.000 NA
ATOM     16  C   UNL     1      49.629   9.973  11.903  0.00  0.00    +0.000 C 
ATOM     17  H   UNL     1      51.092   9.817  10.400  0.00  0.00    +0.000 HD
ENDBRANCH  10  13
ENDBRANCH   8  10
ENDBRANCH   2   4
BRANCH   2  18
ATOM     18  C   UNL     1      43.224   4.373  11.024  0.00  0.00    +0.000 C 
BRANCH  18  19
ATOM     19  N   UNL     1      43.829   4.830   9.780  0.00  0.00    +0.000 N 
ATOM     20  C   UNL     1      44.747   4.036   9.125  0.00  0.00    +0.000 A 
ATOM     21  C   UNL     1      44.706   2.644   9.126  0.00  0.00    +0.000 A 
ATOM     22  C   UNL     1      45.642   1.930   8.375  0.00  0.00    +0.000 A 
ATOM     23  C   UNL     1      46.590   2.612   7.619  0.00  0.00    +0.000 A 
ATOM     24  C   UNL     1      46.555   3.995   7.671  0.00  0.00    +0.000 A 
ATOM     25  N   UNL     1      45.670   4.710   8.408  0.00  0.00    +0.000 NA
ATOM     26  H   UNL     1      44.203   5.777   9.774  0.00  0.00    +0.000 HD
BRANCH  23  27
ATOM     27  C   UNL     1      47.560   1.835   6.809  0.00  0.00    +0.000 C 
ATOM     28  N   UNL     1      48.598   2.492   6.210  0.00  0.00    +0.000 N 
ATOM     29  O   UNL     1      47.440   0.621   6.675  0.00  0.00    +0.000 OA
ATOM     30  H   UNL     1      48.772   3.478   6.228  0.00  0.00    +0.000 HD
ATOM     31  H   UNL     1      49.224   1.913   5.657  0.00  0.00    +0.000 HD
ENDBRANCH  23  27
ENDBRANCH  18  19
ENDBRANCH   2  18
TORSDOF 6
ENDMDL
MODEL 3
REMARK VINA RESULT:    -6.978      3.769      6.305
REMARK INTER + INTRA:         -10.830
REMARK INTER:                  -9.456
REMARK INTRA:                  -1.374
REMARK UNBOUND:                -1.403
REMARK  Name = 
REMARK  10 active torsions:
REMARK  status: ('A' for Active; 'I' for Inactive)
REMARK    1  A    between atoms: C_1  and  C_2
REMARK    2  A    between atoms: C_2  and  C_3
REMARK    3  A    between atoms: C_2  and  C_4
REMARK    4  A    between atoms: C_2  and  C_15
REMARK    5  A    between atoms: C_4  and  N_5
REMARK    6  A    between atoms: C_9  and  C_10
REMARK    7  A    between atoms: C_19  and  C_20
REMARK    8  A    between atoms: C_20  and  C_21
REMARK    9  A    between atoms: C_20  and  C_22
REMARK   10  A    between atoms: C_20  and  C_23
REMARK                            x       y       z     vdW  Elec       q    Type
REMARK                         _______ _______ _______ _____ _____    ______ ____
ROOT
ATOM      1  C   UNL     1      50.508   9.065  13.898  0.00  0.00    +0.000 C 
ATOM      2  C   UNL     1      49.512   7.963  14.320  0.00  0.00    +0.000 C 
ATOM      3  C   UNL     1      48.202   8.660  14.763  0.00  0.00    +0.000 C 
ENDROOT
BRANCH   2   4
ATOM      4  C   UNL     1      50.150   7.111  15.443  0.00  0.00    +0.000 A 
ATOM      5  C   UNL     1      51.492   7.235  15.817  0.00  0.00    +0.000 A 
ATOM      6  C   UNL     1      52.008   6.478  16.864  0.00  0.00    +0.000 A 
ATOM      7  C   UNL     1      51.189   5.601  17.579  0.00  0.00    +0.000 A 
ATOM      8  C   UNL     1      49.828   5.455  17.271  0.00  0.00    +0.000 A 
ATOM      9  C   UNL     1      49.353   6.191  16.166  0.00  0.00    +0.000 A 
BRANCH   8  10
ATOM     10  C   UNL     1      48.880   4.593  18.132  0.00  0.00    +0.000 C 
ATOM     11  C   UNL     1      49.324   4.578  19.617  0.00  0.00    +0.000 C 
ATOM     12  C   UNL     1      47.433   5.156  18.131  0.00  0.00    +0.000 C 
BRANCH  10  13
ATOM     13  C   UNL     1      48.795   3.124  17.659  0.00  0.00    +0.000 C 
ATOM     14  C   UNL     1      50.047   2.365  17.182  0.00  0.00    +0.000 C 
ATOM     15  N   UNL     1      49.278   1.787  16.071  0.00  0.00    +0.000 NA
ATOM     16  C   UNL     1      48.162   2.713  16.313  0.00  0.00    +0.000 C 
ATOM     17  H   UNL     1      49.039   0.804  16.201  0.00  0.00    +0.000 HD
ENDBRANCH  10  13
ENDBRANCH   8  10
ENDBRANCH   2   4
BRANCH   2  18
ATOM     18  C   UNL     1      49.189   7.013  13.121  0.00  0.00    +0.000 C 
BRANCH  18  19
ATOM     19  N   UNL     1      47.897   7.297  12.509  0.00  0.00    +0.000 N 
ATOM     20  C   UNL     1      46.962   6.292  12.371  0.00  0.00    +0.000 A 
ATOM     21  C   UNL     1      46.817   5.241  13.273  0.00  0.00    +0.000 A 
ATOM     22  C   UNL     1      45.793   4.310  13.082  0.00  0.00    +0.000 A 
ATOM     23  C   UNL     1      44.920   4.452  12.009  0.00  0.00    +0.000 A 
ATOM     24  C   UNL     1      45.132   5.528  11.165  0.00  0.00    +0.000 A 
ATOM     25  N   UNL     1      46.131   6.433  11.318  0.00  0.00    +0.000 NA
ATOM     26  H   UNL     1      47.912   7.808  11.629  0.00  0.00    +0.000 HD
BRANCH  23  27
ATOM     27  C   UNL     1      43.823   3.466  11.837  0.00  0.00    +0.000 C 
ATOM     28  N   UNL     1      43.863   2.301  12.550  0.00  0.00    +0.000 N 
ATOM     29  O   UNL     1      42.893   3.687  11.069  0.00  0.00    +0.000 OA
ATOM     30  H   UNL     1      44.586   2.007  13.177  0.00  0.00    +0.000 HD
ATOM     31  H   UNL     1      43.095   1.658  12.384  0.00  0.00    +0.000 HD
ENDBRANCH  23  27
ENDBRANCH  18  19
ENDBRANCH   2  18
TORSDOF 6
ENDMDL
MODEL 4
REMARK VINA RESULT:    -6.794      3.650      6.124
REMARK INTER + INTRA:         -10.581
REMARK INTER:                  -9.459
REMARK INTRA:                  -1.122
REMARK UNBOUND:                -1.403
REMARK  Name = 
REMARK  10 active torsions:
REMARK  status: ('A' for Active; 'I' for Inactive)
REMARK    1  A    between atoms: C_1  and  C_2
REMARK    2  A    between atoms: C_2  and  C_3
REMARK    3  A    between atoms: C_2  and  C_4
REMARK    4  A    between atoms: C_2  and  C_15
REMARK    5  A    between atoms: C_4  and  N_5
REMARK    6  A    between atoms: C_9  and  C_10
REMARK    7  A    between atoms: C_19  and  C_20
REMARK    8  A    between atoms: C_20  and  C_21
REMARK    9  A    between atoms: C_20  and  C_22
REMARK   10  A    between atoms: C_20  and  C_23
REMARK                            x       y       z     vdW  Elec       q    Type
REMARK                         _______ _______ _______ _____ _____    ______ ____
ROOT
ATOM      1  C   UNL     1      49.978   7.924  13.502  0.00  0.00    +0.000 C 
ATOM      2  C   UNL     1      48.873   8.793  14.139  0.00  0.00    +0.000 C 
ATOM      3  C   UNL     1      49.245  10.276  13.899  0.00  0.00    +0.000 C 
ENDROOT
BRANCH   2   4
ATOM      4  C   UNL     1      48.755   8.437  15.640  0.00  0.00    +0.000 A 
ATOM      5  C   UNL     1      48.165   9.292  16.577  0.00  0.00    +0.000 A 
ATOM      6  C   UNL     1      48.043   8.908  17.909  0.00  0.00    +0.000 A 
ATOM      7  C   UNL     1      48.482   7.650  18.329  0.00  0.00    +0.000 A 
ATOM      8  C   UNL     1      49.056   6.737  17.431  0.00  0.00    +0.000 A 
ATOM      9  C   UNL     1      49.220   7.183  16.104  0.00  0.00    +0.000 A 
BRANCH   8  10
ATOM     10  C   UNL     1      49.425   5.298  17.849  0.00  0.00    +0.000 C 
ATOM     11  C   UNL     1      50.878   4.945  17.438  0.00  0.00    +0.000 C 
ATOM     12  C   UNL     1      49.367   5.114  19.390  0.00  0.00    +0.000 C 
BRANCH  10  13
ATOM     13  C   UNL     1      48.496   4.227  17.230  0.00  0.00    +0.000 C 
ATOM     14  C   UNL     1      46.965   4.330  17.356  0.00  0.00    +0.000 C 
ATOM     15  N   UNL     1      46.888   2.889  17.636  0.00  0.00    +0.000 NA
ATOM     16  C   UNL     1      48.345   2.809  17.819  0.00  0.00    +0.000 C 
ATOM     17  H   UNL     1      46.536   2.335  16.856  0.00  0.00    +0.000 HD
ENDBRANCH  10  13
ENDBRANCH   8  10
ENDBRANCH   2   4
BRANCH   2  18
ATOM     18  C   UNL     1      47.487   8.514  13.470  0.00  0.00    +0.000 C 
BRANCH  18  19
ATOM     19  N   UNL     1      46.973   7.184  13.772  0.00  0.00    +0.000 N 
ATOM     20  C   UNL     1      46.272   6.480  12.815  0.00  0.00    +0.000 A 
ATOM     21  C   UNL     1      46.523   6.571  11.449  0.00  0.00    +0.000 A 
ATOM     22  C   UNL     1      45.803   5.765  10.564  0.00  0.00    +0.000 A 
ATOM     23  C   UNL     1      44.860   4.868  11.055  0.00  0.00    +0.000 A 
ATOM     24  C   UNL     1      44.678   4.838  12.427  0.00  0.00    +0.000 A 
ATOM     25  N   UNL     1      45.350   5.626  13.305  0.00  0.00    +0.000 NA
ATOM     26  H   UNL     1      46.464   7.079  14.647  0.00  0.00    +0.000 HD
BRANCH  23  27
ATOM     27  C   UNL     1      44.123   4.002  10.101  0.00  0.00    +0.000 C 
ATOM     28  N   UNL     1      44.042   4.381   8.791  0.00  0.00    +0.000 N 
ATOM     29  O   UNL     1      43.593   2.961  10.476  0.00  0.00    +0.000 OA
ATOM     30  H   UNL     1      44.410   5.220   8.387  0.00  0.00    +0.000 HD
ATOM     31  H   UNL     1      43.515   3.759   8.185  0.00  0.00    +0.000 HD
ENDBRANCH  23  27
ENDBRANCH  18  19
ENDBRANCH   2  18
TORSDOF 6
ENDMDL
MODEL 5
REMARK VINA RESULT:    -6.759      3.571      5.960
REMARK INTER + INTRA:         -10.534
REMARK INTER:                  -9.255
REMARK INTRA:                  -1.279
REMARK UNBOUND:                -1.403
REMARK  Name = 
REMARK  10 active torsions:
REMARK  status: ('A' for Active; 'I' for Inactive)
REMARK    1  A    between atoms: C_1  and  C_2
REMARK    2  A    between atoms: C_2  and  C_3
REMARK    3  A    between atoms: C_2  and  C_4
REMARK    4  A    between atoms: C_2  and  C_15
REMARK    5  A    between atoms: C_4  and  N_5
REMARK    6  A    between atoms: C_9  and  C_10
REMARK    7  A    between atoms: C_19  and  C_20
REMARK    8  A    between atoms: C_20  and  C_21
REMARK    9  A    between atoms: C_20  and  C_22
REMARK   10  A    between atoms: C_20  and  C_23
REMARK                            x       y       z     vdW  Elec       q    Type
REMARK                         _______ _______ _______ _____ _____    ______ ____
ROOT
ATOM      1  C   UNL     1      49.625   7.905  12.111  0.00  0.00    +0.000 C 
ATOM      2  C   UNL     1      49.104   8.250  13.524  0.00  0.00    +0.000 C 
ATOM      3  C   UNL     1      49.023   9.793  13.630  0.00  0.00    +0.000 C 
ENDROOT
BRANCH   2   4
ATOM      4  C   UNL     1      50.050   7.624  14.576  0.00  0.00    +0.000 A 
ATOM      5  C   UNL     1      51.371   8.047  14.754  0.00  0.00    +0.000 A 
ATOM      6  C   UNL     1      52.169   7.482  15.744  0.00  0.00    +0.000 A 
ATOM      7  C   UNL     1      51.656   6.502  16.598  0.00  0.00    +0.000 A 
ATOM      8  C   UNL     1      50.329   6.057  16.487  0.00  0.00    +0.000 A 
ATOM      9  C   UNL     1      49.569   6.606  15.435  0.00  0.00    +0.000 A 
BRANCH   8  10
ATOM     10  C   UNL     1      49.708   5.074  17.502  0.00  0.00    +0.000 C 
ATOM     11  C   UNL     1      50.677   3.907  17.824  0.00  0.00    +0.000 C 
ATOM     12  C   UNL     1      49.412   5.763  18.862  0.00  0.00    +0.000 C 
BRANCH  10  13
ATOM     13  C   UNL     1      48.380   4.451  17.012  0.00  0.00    +0.000 C 
ATOM     14  C   UNL     1      47.083   4.590  17.830  0.00  0.00    +0.000 C 
ATOM     15  N   UNL     1      46.758   3.182  17.560  0.00  0.00    +0.000 NA
ATOM     16  C   UNL     1      48.109   2.932  17.037  0.00  0.00    +0.000 C 
ATOM     17  H   UNL     1      46.016   3.054  16.874  0.00  0.00    +0.000 HD
ENDBRANCH  10  13
ENDBRANCH   8  10
ENDBRANCH   2   4
BRANCH   2  18
ATOM     18  C   UNL     1      47.674   7.661  13.752  0.00  0.00    +0.000 C 
BRANCH  18  19
ATOM     19  N   UNL     1      46.898   7.572  12.521  0.00  0.00    +0.000 N 
ATOM     20  C   UNL     1      46.232   6.406  12.207  0.00  0.00    +0.000 A 
ATOM     21  C   UNL     1      45.678   5.551  13.156  0.00  0.00    +0.000 A 
ATOM     22  C   UNL     1      44.962   4.429  12.733  0.00  0.00    +0.000 A 
ATOM     23  C   UNL     1      44.793   4.187  11.374  0.00  0.00    +0.000 A 
ATOM     24  C   UNL     1      45.371   5.090  10.500  0.00  0.00    +0.000 A 
ATOM     25  N   UNL     1      46.088   6.175  10.885  0.00  0.00    +0.000 NA
ATOM     26  H   UNL     1      47.357   7.888  11.669  0.00  0.00    +0.000 HD
BRANCH  23  27
ATOM     27  C   UNL     1      44.008   3.002  10.946  0.00  0.00    +0.000 C 
ATOM     28  N   UNL     1      44.479   2.232   9.921  0.00  0.00    +0.000 N 
ATOM     29  O   UNL     1      42.952   2.712  11.500  0.00  0.00    +0.000 OA
ATOM     30  H   UNL     1      45.308   2.394   9.382  0.00  0.00    +0.000 HD
ATOM     31  H   UNL     1      43.896   1.442   9.660  0.00  0.00    +0.000 HD
ENDBRANCH  23  27
ENDBRANCH  18  19
ENDBRANCH   2  18
TORSDOF 6
ENDMDL
MODEL 6
REMARK VINA RESULT:    -6.489      3.654      7.920
REMARK INTER + INTRA:         -10.168
REMARK INTER:                  -8.685
REMARK INTRA:                  -1.484
REMARK UNBOUND:                -1.403
REMARK  Name = 
REMARK  10 active torsions:
REMARK  status: ('A' for Active; 'I' for Inactive)
REMARK    1  A    between atoms: C_1  and  C_2
REMARK    2  A    between atoms: C_2  and  C_3
REMARK    3  A    between atoms: C_2  and  C_4
REMARK    4  A    between atoms: C_2  and  C_15
REMARK    5  A    between atoms: C_4  and  N_5
REMARK    6  A    between atoms: C_9  and  C_10
REMARK    7  A    between atoms: C_19  and  C_20
REMARK    8  A    between atoms: C_20  and  C_21
REMARK    9  A    between atoms: C_20  and  C_22
REMARK   10  A    between atoms: C_20  and  C_23
REMARK                            x       y       z     vdW  Elec       q    Type
REMARK                         _______ _______ _______ _____ _____    ______ ____
ROOT
ATOM      1  C   UNL     1      49.349   9.882  11.433  0.00  0.00    +0.000 C 
ATOM      2  C   UNL     1      49.096   8.618  12.284  0.00  0.00    +0.000 C 
ATOM      3  C   UNL     1      49.909   7.460  11.656  0.00  0.00    +0.000 C 
ENDROOT
BRANCH   2   4
ATOM      4  C   UNL     1      47.576   8.334  12.324  0.00  0.00    +0.000 A 
ATOM      5  C   UNL     1      46.614   9.336  12.155  0.00  0.00    +0.000 A 
ATOM      6  C   UNL     1      45.258   9.023  12.155  0.00  0.00    +0.000 A 
ATOM      7  C   UNL     1      44.833   7.699  12.294  0.00  0.00    +0.000 A 
ATOM      8  C   UNL     1      45.751   6.647  12.437  0.00  0.00    +0.000 A 
ATOM      9  C   UNL     1      47.113   7.007  12.495  0.00  0.00    +0.000 A 
BRANCH   8  10
ATOM     10  C   UNL     1      45.307   5.169  12.459  0.00  0.00    +0.000 C 
ATOM     11  C   UNL     1      46.235   4.314  13.360  0.00  0.00    +0.000 C 
ATOM     12  C   UNL     1      43.881   5.007  13.051  0.00  0.00    +0.000 C 
BRANCH  10  13
ATOM     13  C   UNL     1      45.293   4.517  11.058  0.00  0.00    +0.000 C 
ATOM     14  C   UNL     1      45.558   5.347   9.788  0.00  0.00    +0.000 C 
ATOM     15  N   UNL     1      44.466   4.646   9.098  0.00  0.00    +0.000 NA
ATOM     16  C   UNL     1      43.994   4.059  10.361  0.00  0.00    +0.000 C 
ATOM     17  H   UNL     1      44.783   3.961   8.413  0.00  0.00    +0.000 HD
ENDBRANCH  10  13
ENDBRANCH   8  10
ENDBRANCH   2   4
BRANCH   2  18
ATOM     18  C   UNL     1      49.584   8.828  13.755  0.00  0.00    +0.000 C 
BRANCH  18  19
ATOM     19  N   UNL     1      50.471   7.765  14.211  0.00  0.00    +0.000 N 
ATOM     20  C   UNL     1      50.109   6.975  15.282  0.00  0.00    +0.000 A 
ATOM     21  C   UNL     1      48.794   6.628  15.577  0.00  0.00    +0.000 A 
ATOM     22  C   UNL     1      48.535   5.765  16.646  0.00  0.00    +0.000 A 
ATOM     23  C   UNL     1      49.591   5.247  17.388  0.00  0.00    +0.000 A 
ATOM     24  C   UNL     1      50.867   5.640  17.022  0.00  0.00    +0.000 A 
ATOM     25  N   UNL     1      51.141   6.492  16.003  0.00  0.00    +0.000 NA
ATOM     26  H   UNL     1      51.449   8.013  14.345  0.00  0.00    +0.000 HD
BRANCH  23  27
ATOM     27  C   UNL     1      49.297   4.313  18.504  0.00  0.00    +0.000 C 
ATOM     28  N   UNL     1      50.132   4.290  19.584  0.00  0.00    +0.000 N 
ATOM     29  O   UNL     1      48.321   3.571  18.463  0.00  0.00    +0.000 OA
ATOM     30  H   UNL     1      50.969   4.827  19.706  0.00  0.00    +0.000 HD
ATOM     31  H   UNL     1      49.891   3.623  20.312  0.00  0.00    +0.000 HD
ENDBRANCH  23  27
ENDBRANCH  18  19
ENDBRANCH   2  18
TORSDOF 6
ENDMDL
MODEL 7
REMARK VINA RESULT:    -6.324      4.308      6.798
REMARK INTER + INTRA:          -9.946
REMARK INTER:                  -8.481
REMARK INTRA:                  -1.465
REMARK UNBOUND:                -1.403
REMARK  Name = 
REMARK  10 active torsions:
REMARK  status: ('A' for Active; 'I' for Inactive)
REMARK    1  A    between atoms: C_1  and  C_2
REMARK    2  A    between atoms: C_2  and  C_3
REMARK    3  A    between atoms: C_2  and  C_4
REMARK    4  A    between atoms: C_2  and  C_15
REMARK    5  A    between atoms: C_4  and  N_5
REMARK    6  A    between atoms: C_9  and  C_10
REMARK    7  A    between atoms: C_19  and  C_20
REMARK    8  A    between atoms: C_20  and  C_21
REMARK    9  A    between atoms: C_20  and  C_22
REMARK   10  A    between atoms: C_20  and  C_23
REMARK                            x       y       z     vdW  Elec       q    Type
REMARK                         _______ _______ _______ _____ _____    ______ ____
ROOT
ATOM      1  C   UNL     1      45.464   4.855  10.990  0.00  0.00    +0.000 C 
ATOM      2  C   UNL     1      45.669   5.397  12.422  0.00  0.00    +0.000 C 
ATOM      3  C   UNL     1      44.338   5.210  13.189  0.00  0.00    +0.000 C 
ENDROOT
BRANCH   2   4
ATOM      4  C   UNL     1      46.116   6.876  12.341  0.00  0.00    +0.000 A 
ATOM      5  C   UNL     1      45.227   7.945  12.500  0.00  0.00    +0.000 A 
ATOM      6  C   UNL     1      45.684   9.258  12.463  0.00  0.00    +0.000 A 
ATOM      7  C   UNL     1      47.044   9.533  12.295  0.00  0.00    +0.000 A 
ATOM      8  C   UNL     1      47.988   8.504  12.159  0.00  0.00    +0.000 A 
ATOM      9  C   UNL     1      47.482   7.188  12.139  0.00  0.00    +0.000 A 
BRANCH   8  10
ATOM     10  C   UNL     1      49.505   8.784  12.105  0.00  0.00    +0.000 C 
ATOM     11  C   UNL     1      50.262   7.654  11.360  0.00  0.00    +0.000 C 
ATOM     12  C   UNL     1      49.820  10.088  11.323  0.00  0.00    +0.000 C 
BRANCH  10  13
ATOM     13  C   UNL     1      50.147   8.928  13.504  0.00  0.00    +0.000 C 
ATOM     14  C   UNL     1      51.656   9.190  13.666  0.00  0.00    +0.000 C 
ATOM     15  N   UNL     1      51.709   8.223  14.771  0.00  0.00    +0.000 NA
ATOM     16  C   UNL     1      50.360   7.732  14.454  0.00  0.00    +0.000 C 
ATOM     17  H   UNL     1      51.790   8.652  15.692  0.00  0.00    +0.000 HD
ENDBRANCH  10  13
ENDBRANCH   8  10
ENDBRANCH   2   4
BRANCH   2  18
ATOM     18  C   UNL     1      46.789   4.598  13.166  0.00  0.00    +0.000 C 
BRANCH  18  19
ATOM     19  N   UNL     1      46.338   4.049  14.438  0.00  0.00    +0.000 N 
ATOM     20  C   UNL     1      47.114   4.199  15.569  0.00  0.00    +0.000 A 
ATOM     21  C   UNL     1      47.922   5.306  15.812  0.00  0.00    +0.000 A 
ATOM     22  C   UNL     1      48.618   5.396  17.020  0.00  0.00    +0.000 A 
ATOM     23  C   UNL     1      48.482   4.393  17.974  0.00  0.00    +0.000 A 
ATOM     24  C   UNL     1      47.653   3.331  17.653  0.00  0.00    +0.000 A 
ATOM     25  N   UNL     1      46.984   3.211  16.479  0.00  0.00    +0.000 NA
ATOM     26  H   UNL     1      46.013   3.085  14.430  0.00  0.00    +0.000 HD
BRANCH  23  27
ATOM     27  C   UNL     1      49.210   4.519  19.261  0.00  0.00    +0.000 C 
ATOM     28  N   UNL     1      48.668   3.963  20.384  0.00  0.00    +0.000 N 
ATOM     29  O   UNL     1      50.283   5.111  19.322  0.00  0.00    +0.000 OA
ATOM     30  H   UNL     1      47.789   3.487  20.453  0.00  0.00    +0.000 HD
ATOM     31  H   UNL     1      49.201   4.090  21.240  0.00  0.00    +0.000 HD
ENDBRANCH  23  27
ENDBRANCH  18  19
ENDBRANCH   2  18
TORSDOF 6
ENDMDL
MODEL 8
REMARK VINA RESULT:    -6.253      4.500      8.495
REMARK INTER + INTRA:          -9.850
REMARK INTER:                  -8.738
REMARK INTRA:                  -1.111
REMARK UNBOUND:                -1.403
REMARK  Name = 
REMARK  10 active torsions:
REMARK  status: ('A' for Active; 'I' for Inactive)
REMARK    1  A    between atoms: C_1  and  C_2
REMARK    2  A    between atoms: C_2  and  C_3
REMARK    3  A    between atoms: C_2  and  C_4
REMARK    4  A    between atoms: C_2  and  C_15
REMARK    5  A    between atoms: C_4  and  N_5
REMARK    6  A    between atoms: C_9  and  C_10
REMARK    7  A    between atoms: C_19  and  C_20
REMARK    8  A    between atoms: C_20  and  C_21
REMARK    9  A    between atoms: C_20  and  C_22
REMARK   10  A    between atoms: C_20  and  C_23
REMARK                            x       y       z     vdW  Elec       q    Type
REMARK                         _______ _______ _______ _____ _____    ______ ____
ROOT
ATOM      1  C   UNL     1      47.182   8.616  13.698  0.00  0.00    +0.000 C 
ATOM      2  C   UNL     1      48.093   7.502  13.137  0.00  0.00    +0.000 C 
ATOM      3  C   UNL     1      48.600   7.966  11.749  0.00  0.00    +0.000 C 
ENDROOT
BRANCH   2   4
ATOM      4  C   UNL     1      47.292   6.180  13.074  0.00  0.00    +0.000 A 
ATOM      5  C   UNL     1      47.195   5.301  14.157  0.00  0.00    +0.000 A 
ATOM      6  C   UNL     1      46.425   4.146  14.066  0.00  0.00    +0.000 A 
ATOM      7  C   UNL     1      45.711   3.858  12.900  0.00  0.00    +0.000 A 
ATOM      8  C   UNL     1      45.745   4.715  11.790  0.00  0.00    +0.000 A 
ATOM      9  C   UNL     1      46.583   5.844  11.895  0.00  0.00    +0.000 A 
BRANCH   8  10
ATOM     10  C   UNL     1      44.861   4.481  10.546  0.00  0.00    +0.000 C 
ATOM     11  C   UNL     1      45.507   5.087   9.273  0.00  0.00    +0.000 C 
ATOM     12  C   UNL     1      44.680   2.969  10.247  0.00  0.00    +0.000 C 
BRANCH  10  13
ATOM     13  C   UNL     1      43.446   5.089  10.681  0.00  0.00    +0.000 C 
ATOM     14  C   UNL     1      43.245   6.563  11.080  0.00  0.00    +0.000 C 
ATOM     15  N   UNL     1      42.146   6.175  11.975  0.00  0.00    +0.000 NA
ATOM     16  C   UNL     1      42.499   4.753  11.852  0.00  0.00    +0.000 C 
ATOM     17  H   UNL     1      41.220   6.406  11.617  0.00  0.00    +0.000 HD
ENDBRANCH  10  13
ENDBRANCH   8  10
ENDBRANCH   2   4
BRANCH   2  18
ATOM     18  C   UNL     1      49.329   7.270  14.066  0.00  0.00    +0.000 C 
BRANCH  18  19
ATOM     19  N   UNL     1      49.205   7.951  15.349  0.00  0.00    +0.000 N 
ATOM     20  C   UNL     1      48.998   7.222  16.501  0.00  0.00    +0.000 A 
ATOM     21  C   UNL     1      49.511   5.945  16.711  0.00  0.00    +0.000 A 
ATOM     22  C   UNL     1      49.302   5.316  17.941  0.00  0.00    +0.000 A 
ATOM     23  C   UNL     1      48.604   5.976  18.947  0.00  0.00    +0.000 A 
ATOM     24  C   UNL     1      48.133   7.245  18.655  0.00  0.00    +0.000 A 
ATOM     25  N   UNL     1      48.306   7.868  17.462  0.00  0.00    +0.000 NA
ATOM     26  H   UNL     1      48.570   8.746  15.384  0.00  0.00    +0.000 HD
BRANCH  23  27
ATOM     27  C   UNL     1      48.413   5.300  20.255  0.00  0.00    +0.000 C 
ATOM     28  N   UNL     1      48.633   3.955  20.343  0.00  0.00    +0.000 N 
ATOM     29  O   UNL     1      48.065   5.935  21.245  0.00  0.00    +0.000 OA
ATOM     30  H   UNL     1      48.888   3.340  19.595  0.00  0.00    +0.000 HD
ATOM     31  H   UNL     1      48.475   3.543  21.258  0.00  0.00    +0.000 HD
ENDBRANCH  23  27
ENDBRANCH  18  19
ENDBRANCH   2  18
TORSDOF 6
ENDMDL
MODEL 9
REMARK VINA RESULT:    -5.705      4.212      8.271
REMARK INTER + INTRA:          -9.110
REMARK INTER:                  -8.254
REMARK INTRA:                  -0.856
REMARK UNBOUND:                -1.403
REMARK  Name = 
REMARK  10 active torsions:
REMARK  status: ('A' for Active; 'I' for Inactive)
REMARK    1  A    between atoms: C_1  and  C_2
REMARK    2  A    between atoms: C_2  and  C_3
REMARK    3  A    between atoms: C_2  and  C_4
REMARK    4  A    between atoms: C_2  and  C_15
REMARK    5  A    between atoms: C_4  and  N_5
REMARK    6  A    between atoms: C_9  and  C_10
REMARK    7  A    between atoms: C_19  and  C_20
REMARK    8  A    between atoms: C_20  and  C_21
REMARK    9  A    between atoms: C_20  and  C_22
REMARK   10  A    between atoms: C_20  and  C_23
REMARK                            x       y       z     vdW  Elec       q    Type
REMARK                         _______ _______ _______ _____ _____    ______ ____
ROOT
ATOM      1  C   UNL     1      47.146   8.309  11.899  0.00  0.00    +0.000 C 
ATOM      2  C   UNL     1      47.852   7.355  12.887  0.00  0.00    +0.000 C 
ATOM      3  C   UNL     1      49.351   7.306  12.501  0.00  0.00    +0.000 C 
ENDROOT
BRANCH   2   4
ATOM      4  C   UNL     1      47.169   5.968  12.822  0.00  0.00    +0.000 A 
ATOM      5  C   UNL     1      47.525   4.908  13.663  0.00  0.00    +0.000 A 
ATOM      6  C   UNL     1      46.850   3.694  13.596  0.00  0.00    +0.000 A 
ATOM      7  C   UNL     1      45.785   3.519  12.709  0.00  0.00    +0.000 A 
ATOM      8  C   UNL     1      45.361   4.554  11.861  0.00  0.00    +0.000 A 
ATOM      9  C   UNL     1      46.107   5.750  11.912  0.00  0.00    +0.000 A 
BRANCH   8  10
ATOM     10  C   UNL     1      44.106   4.424  10.972  0.00  0.00    +0.000 C 
ATOM     11  C   UNL     1      43.229   3.222  11.407  0.00  0.00    +0.000 C 
ATOM     12  C   UNL     1      43.192   5.674  11.083  0.00  0.00    +0.000 C 
BRANCH  10  13
ATOM     13  C   UNL     1      44.439   4.237   9.474  0.00  0.00    +0.000 C 
ATOM     14  C   UNL     1      44.736   2.843   8.891  0.00  0.00    +0.000 C 
ATOM     15  N   UNL     1      45.843   3.404   8.105  0.00  0.00    +0.000 NA
ATOM     16  C   UNL     1      45.784   4.668   8.855  0.00  0.00    +0.000 C 
ATOM     17  H   UNL     1      45.638   3.501   7.111  0.00  0.00    +0.000 HD
ENDBRANCH  10  13
ENDBRANCH   8  10
ENDBRANCH   2   4
BRANCH   2  18
ATOM     18  C   UNL     1      47.734   7.881  14.354  0.00  0.00    +0.000 C 
BRANCH  18  19
ATOM     19  N   UNL     1      49.018   7.930  15.041  0.00  0.00    +0.000 N 
ATOM     20  C   UNL     1      49.219   7.187  16.186  0.00  0.00    +0.000 A 
ATOM     21  C   UNL     1      48.626   5.949  16.419  0.00  0.00    +0.000 A 
ATOM     22  C   UNL     1      48.946   5.243  17.580  0.00  0.00    +0.000 A 
ATOM     23  C   UNL     1      49.866   5.770  18.480  0.00  0.00    +0.000 A 
ATOM     24  C   UNL     1      50.412   7.003  18.168  0.00  0.00    +0.000 A 
ATOM     25  N   UNL     1      50.101   7.718  17.057  0.00  0.00    +0.000 NA
ATOM     26  H   UNL     1      49.406   8.854  15.218  0.00  0.00    +0.000 HD
BRANCH  23  27
ATOM     27  C   UNL     1      50.212   4.993  19.696  0.00  0.00    +0.000 C 
ATOM     28  N   UNL     1      49.230   4.290  20.334  0.00  0.00    +0.000 N 
ATOM     29  O   UNL     1      51.361   4.977  20.127  0.00  0.00    +0.000 OA
ATOM     30  H   UNL     1      48.260   4.258  20.087  0.00  0.00    +0.000 HD
ATOM     31  H   UNL     1      49.520   3.787  21.168  0.00  0.00    +0.000 HD
ENDBRANCH  23  27
ENDBRANCH  18  19
ENDBRANCH   2  18
TORSDOF 6
ENDMDL
