MODEL 1
REMARK VINA RESULT:    -8.366      0.000      0.000
REMARK INTER + INTRA:         -13.241
REMARK INTER:                 -12.034
REMARK INTRA:                  -1.207
REMARK UNBOUND:                -1.207
REMARK  Name = 
REMARK  9 active torsions:
REMARK  status: ('A' for Active; 'I' for Inactive)
REMARK    1  A    between atoms: C_1  and  C_2
REMARK    2  A    between atoms: C_5  and  C_6
REMARK    3  A    between atoms: C_6  and  N_7
REMARK    4  A    between atoms: N_7  and  C_8
REMARK    5  A    between atoms: C_8  and  C_9
REMARK    6  A    between atoms: C_12  and  C_13
REMARK    7  A    between atoms: C_13  and  N_14
REMARK    8  A    between atoms: C_15  and  C_17
REMARK    9  A    between atoms: C_24  and  O_25
REMARK                            x       y       z     vdW  Elec       q    Type
REMARK                         _______ _______ _______ _____ _____    ______ ____
ROOT
ATOM      1  C   UNL     1      44.615   5.600  11.892  0.00  0.00    +0.000 A 
ATOM      2  C   UNL     1      44.959   4.889  13.050  0.00  0.00    +0.000 A 
ATOM      3  C   UNL     1      46.138   5.178  13.745  0.00  0.00    +0.000 A 
ATOM      4  C   UNL     1      46.991   6.207  13.310  0.00  0.00    +0.000 A 
ATOM      5  C   UNL     1      46.636   6.923  12.159  0.00  0.00    +0.000 A 
ATOM      6  C   UNL     1      45.461   6.626  11.458  0.00  0.00    +0.000 A 
ENDROOT
BRANCH   1   7
ATOM      7  C   UNL     1      43.340   5.283  11.142  0.00  0.00    +0.000 C 
BRANCH   7   8
ATOM      8  N   UNL     1      43.576   4.671   9.833  0.00  0.00    +0.000 NA
ATOM      9  H   UNL     1      42.701   4.656   9.312  0.00  0.00    +0.000 HD
BRANCH   8  10
ATOM     10  C   UNL     1      44.074   3.297   9.927  0.00  0.00    +0.000 C 
BRANCH  10  15
ATOM     11  C   UNL     1      48.055   2.165   5.811  0.00  0.00    +0.000 C 
ATOM     12  C   UNL     1      47.047   2.474   6.877  0.00  0.00    +0.000 A 
ATOM     13  C   UNL     1      46.557   3.773   7.047  0.00  0.00    +0.000 A 
ATOM     14  C   UNL     1      45.608   4.049   8.038  0.00  0.00    +0.000 A 
ATOM     15  C   UNL     1      45.119   3.027   8.867  0.00  0.00    +0.000 A 
ATOM     16  C   UNL     1      45.630   1.733   8.703  0.00  0.00    +0.000 A 
ATOM     17  C   UNL     1      46.583   1.460   7.721  0.00  0.00    +0.000 A 
ENDBRANCH  10  15
ENDBRANCH   8  10
ENDBRANCH   7   8
ENDBRANCH   1   7
BRANCH   4  18
ATOM     18  C   UNL     1      48.254   6.566  14.065  0.00  0.00    +0.000 C 
BRANCH  18  19
ATOM     19  N   UNL     1      48.159   6.298  15.474  0.00  0.00    +0.000 N 
ATOM     20  C   UNL     1      49.251   6.234  16.294  0.00  0.00    +0.000 C 
ATOM     21  O   UNL     1      50.412   6.332  15.881  0.00  0.00    +0.000 OA
ATOM     22  H   UNL     1      47.268   6.515  15.902  0.00  0.00    +0.000 HD
BRANCH  20  23
ATOM     23  C   UNL     1      48.953   6.023  17.712  0.00  0.00    +0.000 A 
ATOM     24  C   UNL     1      49.244   4.830  18.358  0.00  0.00    +0.000 A 
ATOM     25  S   UNL     1      48.802   4.843  20.011  0.00  0.00    +0.000 S 
ATOM     26  C   UNL     1      48.225   6.437  19.899  0.00  0.00    +0.000 A 
ATOM     27  N   UNL     1      47.720   7.068  20.976  0.00  0.00    +0.000 NA
ATOM     28  C   UNL     1      47.300   8.308  20.695  0.00  0.00    +0.000 A 
ATOM     29  N   UNL     1      47.322   8.937  19.516  0.00  0.00    +0.000 NA
ATOM     30  C   UNL     1      47.833   8.258  18.497  0.00  0.00    +0.000 A 
ATOM     31  C   UNL     1      48.330   6.962  18.622  0.00  0.00    +0.000 A 
BRANCH  30  32
ATOM     32  O   UNL     1      47.793   8.932  17.314  0.00  0.00    +0.000 OA
ATOM     33  H   UNL     1      48.293   8.337  16.721  0.00  0.00    +0.000 HD
ENDBRANCH  30  32
ENDBRANCH  20  23
ENDBRANCH  18  19
ENDBRANCH   4  18
TORSDOF 8
ENDMDL
MODEL 2
REMARK VINA RESULT:    -8.339      1.270      2.103
REMARK INTER + INTRA:         -13.202
REMARK INTER:                 -11.973
REMARK INTRA:                  -1.229
REMARK UNBOUND:                -1.207
REMARK  Name = 
REMARK  9 active torsions:
REMARK  status: ('A' for Active; 'I' for Inactive)
REMARK    1  A    between atoms: C_1  and  C_2
REMARK    2  A    between atoms: C_5  and  C_6
REMARK    3  A    between atoms: C_6  and  N_7
REMARK    4  A    between atoms: N_7  and  C_8
REMARK    5  A    between atoms: C_8  and  C_9
REMARK    6  A    between atoms: C_12  and  C_13
REMARK    7  A    between atoms: C_13  and  N_14
REMARK    8  A    between atoms: C_15  and  C_17
REMARK    9  A    between atoms: C_24  and  O_25
REMARK                            x       y       z     vdW  Elec       q    Type
REMARK                         _______ _______ _______ _____ _____    ______ ____
ROOT
ATOM      1  C   UNL     1      44.639   5.624  11.719  0.00  0.00    +0.000 A 
ATOM      2  C   UNL     1      44.893   5.046  12.971  0.00  0.00    +0.000 A 
ATOM      3  C   UNL     1      46.086   5.310  13.653  0.00  0.00    +0.000 A 
ATOM      4  C   UNL     1      47.045   6.181  13.108  0.00  0.00    +0.000 A 
ATOM      5  C   UNL     1      46.781   6.765  11.862  0.00  0.00    +0.000 A 
ATOM      6  C   UNL     1      45.591   6.493  11.175  0.00  0.00    +0.000 A 
ENDROOT
BRANCH   1   7
ATOM      7  C   UNL     1      43.349   5.336  10.984  0.00  0.00    +0.000 C 
BRANCH   7   8
ATOM      8  N   UNL     1      43.552   4.636   9.714  0.00  0.00    +0.000 NA
ATOM      9  H   UNL     1      42.660   4.569   9.227  0.00  0.00    +0.000 HD
BRANCH   8  10
ATOM     10  C   UNL     1      44.079   3.280   9.888  0.00  0.00    +0.000 C 
BRANCH  10  15
ATOM     11  C   UNL     1      48.115   2.147   5.827  0.00  0.00    +0.000 C 
ATOM     12  C   UNL     1      47.065   2.419   6.862  0.00  0.00    +0.000 A 
ATOM     13  C   UNL     1      46.621   1.405   7.717  0.00  0.00    +0.000 A 
ATOM     14  C   UNL     1      45.647   1.672   8.687  0.00  0.00    +0.000 A 
ATOM     15  C   UNL     1      45.112   2.962   8.830  0.00  0.00    +0.000 A 
ATOM     16  C   UNL     1      45.548   3.966   7.956  0.00  0.00    +0.000 A 
ATOM     17  C   UNL     1      46.512   3.698   6.983  0.00  0.00    +0.000 A 
ENDBRANCH  10  15
ENDBRANCH   8  10
ENDBRANCH   7   8
ENDBRANCH   1   7
BRANCH   4  18
ATOM     18  C   UNL     1      48.327   6.513  13.843  0.00  0.00    +0.000 C 
BRANCH  18  19
ATOM     19  N   UNL     1      48.120   6.778  15.240  0.00  0.00    +0.000 N 
ATOM     20  C   UNL     1      49.090   6.592  16.184  0.00  0.00    +0.000 C 
ATOM     21  O   UNL     1      50.200   6.114  15.926  0.00  0.00    +0.000 OA
ATOM     22  H   UNL     1      47.381   7.436  15.455  0.00  0.00    +0.000 HD
BRANCH  20  23
ATOM     23  C   UNL     1      48.717   6.985  17.545  0.00  0.00    +0.000 A 
ATOM     24  C   UNL     1      48.340   8.282  17.861  0.00  0.00    +0.000 A 
ATOM     25  S   UNL     1      47.949   8.478  19.515  0.00  0.00    +0.000 S 
ATOM     26  C   UNL     1      48.265   6.840  19.838  0.00  0.00    +0.000 A 
ATOM     27  N   UNL     1      48.105   6.335  21.077  0.00  0.00    +0.000 NA
ATOM     28  C   UNL     1      48.417   5.035  21.145  0.00  0.00    +0.000 A 
ATOM     29  N   UNL     1      48.856   4.240  20.163  0.00  0.00    +0.000 NA
ATOM     30  C   UNL     1      48.990   4.801  18.969  0.00  0.00    +0.000 A 
ATOM     31  C   UNL     1      48.692   6.141  18.722  0.00  0.00    +0.000 A 
BRANCH  30  32
ATOM     32  O   UNL     1      49.477   3.958  18.017  0.00  0.00    +0.000 OA
ATOM     33  H   UNL     1      49.331   4.467  17.195  0.00  0.00    +0.000 HD
ENDBRANCH  30  32
ENDBRANCH  20  23
ENDBRANCH  18  19
ENDBRANCH   4  18
TORSDOF 8
ENDMDL
MODEL 3
REMARK VINA RESULT:    -8.171      1.572      2.476
REMARK INTER + INTRA:         -12.960
REMARK INTER:                 -11.706
REMARK INTRA:                  -1.254
REMARK UNBOUND:                -1.207
REMARK  Name = 
REMARK  9 active torsions:
REMARK  status: ('A' for Active; 'I' for Inactive)
REMARK    1  A    between atoms: C_1  and  C_2
REMARK    2  A    between atoms: C_5  and  C_6
REMARK    3  A    between atoms: C_6  and  N_7
REMARK    4  A    between atoms: N_7  and  C_8
REMARK    5  A    between atoms: C_8  and  C_9
REMARK    6  A    between atoms: C_12  and  C_13
REMARK    7  A    between atoms: C_13  and  N_14
REMARK    8  A    between atoms: C_15  and  C_17
REMARK    9  A    between atoms: C_24  and  O_25
REMARK                            x       y       z     vdW  Elec       q    Type
REMARK                         _______ _______ _______ _____ _____    ______ ____
ROOT
ATOM      1  C   UNL     1      44.578   4.910  11.857  0.00  0.00    +0.000 A 
ATOM      2  C   UNL     1      45.156   5.981  11.161  0.00  0.00    +0.000 A 
ATOM      3  C   UNL     1      46.273   6.649  11.675  0.00  0.00    +0.000 A 
ATOM      4  C   UNL     1      46.855   6.244  12.888  0.00  0.00    +0.000 A 
ATOM      5  C   UNL     1      46.280   5.165  13.574  0.00  0.00    +0.000 A 
ATOM      6  C   UNL     1      45.156   4.503  13.065  0.00  0.00    +0.000 A 
ENDROOT
BRANCH   1   7
ATOM      7  C   UNL     1      43.370   4.190  11.300  0.00  0.00    +0.000 C 
BRANCH   7   8
ATOM      8  N   UNL     1      43.572   3.686   9.941  0.00  0.00    +0.000 NA
ATOM      9  H   UNL     1      42.664   3.524   9.509  0.00  0.00    +0.000 HD
BRANCH   8  10
ATOM     10  C   UNL     1      44.325   2.430   9.905  0.00  0.00    +0.000 C 
BRANCH  10  15
ATOM     11  C   UNL     1      48.006   2.412   5.376  0.00  0.00    +0.000 C 
ATOM     12  C   UNL     1      47.049   2.396   6.530  0.00  0.00    +0.000 A 
ATOM     13  C   UNL     1      46.876   1.244   7.303  0.00  0.00    +0.000 A 
ATOM     14  C   UNL     1      45.989   1.243   8.385  0.00  0.00    +0.000 A 
ATOM     15  C   UNL     1      45.270   2.400   8.724  0.00  0.00    +0.000 A 
ATOM     16  C   UNL     1      45.434   3.543   7.932  0.00  0.00    +0.000 A 
ATOM     17  C   UNL     1      46.312   3.541   6.848  0.00  0.00    +0.000 A 
ENDBRANCH  10  15
ENDBRANCH   8  10
ENDBRANCH   7   8
ENDBRANCH   1   7
BRANCH   4  18
ATOM     18  C   UNL     1      48.086   6.926  13.447  0.00  0.00    +0.000 C 
BRANCH  18  19
ATOM     19  N   UNL     1      48.185   6.821  14.877  0.00  0.00    +0.000 N 
ATOM     20  C   UNL     1      49.371   6.918  15.550  0.00  0.00    +0.000 C 
ATOM     21  O   UNL     1      50.462   7.036  14.981  0.00  0.00    +0.000 OA
ATOM     22  H   UNL     1      47.339   7.034  15.391  0.00  0.00    +0.000 HD
BRANCH  20  23
ATOM     23  C   UNL     1      49.265   6.858  17.009  0.00  0.00    +0.000 A 
ATOM     24  C   UNL     1      49.446   7.977  17.809  0.00  0.00    +0.000 A 
ATOM     25  S   UNL     1      49.263   7.640  19.476  0.00  0.00    +0.000 S 
ATOM     26  C   UNL     1      48.930   6.003  19.164  0.00  0.00    +0.000 A 
ATOM     27  N   UNL     1      48.661   5.148  20.168  0.00  0.00    +0.000 NA
ATOM     28  C   UNL     1      48.441   3.900  19.734  0.00  0.00    +0.000 A 
ATOM     29  N   UNL     1      48.474   3.448  18.476  0.00  0.00    +0.000 NA
ATOM     30  C   UNL     1      48.745   4.344  17.537  0.00  0.00    +0.000 A 
ATOM     31  C   UNL     1      48.982   5.689  17.817  0.00  0.00    +0.000 A 
BRANCH  30  32
ATOM     32  O   UNL     1      48.805   3.821  16.281  0.00  0.00    +0.000 OA
ATOM     33  H   UNL     1      49.232   4.542  15.777  0.00  0.00    +0.000 HD
ENDBRANCH  30  32
ENDBRANCH  20  23
ENDBRANCH  18  19
ENDBRANCH   4  18
TORSDOF 8
ENDMDL
MODEL 4
REMARK VINA RESULT:    -7.892      2.761      4.067
REMARK INTER + INTRA:         -12.558
REMARK INTER:                 -11.620
REMARK INTRA:                  -0.938
REMARK UNBOUND:                -1.207
REMARK  Name = 
REMARK  9 active torsions:
REMARK  status: ('A' for Active; 'I' for Inactive)
REMARK    1  A    between atoms: C_1  and  C_2
REMARK    2  A    between atoms: C_5  and  C_6
REMARK    3  A    between atoms: C_6  and  N_7
REMARK    4  A    between atoms: N_7  and  C_8
REMARK    5  A    between atoms: C_8  and  C_9
REMARK    6  A    between atoms: C_12  and  C_13
REMARK    7  A    between atoms: C_13  and  N_14
REMARK    8  A    between atoms: C_15  and  C_17
REMARK    9  A    between atoms: C_24  and  O_25
REMARK                            x       y       z     vdW  Elec       q    Type
REMARK                         _______ _______ _______ _____ _____    ______ ____
ROOT
ATOM      1  C   UNL     1      46.378   4.626  13.193  0.00  0.00    +0.000 A 
ATOM      2  C   UNL     1      46.568   4.265  14.534  0.00  0.00    +0.000 A 
ATOM      3  C   UNL     1      47.433   4.995  15.356  0.00  0.00    +0.000 A 
ATOM      4  C   UNL     1      48.113   6.120  14.860  0.00  0.00    +0.000 A 
ATOM      5  C   UNL     1      47.910   6.483  13.522  0.00  0.00    +0.000 A 
ATOM      6  C   UNL     1      47.051   5.747  12.697  0.00  0.00    +0.000 A 
ENDROOT
BRANCH   1   7
ATOM      7  C   UNL     1      45.442   3.834  12.306  0.00  0.00    +0.000 C 
BRANCH   7   8
ATOM      8  N   UNL     1      44.751   4.658  11.313  0.00  0.00    +0.000 NA
ATOM      9  H   UNL     1      44.065   5.243  11.788  0.00  0.00    +0.000 HD
BRANCH   8  10
ATOM     10  C   UNL     1      44.050   3.865  10.301  0.00  0.00    +0.000 C 
BRANCH  10  15
ATOM     11  C   UNL     1      47.806   2.117   6.189  0.00  0.00    +0.000 C 
ATOM     12  C   UNL     1      46.824   2.550   7.237  0.00  0.00    +0.000 A 
ATOM     13  C   UNL     1      46.201   1.613   8.067  0.00  0.00    +0.000 A 
ATOM     14  C   UNL     1      45.294   2.028   9.049  0.00  0.00    +0.000 A 
ATOM     15  C   UNL     1      45.006   3.391   9.229  0.00  0.00    +0.000 A 
ATOM     16  C   UNL     1      45.619   4.321   8.380  0.00  0.00    +0.000 A 
ATOM     17  C   UNL     1      46.517   3.905   7.395  0.00  0.00    +0.000 A 
ENDBRANCH  10  15
ENDBRANCH   8  10
ENDBRANCH   7   8
ENDBRANCH   1   7
BRANCH   4  18
ATOM     18  C   UNL     1      49.026   6.949  15.739  0.00  0.00    +0.000 C 
BRANCH  18  19
ATOM     19  N   UNL     1      50.099   6.183  16.313  0.00  0.00    +0.000 N 
ATOM     20  C   UNL     1      50.044   5.656  17.573  0.00  0.00    +0.000 C 
ATOM     21  O   UNL     1      49.101   5.852  18.347  0.00  0.00    +0.000 OA
ATOM     22  H   UNL     1      50.725   5.743  15.651  0.00  0.00    +0.000 HD
BRANCH  20  23
ATOM     23  C   UNL     1      51.201   4.845  17.958  0.00  0.00    +0.000 A 
ATOM     24  C   UNL     1      52.322   5.396  18.561  0.00  0.00    +0.000 A 
ATOM     25  S   UNL     1      53.527   4.235  18.915  0.00  0.00    +0.000 S 
ATOM     26  C   UNL     1      52.577   2.977  18.280  0.00  0.00    +0.000 A 
ATOM     27  N   UNL     1      53.017   1.704  18.290  0.00  0.00    +0.000 NA
ATOM     28  C   UNL     1      52.144   0.855  17.735  0.00  0.00    +0.000 A 
ATOM     29  N   UNL     1      50.953   1.135  17.194  0.00  0.00    +0.000 NA
ATOM     30  C   UNL     1      50.582   2.408  17.217  0.00  0.00    +0.000 A 
ATOM     31  C   UNL     1      51.366   3.417  17.774  0.00  0.00    +0.000 A 
BRANCH  30  32
ATOM     32  O   UNL     1      49.382   2.640  16.617  0.00  0.00    +0.000 OA
ATOM     33  H   UNL     1      48.766   2.634  17.377  0.00  0.00    +0.000 HD
ENDBRANCH  30  32
ENDBRANCH  20  23
ENDBRANCH  18  19
ENDBRANCH   4  18
TORSDOF 8
ENDMDL
MODEL 5
REMARK VINA RESULT:    -7.617      2.076      2.952
REMARK INTER + INTRA:         -12.163
REMARK INTER:                 -10.984
REMARK INTRA:                  -1.179
REMARK UNBOUND:                -1.207
REMARK  Name = 
REMARK  9 active torsions:
REMARK  status: ('A' for Active; 'I' for Inactive)
REMARK    1  A    between atoms: C_1  and  C_2
REMARK    2  A    between atoms: C_5  and  C_6
REMARK    3  A    between atoms: C_6  and  N_7
REMARK    4  A    between atoms: N_7  and  C_8
REMARK    5  A    between atoms: C_8  and  C_9
REMARK    6  A    between atoms: C_12  and  C_13
REMARK    7  A    between atoms: C_13  and  N_14
REMARK    8  A    between atoms: C_15  and  C_17
REMARK    9  A    between atoms: C_24  and  O_25
REMARK                            x       y       z     vdW  Elec       q    Type
REMARK                         _______ _______ _______ _____ _____    ______ ____
ROOT
ATOM      1  C   UNL     1      44.675   4.617  11.662  0.00  0.00    +0.000 A 
ATOM      2  C   UNL     1      45.245   5.565  10.801  0.00  0.00    +0.000 A 
ATOM      3  C   UNL     1      46.310   6.368  11.223  0.00  0.00    +0.000 A 
ATOM      4  C   UNL     1      46.848   6.223  12.513  0.00  0.00    +0.000 A 
ATOM      5  C   UNL     1      46.283   5.264  13.366  0.00  0.00    +0.000 A 
ATOM      6  C   UNL     1      45.211   4.468  12.946  0.00  0.00    +0.000 A 
ENDROOT
BRANCH   1   7
ATOM      7  C   UNL     1      43.523   3.751  11.203  0.00  0.00    +0.000 C 
BRANCH   7   8
ATOM      8  N   UNL     1      43.675   3.266   9.830  0.00  0.00    +0.000 NA
ATOM      9  H   UNL     1      42.761   2.994   9.472  0.00  0.00    +0.000 HD
BRANCH   8  10
ATOM     10  C   UNL     1      44.568   2.109   9.730  0.00  0.00    +0.000 C 
BRANCH  10  15
ATOM     11  C   UNL     1      48.101   2.522   5.102  0.00  0.00    +0.000 C 
ATOM     12  C   UNL     1      47.204   2.436   6.301  0.00  0.00    +0.000 A 
ATOM     13  C   UNL     1      46.464   3.544   6.724  0.00  0.00    +0.000 A 
ATOM     14  C   UNL     1      45.622   3.450   7.838  0.00  0.00    +0.000 A 
ATOM     15  C   UNL     1      45.492   2.241   8.539  0.00  0.00    +0.000 A 
ATOM     16  C   UNL     1      46.253   1.142   8.120  0.00  0.00    +0.000 A 
ATOM     17  C   UNL     1      47.099   1.238   7.015  0.00  0.00    +0.000 A 
ENDBRANCH  10  15
ENDBRANCH   8  10
ENDBRANCH   7   8
ENDBRANCH   1   7
BRANCH   4  18
ATOM     18  C   UNL     1      48.025   7.053  12.982  0.00  0.00    +0.000 C 
BRANCH  18  19
ATOM     19  N   UNL     1      48.637   6.534  14.175  0.00  0.00    +0.000 N 
ATOM     20  C   UNL     1      48.765   7.265  15.323  0.00  0.00    +0.000 C 
ATOM     21  O   UNL     1      48.430   8.451  15.409  0.00  0.00    +0.000 OA
ATOM     22  H   UNL     1      48.639   5.526  14.262  0.00  0.00    +0.000 HD
BRANCH  20  23
ATOM     23  C   UNL     1      49.349   6.544  16.456  0.00  0.00    +0.000 A 
ATOM     24  C   UNL     1      48.567   5.980  17.454  0.00  0.00    +0.000 A 
ATOM     25  S   UNL     1      49.491   5.191  18.658  0.00  0.00    +0.000 S 
ATOM     26  C   UNL     1      50.946   5.577  17.870  0.00  0.00    +0.000 A 
ATOM     27  N   UNL     1      52.131   5.178  18.370  0.00  0.00    +0.000 NA
ATOM     28  C   UNL     1      53.166   5.588  17.626  0.00  0.00    +0.000 A 
ATOM     29  N   UNL     1      53.138   6.322  16.508  0.00  0.00    +0.000 NA
ATOM     30  C   UNL     1      51.938   6.681  16.071  0.00  0.00    +0.000 A 
ATOM     31  C   UNL     1      50.756   6.322  16.719  0.00  0.00    +0.000 A 
BRANCH  30  32
ATOM     32  O   UNL     1      51.971   7.458  14.954  0.00  0.00    +0.000 OA
ATOM     33  H   UNL     1      52.487   8.231  15.256  0.00  0.00    +0.000 HD
ENDBRANCH  30  32
ENDBRANCH  20  23
ENDBRANCH  18  19
ENDBRANCH   4  18
TORSDOF 8
ENDMDL
MODEL 6
REMARK VINA RESULT:    -7.225      3.428      8.582
REMARK INTER + INTRA:         -11.599
REMARK INTER:                  -9.761
REMARK INTRA:                  -1.838
REMARK UNBOUND:                -1.207
REMARK  Name = 
REMARK  9 active torsions:
REMARK  status: ('A' for Active; 'I' for Inactive)
REMARK    1  A    between atoms: C_1  and  C_2
REMARK    2  A    between atoms: C_5  and  C_6
REMARK    3  A    between atoms: C_6  and  N_7
REMARK    4  A    between atoms: N_7  and  C_8
REMARK    5  A    between atoms: C_8  and  C_9
REMARK    6  A    between atoms: C_12  and  C_13
REMARK    7  A    between atoms: C_13  and  N_14
REMARK    8  A    between atoms: C_15  and  C_17
REMARK    9  A    between atoms: C_24  and  O_25
REMARK                            x       y       z     vdW  Elec       q    Type
REMARK                         _______ _______ _______ _____ _____    ______ ____
ROOT
ATOM      1  C   UNL     1      48.652   8.168  16.205  0.00  0.00    +0.000 A 
ATOM      2  C   UNL     1      48.244   9.291  15.472  0.00  0.00    +0.000 A 
ATOM      3  C   UNL     1      48.218   9.262  14.073  0.00  0.00    +0.000 A 
ATOM      4  C   UNL     1      48.576   8.097  13.374  0.00  0.00    +0.000 A 
ATOM      5  C   UNL     1      48.970   6.973  14.113  0.00  0.00    +0.000 A 
ATOM      6  C   UNL     1      49.006   7.006  15.512  0.00  0.00    +0.000 A 
ENDROOT
BRANCH   1   7
ATOM      7  C   UNL     1      48.682   8.203  17.717  0.00  0.00    +0.000 C 
BRANCH   7   8
ATOM      8  N   UNL     1      47.431   7.753  18.330  0.00  0.00    +0.000 NA
ATOM      9  H   UNL     1      46.999   8.538  18.816  0.00  0.00    +0.000 HD
BRANCH   8  10
ATOM     10  C   UNL     1      47.627   6.671  19.298  0.00  0.00    +0.000 C 
BRANCH  10  15
ATOM     11  C   UNL     1      49.389   1.834  16.545  0.00  0.00    +0.000 C 
ATOM     12  C   UNL     1      48.944   3.067  17.274  0.00  0.00    +0.000 A 
ATOM     13  C   UNL     1      49.820   3.757  18.118  0.00  0.00    +0.000 A 
ATOM     14  C   UNL     1      49.398   4.913  18.785  0.00  0.00    +0.000 A 
ATOM     15  C   UNL     1      48.097   5.409  18.608  0.00  0.00    +0.000 A 
ATOM     16  C   UNL     1      47.220   4.700  17.777  0.00  0.00    +0.000 A 
ATOM     17  C   UNL     1      47.638   3.543  17.118  0.00  0.00    +0.000 A 
ENDBRANCH  10  15
ENDBRANCH   8  10
ENDBRANCH   7   8
ENDBRANCH   1   7
BRANCH   4  18
ATOM     18  C   UNL     1      48.519   8.027  11.862  0.00  0.00    +0.000 C 
BRANCH  18  19
ATOM     19  N   UNL     1      47.716   6.936  11.381  0.00  0.00    +0.000 N 
ATOM     20  C   UNL     1      46.349   6.963  11.382  0.00  0.00    +0.000 C 
ATOM     21  O   UNL     1      45.692   7.895  11.858  0.00  0.00    +0.000 OA
ATOM     22  H   UNL     1      48.169   6.317  10.722  0.00  0.00    +0.000 HD
BRANCH  20  23
ATOM     23  C   UNL     1      45.704   5.790  10.786  0.00  0.00    +0.000 A 
ATOM     24  C   UNL     1      45.814   5.494   9.436  0.00  0.00    +0.000 A 
ATOM     25  S   UNL     1      44.974   4.070   8.996  0.00  0.00    +0.000 S 
ATOM     26  C   UNL     1      44.457   3.817  10.595  0.00  0.00    +0.000 A 
ATOM     27  N   UNL     1      43.705   2.748  10.918  0.00  0.00    +0.000 NA
ATOM     28  C   UNL     1      43.380   2.724  12.217  0.00  0.00    +0.000 A 
ATOM     29  N   UNL     1      43.701   3.612  13.164  0.00  0.00    +0.000 NA
ATOM     30  C   UNL     1      44.444   4.641  12.776  0.00  0.00    +0.000 A 
ATOM     31  C   UNL     1      44.883   4.808  11.463  0.00  0.00    +0.000 A 
BRANCH  30  32
ATOM     32  O   UNL     1      44.707   5.533  13.770  0.00  0.00    +0.000 OA
ATOM     33  H   UNL     1      44.364   6.368  13.395  0.00  0.00    +0.000 HD
ENDBRANCH  30  32
ENDBRANCH  20  23
ENDBRANCH  18  19
ENDBRANCH   4  18
TORSDOF 8
ENDMDL
MODEL 7
REMARK VINA RESULT:    -7.045      5.136      7.271
REMARK INTER + INTRA:         -11.341
REMARK INTER:                 -10.079
REMARK INTRA:                  -1.262
REMARK UNBOUND:                -1.207
REMARK  Name = 
REMARK  9 active torsions:
REMARK  status: ('A' for Active; 'I' for Inactive)
REMARK    1  A    between atoms: C_1  and  C_2
REMARK    2  A    between atoms: C_5  and  C_6
REMARK    3  A    between atoms: C_6  and  N_7
REMARK    4  A    between atoms: N_7  and  C_8
REMARK    5  A    between atoms: C_8  and  C_9
REMARK    6  A    between atoms: C_12  and  C_13
REMARK    7  A    between atoms: C_13  and  N_14
REMARK    8  A    between atoms: C_15  and  C_17
REMARK    9  A    between atoms: C_24  and  O_25
REMARK                            x       y       z     vdW  Elec       q    Type
REMARK                         _______ _______ _______ _____ _____    ______ ____
ROOT
ATOM      1  C   UNL     1      45.513   6.964  11.987  0.00  0.00    +0.000 A 
ATOM      2  C   UNL     1      46.744   6.521  11.484  0.00  0.00    +0.000 A 
ATOM      3  C   UNL     1      47.924   7.218  11.762  0.00  0.00    +0.000 A 
ATOM      4  C   UNL     1      47.904   8.365  12.574  0.00  0.00    +0.000 A 
ATOM      5  C   UNL     1      46.671   8.796  13.085  0.00  0.00    +0.000 A 
ATOM      6  C   UNL     1      45.489   8.104  12.798  0.00  0.00    +0.000 A 
ENDROOT
BRANCH   1   7
ATOM      7  C   UNL     1      44.238   6.208  11.683  0.00  0.00    +0.000 C 
BRANCH   7   8
ATOM      8  N   UNL     1      44.453   4.777  11.463  0.00  0.00    +0.000 NA
ATOM      9  H   UNL     1      45.451   4.604  11.358  0.00  0.00    +0.000 HD
BRANCH   8  10
ATOM     10  C   UNL     1      43.775   4.276  10.264  0.00  0.00    +0.000 C 
BRANCH  10  15
ATOM     11  C   UNL     1      47.651   1.849   6.637  0.00  0.00    +0.000 C 
ATOM     12  C   UNL     1      46.637   2.457   7.560  0.00  0.00    +0.000 A 
ATOM     13  C   UNL     1      45.878   1.657   8.420  0.00  0.00    +0.000 A 
ATOM     14  C   UNL     1      44.943   2.235   9.285  0.00  0.00    +0.000 A 
ATOM     15  C   UNL     1      44.761   3.627   9.319  0.00  0.00    +0.000 A 
ATOM     16  C   UNL     1      45.511   4.419   8.440  0.00  0.00    +0.000 A 
ATOM     17  C   UNL     1      46.438   3.841   7.571  0.00  0.00    +0.000 A 
ENDBRANCH  10  15
ENDBRANCH   8  10
ENDBRANCH   7   8
ENDBRANCH   1   7
BRANCH   4  18
ATOM     18  C   UNL     1      49.172   9.117  12.921  0.00  0.00    +0.000 C 
BRANCH  18  19
ATOM     19  N   UNL     1      49.981   9.412  11.771  0.00  0.00    +0.000 N 
ATOM     20  C   UNL     1      51.297   9.055  11.676  0.00  0.00    +0.000 C 
ATOM     21  O   UNL     1      51.917   8.511  12.596  0.00  0.00    +0.000 OA
ATOM     22  H   UNL     1      49.475   9.561  10.907  0.00  0.00    +0.000 HD
BRANCH  20  23
ATOM     23  C   UNL     1      51.938   9.377  10.399  0.00  0.00    +0.000 A 
ATOM     24  C   UNL     1      51.912  10.656   9.862  0.00  0.00    +0.000 A 
ATOM     25  S   UNL     1      52.738  10.767   8.368  0.00  0.00    +0.000 S 
ATOM     26  C   UNL     1      53.153   9.120   8.413  0.00  0.00    +0.000 A 
ATOM     27  N   UNL     1      53.886   8.563   7.431  0.00  0.00    +0.000 NA
ATOM     28  C   UNL     1      54.100   7.256   7.627  0.00  0.00    +0.000 A 
ATOM     29  N   UNL     1      53.670   6.494   8.639  0.00  0.00    +0.000 NA
ATOM     30  C   UNL     1      52.953   7.107   9.572  0.00  0.00    +0.000 A 
ATOM     31  C   UNL     1      52.654   8.468   9.528  0.00  0.00    +0.000 A 
BRANCH  30  32
ATOM     32  O   UNL     1      52.509   6.276  10.555  0.00  0.00    +0.000 OA
ATOM     33  H   UNL     1      52.561   6.848  11.347  0.00  0.00    +0.000 HD
ENDBRANCH  30  32
ENDBRANCH  20  23
ENDBRANCH  18  19
ENDBRANCH   4  18
TORSDOF 8
ENDMDL
MODEL 8
REMARK VINA RESULT:    -6.779      3.097      9.268
REMARK INTER + INTRA:         -10.958
REMARK INTER:                  -9.422
REMARK INTRA:                  -1.536
REMARK UNBOUND:                -1.207
REMARK  Name = 
REMARK  9 active torsions:
REMARK  status: ('A' for Active; 'I' for Inactive)
REMARK    1  A    between atoms: C_1  and  C_2
REMARK    2  A    between atoms: C_5  and  C_6
REMARK    3  A    between atoms: C_6  and  N_7
REMARK    4  A    between atoms: N_7  and  C_8
REMARK    5  A    between atoms: C_8  and  C_9
REMARK    6  A    between atoms: C_12  and  C_13
REMARK    7  A    between atoms: C_13  and  N_14
REMARK    8  A    between atoms: C_15  and  C_17
REMARK    9  A    between atoms: C_24  and  O_25
REMARK                            x       y       z     vdW  Elec       q    Type
REMARK                         _______ _______ _______ _____ _____    ______ ____
ROOT
ATOM      1  C   UNL     1      49.011   8.091  16.190  0.00  0.00    +0.000 A 
ATOM      2  C   UNL     1      48.535   9.221  15.512  0.00  0.00    +0.000 A 
ATOM      3  C   UNL     1      48.079   9.125  14.193  0.00  0.00    +0.000 A 
ATOM      4  C   UNL     1      48.066   7.887  13.527  0.00  0.00    +0.000 A 
ATOM      5  C   UNL     1      48.532   6.758  14.215  0.00  0.00    +0.000 A 
ATOM      6  C   UNL     1      48.998   6.856  15.531  0.00  0.00    +0.000 A 
ENDROOT
BRANCH   1   7
ATOM      7  C   UNL     1      49.505   8.198  17.616  0.00  0.00    +0.000 C 
BRANCH   7   8
ATOM      8  N   UNL     1      48.470   7.905  18.610  0.00  0.00    +0.000 NA
ATOM      9  H   UNL     1      48.223   8.766  19.094  0.00  0.00    +0.000 HD
BRANCH   8  10
ATOM     10  C   UNL     1      48.902   6.926  19.611  0.00  0.00    +0.000 C 
BRANCH  10  15
ATOM     11  C   UNL     1      50.458   1.944  16.998  0.00  0.00    +0.000 C 
ATOM     12  C   UNL     1      50.073   3.218  17.689  0.00  0.00    +0.000 A 
ATOM     13  C   UNL     1      51.048   4.107  18.151  0.00  0.00    +0.000 A 
ATOM     14  C   UNL     1      50.678   5.299  18.785  0.00  0.00    +0.000 A 
ATOM     15  C   UNL     1      49.325   5.632  18.953  0.00  0.00    +0.000 A 
ATOM     16  C   UNL     1      48.354   4.726  18.505  0.00  0.00    +0.000 A 
ATOM     17  C   UNL     1      48.724   3.534  17.881  0.00  0.00    +0.000 A 
ENDBRANCH  10  15
ENDBRANCH   8  10
ENDBRANCH   7   8
ENDBRANCH   1   7
BRANCH   4  18
ATOM     18  C   UNL     1      47.543   7.750  12.113  0.00  0.00    +0.000 C 
BRANCH  18  19
ATOM     19  N   UNL     1      46.813   6.529  11.901  0.00  0.00    +0.000 N 
ATOM     20  C   UNL     1      45.454   6.447  12.014  0.00  0.00    +0.000 C 
ATOM     21  O   UNL     1      44.748   7.395  12.374  0.00  0.00    +0.000 OA
ATOM     22  H   UNL     1      47.276   5.838  11.325  0.00  0.00    +0.000 HD
BRANCH  20  23
ATOM     23  C   UNL     1      44.882   5.138  11.691  0.00  0.00    +0.000 A 
ATOM     24  C   UNL     1      44.214   4.371  12.635  0.00  0.00    +0.000 A 
ATOM     25  S   UNL     1      43.637   2.890  12.003  0.00  0.00    +0.000 S 
ATOM     26  C   UNL     1      44.256   3.246  10.461  0.00  0.00    +0.000 A 
ATOM     27  N   UNL     1      44.090   2.391   9.434  0.00  0.00    +0.000 NA
ATOM     28  C   UNL     1      44.658   2.830   8.303  0.00  0.00    +0.000 A 
ATOM     29  N   UNL     1      45.343   3.962   8.112  0.00  0.00    +0.000 NA
ATOM     30  C   UNL     1      45.469   4.758   9.165  0.00  0.00    +0.000 A 
ATOM     31  C   UNL     1      44.923   4.458  10.413  0.00  0.00    +0.000 A 
BRANCH  30  32
ATOM     32  O   UNL     1      46.209   5.876   8.924  0.00  0.00    +0.000 OA
ATOM     33  H   UNL     1      46.910   5.809   9.601  0.00  0.00    +0.000 HD
ENDBRANCH  30  32
ENDBRANCH  20  23
ENDBRANCH  18  19
ENDBRANCH   4  18
TORSDOF 8
ENDMDL
MODEL 9
REMARK VINA RESULT:    -6.450      3.635      9.868
REMARK INTER + INTRA:         -10.485
REMARK INTER:                  -8.959
REMARK INTRA:                  -1.525
REMARK UNBOUND:                -1.207
REMARK  Name = 
REMARK  9 active torsions:
REMARK  status: ('A' for Active; 'I' for Inactive)
REMARK    1  A    between atoms: C_1  and  C_2
REMARK    2  A    between atoms: C_5  and  C_6
REMARK    3  A    between atoms: C_6  and  N_7
REMARK    4  A    between atoms: N_7  and  C_8
REMARK    5  A    between atoms: C_8  and  C_9
REMARK    6  A    between atoms: C_12  and  C_13
REMARK    7  A    between atoms: C_13  and  N_14
REMARK    8  A    between atoms: C_15  and  C_17
REMARK    9  A    between atoms: C_24  and  O_25
REMARK                            x       y       z     vdW  Elec       q    Type
REMARK                         _______ _______ _______ _____ _____    ______ ____
ROOT
ATOM      1  C   UNL     1      49.907   6.160  19.458  0.00  0.00    +0.000 A 
ATOM      2  C   UNL     1      49.314   4.963  19.884  0.00  0.00    +0.000 A 
ATOM      3  C   UNL     1      48.468   4.241  19.035  0.00  0.00    +0.000 A 
ATOM      4  C   UNL     1      48.213   4.688  17.728  0.00  0.00    +0.000 A 
ATOM      5  C   UNL     1      48.819   5.879  17.303  0.00  0.00    +0.000 A 
ATOM      6  C   UNL     1      49.658   6.606  18.155  0.00  0.00    +0.000 A 
ENDROOT
BRANCH   1   7
ATOM      7  C   UNL     1      50.820   6.939  20.378  0.00  0.00    +0.000 C 
BRANCH   7   8
ATOM      8  N   UNL     1      51.894   6.125  20.951  0.00  0.00    +0.000 NA
ATOM      9  H   UNL     1      52.192   6.543  21.831  0.00  0.00    +0.000 HD
BRANCH   8  10
ATOM     10  C   UNL     1      53.063   6.024  20.074  0.00  0.00    +0.000 C 
BRANCH  10  15
ATOM     11  C   UNL     1      53.463   0.644  17.846  0.00  0.00    +0.000 C 
ATOM     12  C   UNL     1      53.366   2.036  18.396  0.00  0.00    +0.000 A 
ATOM     13  C   UNL     1      52.548   2.993  17.787  0.00  0.00    +0.000 A 
ATOM     14  C   UNL     1      52.456   4.285  18.315  0.00  0.00    +0.000 A 
ATOM     15  C   UNL     1      53.168   4.641  19.471  0.00  0.00    +0.000 A 
ATOM     16  C   UNL     1      54.001   3.682  20.063  0.00  0.00    +0.000 A 
ATOM     17  C   UNL     1      54.099   2.395  19.532  0.00  0.00    +0.000 A 
ENDBRANCH  10  15
ENDBRANCH   8  10
ENDBRANCH   7   8
ENDBRANCH   1   7
BRANCH   4  18
ATOM     18  C   UNL     1      47.331   3.907  16.777  0.00  0.00    +0.000 C 
BRANCH  18  19
ATOM     19  N   UNL     1      46.927   4.672  15.629  0.00  0.00    +0.000 N 
ATOM     20  C   UNL     1      46.968   4.180  14.355  0.00  0.00    +0.000 C 
ATOM     21  O   UNL     1      47.419   3.063  14.076  0.00  0.00    +0.000 OA
ATOM     22  H   UNL     1      46.285   5.432  15.814  0.00  0.00    +0.000 HD
BRANCH  20  23
ATOM     23  C   UNL     1      46.449   5.081  13.323  0.00  0.00    +0.000 A 
ATOM     24  C   UNL     1      46.787   6.426  13.279  0.00  0.00    +0.000 A 
ATOM     25  S   UNL     1      46.053   7.254  11.975  0.00  0.00    +0.000 S 
ATOM     26  C   UNL     1      45.280   5.838  11.440  0.00  0.00    +0.000 A 
ATOM     27  N   UNL     1      44.501   5.847  10.342  0.00  0.00    +0.000 NA
ATOM     28  C   UNL     1      43.964   4.648  10.084  0.00  0.00    +0.000 A 
ATOM     29  N   UNL     1      44.110   3.514  10.777  0.00  0.00    +0.000 NA
ATOM     30  C   UNL     1      44.891   3.576  11.847  0.00  0.00    +0.000 A 
ATOM     31  C   UNL     1      45.540   4.743  12.246  0.00  0.00    +0.000 A 
BRANCH  30  32
ATOM     32  O   UNL     1      44.972   2.404  12.536  0.00  0.00    +0.000 OA
ATOM     33  H   UNL     1      44.644   1.756  11.881  0.00  0.00    +0.000 HD
ENDBRANCH  30  32
ENDBRANCH  20  23
ENDBRANCH  18  19
ENDBRANCH   4  18
TORSDOF 8
ENDMDL
