MODEL 1
REMARK VINA RESULT:    -9.224      0.000      0.000
REMARK INTER + INTRA:         -14.112
REMARK INTER:                 -12.998
REMARK INTRA:                  -1.114
REMARK UNBOUND:                -1.114
REMARK  Name = 
REMARK  7 active torsions:
REMARK  status: ('A' for Active; 'I' for Inactive)
REMARK    1  A    between atoms: C_2  and  C_4
REMARK    2  A    between atoms: C_7  and  N_8
REMARK    3  A    between atoms: N_8  and  C_9
REMARK    4  A    between atoms: C_9  and  C_10
REMARK    5  A    between atoms: C_13  and  C_14
REMARK    6  A    between atoms: C_14  and  N_15
REMARK    7  A    between atoms: C_16  and  C_18
REMARK                            x       y       z     vdW  Elec       q    Type
REMARK                         _______ _______ _______ _____ _____    ______ ____
ROOT
ATOM      1  C   UNL     1      44.749   5.192  12.047  0.00  0.00    +0.000 A 
ATOM      2  C   UNL     1      45.381   4.433  13.041  0.00  0.00    +0.000 A 
ATOM      3  C   UNL     1      46.543   4.899  13.664  0.00  0.00    +0.000 A 
ATOM      4  C   UNL     1      47.085   6.144  13.321  0.00  0.00    +0.000 A 
ATOM      5  C   UNL     1      46.461   6.897  12.316  0.00  0.00    +0.000 A 
ATOM      6  C   UNL     1      45.297   6.432  11.694  0.00  0.00    +0.000 A 
ENDROOT
BRANCH   1   7
ATOM      7  C   UNL     1      43.528   4.655  11.341  0.00  0.00    +0.000 C 
BRANCH   7   8
ATOM      8  N   UNL     1      43.648   4.767   9.895  0.00  0.00    +0.000 N 
ATOM      9  H   UNL     1      42.758   4.771   9.400  0.00  0.00    +0.000 HD
BRANCH   8  13
ATOM     10  C   UNL     1      46.500   2.482   7.763  0.00  0.00    +0.000 A 
ATOM     11  C   UNL     1      46.502   3.872   7.648  0.00  0.00    +0.000 A 
ATOM     12  C   UNL     1      45.571   4.636   8.360  0.00  0.00    +0.000 A 
ATOM     13  C   UNL     1      44.641   4.044   9.225  0.00  0.00    +0.000 A 
ATOM     14  C   UNL     1      44.639   2.644   9.313  0.00  0.00    +0.000 A 
ATOM     15  C   UNL     1      45.554   1.866   8.586  0.00  0.00    +0.000 A 
BRANCH  10  17
ATOM     16  N   UNL     1      48.489   2.292   6.374  0.00  0.00    +0.000 N 
ATOM     17  C   UNL     1      47.454   1.644   6.992  0.00  0.00    +0.000 C 
ATOM     18  O   UNL     1      47.344   0.427   6.931  0.00  0.00    +0.000 OA
ATOM     19  H   UNL     1      49.185   1.707   5.929  0.00  0.00    +0.000 HD
ATOM     20  H   UNL     1      48.750   3.239   6.603  0.00  0.00    +0.000 HD
ENDBRANCH  10  17
ENDBRANCH   8  13
ENDBRANCH   7   8
ENDBRANCH   1   7
BRANCH   4  21
ATOM     21  C   UNL     1      48.328   6.658  14.000  0.00  0.00    +0.000 C 
BRANCH  21  22
ATOM     22  N   UNL     1      48.112   6.878  15.408  0.00  0.00    +0.000 N 
ATOM     23  C   UNL     1      49.068   6.533  16.329  0.00  0.00    +0.000 C 
ATOM     24  O   UNL     1      50.158   6.074  15.994  0.00  0.00    +0.000 OA
ATOM     25  H   UNL     1      47.155   7.028  15.712  0.00  0.00    +0.000 HD
BRANCH  23  26
ATOM     26  C   UNL     1      48.752   6.798  17.737  0.00  0.00    +0.000 A 
ATOM     27  C   UNL     1      48.498   8.100  18.150  0.00  0.00    +0.000 A 
ATOM     28  S   UNL     1      48.098   8.228  19.804  0.00  0.00    +0.000 S 
ATOM     29  C   UNL     1      48.305   6.556  20.038  0.00  0.00    +0.000 A 
ATOM     30  N   UNL     1      48.140   5.998  21.268  0.00  0.00    +0.000 NA
ATOM     31  C   UNL     1      48.359   4.726  21.311  0.00  0.00    +0.000 A 
ATOM     32  N   UNL     1      48.720   3.959  20.234  0.00  0.00    +0.000 N 
ATOM     33  C   UNL     1      48.872   4.475  18.967  0.00  0.00    +0.000 A 
ATOM     34  O   UNL     1      49.151   3.753  18.019  0.00  0.00    +0.000 OA
ATOM     35  C   UNL     1      48.654   5.904  18.867  0.00  0.00    +0.000 A 
ATOM     36  H   UNL     1      48.867   2.967  20.332  0.00  0.00    +0.000 HD
ENDBRANCH  23  26
ENDBRANCH  21  22
ENDBRANCH   4  21
TORSDOF 7
ENDMDL
MODEL 2
REMARK VINA RESULT:    -9.062      1.266      1.906
REMARK INTER + INTRA:         -13.884
REMARK INTER:                 -12.578
REMARK INTRA:                  -1.306
REMARK UNBOUND:                -1.114
REMARK  Name = 
REMARK  7 active torsions:
REMARK  status: ('A' for Active; 'I' for Inactive)
REMARK    1  A    between atoms: C_2  and  C_4
REMARK    2  A    between atoms: C_7  and  N_8
REMARK    3  A    between atoms: N_8  and  C_9
REMARK    4  A    between atoms: C_9  and  C_10
REMARK    5  A    between atoms: C_13  and  C_14
REMARK    6  A    between atoms: C_14  and  N_15
REMARK    7  A    between atoms: C_16  and  C_18
REMARK                            x       y       z     vdW  Elec       q    Type
REMARK                         _______ _______ _______ _____ _____    ______ ____
ROOT
ATOM      1  C   UNL     1      44.718   5.157  12.094  0.00  0.00    +0.000 A 
ATOM      2  C   UNL     1      45.401   4.298  12.967  0.00  0.00    +0.000 A 
ATOM      3  C   UNL     1      46.538   4.735  13.654  0.00  0.00    +0.000 A 
ATOM      4  C   UNL     1      47.003   6.047  13.501  0.00  0.00    +0.000 A 
ATOM      5  C   UNL     1      46.328   6.902  12.618  0.00  0.00    +0.000 A 
ATOM      6  C   UNL     1      45.190   6.466  11.931  0.00  0.00    +0.000 A 
ENDROOT
BRANCH   1   7
ATOM      7  C   UNL     1      43.526   4.658  11.314  0.00  0.00    +0.000 C 
BRANCH   7   8
ATOM      8  N   UNL     1      43.716   4.817   9.880  0.00  0.00    +0.000 N 
ATOM      9  H   UNL     1      42.853   4.930   9.353  0.00  0.00    +0.000 HD
BRANCH   8  13
ATOM     10  C   UNL     1      46.415   2.326   7.780  0.00  0.00    +0.000 A 
ATOM     11  C   UNL     1      46.435   3.703   7.563  0.00  0.00    +0.000 A 
ATOM     12  C   UNL     1      45.555   4.536   8.263  0.00  0.00    +0.000 A 
ATOM     13  C   UNL     1      44.661   4.027   9.216  0.00  0.00    +0.000 A 
ATOM     14  C   UNL     1      44.641   2.638   9.406  0.00  0.00    +0.000 A 
ATOM     15  C   UNL     1      45.504   1.790   8.693  0.00  0.00    +0.000 A 
BRANCH  10  17
ATOM     16  N   UNL     1      48.452   1.963   6.498  0.00  0.00    +0.000 N 
ATOM     17  C   UNL     1      47.314   1.415   7.026  0.00  0.00    +0.000 C 
ATOM     18  O   UNL     1      47.071   0.222   6.902  0.00  0.00    +0.000 OA
ATOM     19  H   UNL     1      49.103   1.320   6.066  0.00  0.00    +0.000 HD
ATOM     20  H   UNL     1      48.803   2.864   6.786  0.00  0.00    +0.000 HD
ENDBRANCH  10  17
ENDBRANCH   8  13
ENDBRANCH   7   8
ENDBRANCH   1   7
BRANCH   4  21
ATOM     21  C   UNL     1      48.217   6.528  14.252  0.00  0.00    +0.000 C 
BRANCH  21  22
ATOM     22  N   UNL     1      48.055   6.378  15.676  0.00  0.00    +0.000 N 
ATOM     23  C   UNL     1      49.137   6.149  16.487  0.00  0.00    +0.000 C 
ATOM     24  O   UNL     1      50.283   6.112  16.046  0.00  0.00    +0.000 OA
ATOM     25  H   UNL     1      47.121   6.173  16.017  0.00  0.00    +0.000 HD
BRANCH  23  26
ATOM     26  C   UNL     1      48.867   6.013  17.923  0.00  0.00    +0.000 A 
ATOM     27  C   UNL     1      49.122   4.804  18.558  0.00  0.00    +0.000 A 
ATOM     28  S   UNL     1      48.801   4.830  20.233  0.00  0.00    +0.000 S 
ATOM     29  C   UNL     1      48.259   6.440  20.159  0.00  0.00    +0.000 A 
ATOM     30  N   UNL     1      47.801   7.074  21.273  0.00  0.00    +0.000 NA
ATOM     31  C   UNL     1      47.390   8.281  21.068  0.00  0.00    +0.000 A 
ATOM     32  N   UNL     1      47.403   8.916  19.853  0.00  0.00    +0.000 N 
ATOM     33  C   UNL     1      47.881   8.323  18.707  0.00  0.00    +0.000 A 
ATOM     34  O   UNL     1      47.920   8.935  17.648  0.00  0.00    +0.000 OA
ATOM     35  C   UNL     1      48.340   6.960  18.877  0.00  0.00    +0.000 A 
ATOM     36  H   UNL     1      47.077   9.865  19.762  0.00  0.00    +0.000 HD
ENDBRANCH  23  26
ENDBRANCH  21  22
ENDBRANCH   4  21
TORSDOF 7
ENDMDL
MODEL 3
REMARK VINA RESULT:    -8.807      1.560      1.831
REMARK INTER + INTRA:         -13.525
REMARK INTER:                 -12.631
REMARK INTRA:                  -0.894
REMARK UNBOUND:                -1.114
REMARK  Name = 
REMARK  7 active torsions:
REMARK  status: ('A' for Active; 'I' for Inactive)
REMARK    1  A    between atoms: C_2  and  C_4
REMARK    2  A    between atoms: C_7  and  N_8
REMARK    3  A    between atoms: N_8  and  C_9
REMARK    4  A    between atoms: C_9  and  C_10
REMARK    5  A    between atoms: C_13  and  C_14
REMARK    6  A    between atoms: C_14  and  N_15
REMARK    7  A    between atoms: C_16  and  C_18
REMARK                            x       y       z     vdW  Elec       q    Type
REMARK                         _______ _______ _______ _____ _____    ______ ____
ROOT
ATOM      1  C   UNL     1      44.312   5.991  11.552  0.00  0.00    +0.000 A 
ATOM      2  C   UNL     1      45.132   5.424  12.536  0.00  0.00    +0.000 A 
ATOM      3  C   UNL     1      46.108   6.190  13.181  0.00  0.00    +0.000 A 
ATOM      4  C   UNL     1      46.270   7.546  12.870  0.00  0.00    +0.000 A 
ATOM      5  C   UNL     1      45.459   8.111  11.875  0.00  0.00    +0.000 A 
ATOM      6  C   UNL     1      44.481   7.345  11.231  0.00  0.00    +0.000 A 
ENDROOT
BRANCH   1   7
ATOM      7  C   UNL     1      43.300   5.142  10.822  0.00  0.00    +0.000 C 
BRANCH   7   8
ATOM      8  N   UNL     1      43.759   3.771  10.666  0.00  0.00    +0.000 N 
ATOM      9  H   UNL     1      43.938   3.286  11.543  0.00  0.00    +0.000 HD
BRANCH   8  13
ATOM     10  C   UNL     1      46.445   2.730   7.567  0.00  0.00    +0.000 A 
ATOM     11  C   UNL     1      46.125   4.070   7.783  0.00  0.00    +0.000 A 
ATOM     12  C   UNL     1      45.248   4.424   8.814  0.00  0.00    +0.000 A 
ATOM     13  C   UNL     1      44.696   3.463   9.673  0.00  0.00    +0.000 A 
ATOM     14  C   UNL     1      45.013   2.120   9.429  0.00  0.00    +0.000 A 
ATOM     15  C   UNL     1      45.874   1.751   8.383  0.00  0.00    +0.000 A 
BRANCH  10  17
ATOM     16  N   UNL     1      47.337   3.101   5.333  0.00  0.00    +0.000 N 
ATOM     17  C   UNL     1      47.347   2.323   6.458  0.00  0.00    +0.000 C 
ATOM     18  O   UNL     1      48.087   1.353   6.550  0.00  0.00    +0.000 OA
ATOM     19  H   UNL     1      48.018   2.872   4.620  0.00  0.00    +0.000 HD
ATOM     20  H   UNL     1      46.936   4.028   5.318  0.00  0.00    +0.000 HD
ENDBRANCH  10  17
ENDBRANCH   8  13
ENDBRANCH   7   8
ENDBRANCH   1   7
BRANCH   4  21
ATOM     21  C   UNL     1      47.309   8.380  13.573  0.00  0.00    +0.000 C 
BRANCH  21  22
ATOM     22  N   UNL     1      47.673   7.814  14.847  0.00  0.00    +0.000 N 
ATOM     23  C   UNL     1      48.811   7.060  14.983  0.00  0.00    +0.000 C 
ATOM     24  O   UNL     1      49.586   6.879  14.048  0.00  0.00    +0.000 OA
ATOM     25  H   UNL     1      46.945   7.753  15.552  0.00  0.00    +0.000 HD
BRANCH  23  26
ATOM     26  C   UNL     1      49.093   6.529  16.322  0.00  0.00    +0.000 A 
ATOM     27  C   UNL     1      49.822   7.294  17.225  0.00  0.00    +0.000 A 
ATOM     28  S   UNL     1      50.016   6.554  18.748  0.00  0.00    +0.000 S 
ATOM     29  C   UNL     1      49.181   5.162  18.239  0.00  0.00    +0.000 A 
ATOM     30  N   UNL     1      49.015   4.102  19.076  0.00  0.00    +0.000 NA
ATOM     31  C   UNL     1      48.392   3.100  18.551  0.00  0.00    +0.000 A 
ATOM     32  N   UNL     1      47.912   3.064  17.269  0.00  0.00    +0.000 N 
ATOM     33  C   UNL     1      48.033   4.122  16.396  0.00  0.00    +0.000 A 
ATOM     34  O   UNL     1      47.552   4.073  15.272  0.00  0.00    +0.000 OA
ATOM     35  C   UNL     1      48.740   5.268  16.930  0.00  0.00    +0.000 A 
ATOM     36  H   UNL     1      47.423   2.254  16.922  0.00  0.00    +0.000 HD
ENDBRANCH  23  26
ENDBRANCH  21  22
ENDBRANCH   4  21
TORSDOF 7
ENDMDL
MODEL 4
REMARK VINA RESULT:    -7.829      3.192      9.022
REMARK INTER + INTRA:         -12.148
REMARK INTER:                 -10.595
REMARK INTRA:                  -1.552
REMARK UNBOUND:                -1.114
REMARK  Name = 
REMARK  7 active torsions:
REMARK  status: ('A' for Active; 'I' for Inactive)
REMARK    1  A    between atoms: C_2  and  C_4
REMARK    2  A    between atoms: C_7  and  N_8
REMARK    3  A    between atoms: N_8  and  C_9
REMARK    4  A    between atoms: C_9  and  C_10
REMARK    5  A    between atoms: C_13  and  C_14
REMARK    6  A    between atoms: C_14  and  N_15
REMARK    7  A    between atoms: C_16  and  C_18
REMARK                            x       y       z     vdW  Elec       q    Type
REMARK                         _______ _______ _______ _____ _____    ______ ____
ROOT
ATOM      1  C   UNL     1      49.543   8.392  15.854  0.00  0.00    +0.000 A 
ATOM      2  C   UNL     1      48.261   8.879  15.563  0.00  0.00    +0.000 A 
ATOM      3  C   UNL     1      47.723   8.749  14.279  0.00  0.00    +0.000 A 
ATOM      4  C   UNL     1      48.446   8.111  13.264  0.00  0.00    +0.000 A 
ATOM      5  C   UNL     1      49.734   7.635  13.551  0.00  0.00    +0.000 A 
ATOM      6  C   UNL     1      50.272   7.763  14.836  0.00  0.00    +0.000 A 
ENDROOT
BRANCH   1   7
ATOM      7  C   UNL     1      50.138   8.587  17.227  0.00  0.00    +0.000 C 
BRANCH   7   8
ATOM      8  N   UNL     1      49.615   7.623  18.183  0.00  0.00    +0.000 N 
ATOM      9  H   UNL     1      49.751   7.882  19.158  0.00  0.00    +0.000 HD
BRANCH   8  13
ATOM     10  C   UNL     1      50.068   3.509  17.304  0.00  0.00    +0.000 A 
ATOM     11  C   UNL     1      51.198   4.300  17.507  0.00  0.00    +0.000 A 
ATOM     12  C   UNL     1      51.057   5.659  17.812  0.00  0.00    +0.000 A 
ATOM     13  C   UNL     1      49.796   6.254  17.954  0.00  0.00    +0.000 A 
ATOM     14  C   UNL     1      48.671   5.448  17.725  0.00  0.00    +0.000 A 
ATOM     15  C   UNL     1      48.801   4.089  17.397  0.00  0.00    +0.000 A 
BRANCH  10  17
ATOM     16  N   UNL     1      50.972   1.295  17.756  0.00  0.00    +0.000 N 
ATOM     17  C   UNL     1      50.189   2.072  16.946  0.00  0.00    +0.000 C 
ATOM     18  O   UNL     1      49.597   1.591  15.989  0.00  0.00    +0.000 OA
ATOM     19  H   UNL     1      50.976   0.302  17.561  0.00  0.00    +0.000 HD
ATOM     20  H   UNL     1      51.266   1.594  18.674  0.00  0.00    +0.000 HD
ENDBRANCH  10  17
ENDBRANCH   8  13
ENDBRANCH   7   8
ENDBRANCH   1   7
BRANCH   4  21
ATOM     21  C   UNL     1      47.864   7.954  11.883  0.00  0.00    +0.000 C 
BRANCH  21  22
ATOM     22  N   UNL     1      47.112   6.731  11.759  0.00  0.00    +0.000 N 
ATOM     23  C   UNL     1      45.741   6.743  11.786  0.00  0.00    +0.000 C 
ATOM     24  O   UNL     1      45.101   7.789  11.865  0.00  0.00    +0.000 OA
ATOM     25  H   UNL     1      47.608   5.862  11.928  0.00  0.00    +0.000 HD
BRANCH  23  26
ATOM     26  C   UNL     1      45.068   5.445  11.650  0.00  0.00    +0.000 A 
ATOM     27  C   UNL     1      44.376   4.915  12.732  0.00  0.00    +0.000 A 
ATOM     28  S   UNL     1      43.611   3.428  12.392  0.00  0.00    +0.000 S 
ATOM     29  C   UNL     1      44.224   3.414  10.805  0.00  0.00    +0.000 A 
ATOM     30  N   UNL     1      43.962   2.377   9.965  0.00  0.00    +0.000 NA
ATOM     31  C   UNL     1      44.516   2.478   8.803  0.00  0.00    +0.000 A 
ATOM     32  N   UNL     1      45.300   3.527   8.400  0.00  0.00    +0.000 N 
ATOM     33  C   UNL     1      45.569   4.610   9.206  0.00  0.00    +0.000 A 
ATOM     34  O   UNL     1      46.236   5.552   8.798  0.00  0.00    +0.000 OA
ATOM     35  C   UNL     1      44.985   4.539  10.529  0.00  0.00    +0.000 A 
ATOM     36  H   UNL     1      45.695   3.552   7.473  0.00  0.00    +0.000 HD
ENDBRANCH  23  26
ENDBRANCH  21  22
ENDBRANCH   4  21
TORSDOF 7
ENDMDL
MODEL 5
REMARK VINA RESULT:    -7.543      2.842      3.647
REMARK INTER + INTRA:         -11.744
REMARK INTER:                 -10.619
REMARK INTRA:                  -1.124
REMARK UNBOUND:                -1.114
REMARK  Name = 
REMARK  7 active torsions:
REMARK  status: ('A' for Active; 'I' for Inactive)
REMARK    1  A    between atoms: C_2  and  C_4
REMARK    2  A    between atoms: C_7  and  N_8
REMARK    3  A    between atoms: N_8  and  C_9
REMARK    4  A    between atoms: C_9  and  C_10
REMARK    5  A    between atoms: C_13  and  C_14
REMARK    6  A    between atoms: C_14  and  N_15
REMARK    7  A    between atoms: C_16  and  C_18
REMARK                            x       y       z     vdW  Elec       q    Type
REMARK                         _______ _______ _______ _____ _____    ______ ____
ROOT
ATOM      1  C   UNL     1      46.336   5.688  12.449  0.00  0.00    +0.000 A 
ATOM      2  C   UNL     1      47.300   6.309  13.255  0.00  0.00    +0.000 A 
ATOM      3  C   UNL     1      47.594   5.810  14.528  0.00  0.00    +0.000 A 
ATOM      4  C   UNL     1      46.947   4.666  15.012  0.00  0.00    +0.000 A 
ATOM      5  C   UNL     1      45.973   4.053  14.211  0.00  0.00    +0.000 A 
ATOM      6  C   UNL     1      45.680   4.550  12.937  0.00  0.00    +0.000 A 
ENDROOT
BRANCH   1   7
ATOM      7  C   UNL     1      45.985   6.267  11.100  0.00  0.00    +0.000 C 
BRANCH   7   8
ATOM      8  N   UNL     1      44.991   5.460  10.409  0.00  0.00    +0.000 N 
ATOM      9  H   UNL     1      44.253   5.099  11.009  0.00  0.00    +0.000 HD
BRANCH   8  13
ATOM     10  C   UNL     1      46.432   2.718   7.526  0.00  0.00    +0.000 A 
ATOM     11  C   UNL     1      45.621   2.265   8.566  0.00  0.00    +0.000 A 
ATOM     12  C   UNL     1      45.129   3.167   9.516  0.00  0.00    +0.000 A 
ATOM     13  C   UNL     1      45.402   4.540   9.438  0.00  0.00    +0.000 A 
ATOM     14  C   UNL     1      46.236   4.975   8.397  0.00  0.00    +0.000 A 
ATOM     15  C   UNL     1      46.753   4.075   7.452  0.00  0.00    +0.000 A 
BRANCH  10  17
ATOM     16  N   UNL     1      47.466   2.322   5.359  0.00  0.00    +0.000 N 
ATOM     17  C   UNL     1      46.995   1.778   6.523  0.00  0.00    +0.000 C 
ATOM     18  O   UNL     1      47.065   0.574   6.732  0.00  0.00    +0.000 OA
ATOM     19  H   UNL     1      47.931   1.688   4.721  0.00  0.00    +0.000 HD
ATOM     20  H   UNL     1      47.652   3.309   5.258  0.00  0.00    +0.000 HD
ENDBRANCH  10  17
ENDBRANCH   8  13
ENDBRANCH   7   8
ENDBRANCH   1   7
BRANCH   4  21
ATOM     21  C   UNL     1      47.272   4.115  16.376  0.00  0.00    +0.000 C 
BRANCH  21  22
ATOM     22  N   UNL     1      48.692   3.950  16.558  0.00  0.00    +0.000 N 
ATOM     23  C   UNL     1      49.307   4.366  17.712  0.00  0.00    +0.000 C 
ATOM     24  O   UNL     1      48.674   4.845  18.649  0.00  0.00    +0.000 OA
ATOM     25  H   UNL     1      49.249   3.781  15.727  0.00  0.00    +0.000 HD
BRANCH  23  26
ATOM     26  C   UNL     1      50.756   4.152  17.799  0.00  0.00    +0.000 A 
ATOM     27  C   UNL     1      51.592   5.223  18.089  0.00  0.00    +0.000 A 
ATOM     28  S   UNL     1      53.239   4.794  18.205  0.00  0.00    +0.000 S 
ATOM     29  C   UNL     1      52.899   3.173  17.817  0.00  0.00    +0.000 A 
ATOM     30  N   UNL     1      53.899   2.255  17.718  0.00  0.00    +0.000 NA
ATOM     31  C   UNL     1      53.505   1.071  17.385  0.00  0.00    +0.000 A 
ATOM     32  N   UNL     1      52.201   0.718  17.153  0.00  0.00    +0.000 N 
ATOM     33  C   UNL     1      51.156   1.605  17.268  0.00  0.00    +0.000 A 
ATOM     34  O   UNL     1      49.999   1.246  17.097  0.00  0.00    +0.000 OA
ATOM     35  C   UNL     1      51.545   2.955  17.623  0.00  0.00    +0.000 A 
ATOM     36  H   UNL     1      51.958  -0.229  16.906  0.00  0.00    +0.000 HD
ENDBRANCH  23  26
ENDBRANCH  21  22
ENDBRANCH   4  21
TORSDOF 7
ENDMDL
MODEL 6
REMARK VINA RESULT:    -7.235      3.799      8.897
REMARK INTER + INTRA:         -11.310
REMARK INTER:                  -9.671
REMARK INTRA:                  -1.639
REMARK UNBOUND:                -1.114
REMARK  Name = 
REMARK  7 active torsions:
REMARK  status: ('A' for Active; 'I' for Inactive)
REMARK    1  A    between atoms: C_2  and  C_4
REMARK    2  A    between atoms: C_7  and  N_8
REMARK    3  A    between atoms: N_8  and  C_9
REMARK    4  A    between atoms: C_9  and  C_10
REMARK    5  A    between atoms: C_13  and  C_14
REMARK    6  A    between atoms: C_14  and  N_15
REMARK    7  A    between atoms: C_16  and  C_18
REMARK                            x       y       z     vdW  Elec       q    Type
REMARK                         _______ _______ _______ _____ _____    ______ ____
ROOT
ATOM      1  C   UNL     1      50.011   8.091  18.192  0.00  0.00    +0.000 A 
ATOM      2  C   UNL     1      48.670   8.486  18.086  0.00  0.00    +0.000 A 
ATOM      3  C   UNL     1      48.105   8.765  16.838  0.00  0.00    +0.000 A 
ATOM      4  C   UNL     1      48.863   8.634  15.668  0.00  0.00    +0.000 A 
ATOM      5  C   UNL     1      50.207   8.252  15.774  0.00  0.00    +0.000 A 
ATOM      6  C   UNL     1      50.773   7.971  17.023  0.00  0.00    +0.000 A 
ENDROOT
BRANCH   1   7
ATOM      7  C   UNL     1      50.627   7.847  19.549  0.00  0.00    +0.000 C 
BRANCH   7   8
ATOM      8  N   UNL     1      50.163   6.599  20.135  0.00  0.00    +0.000 N 
ATOM      9  H   UNL     1      50.389   6.490  21.122  0.00  0.00    +0.000 HD
BRANCH   8  13
ATOM     10  C   UNL     1      50.437   3.086  17.793  0.00  0.00    +0.000 A 
ATOM     11  C   UNL     1      51.601   3.742  18.194  0.00  0.00    +0.000 A 
ATOM     12  C   UNL     1      51.520   4.897  18.980  0.00  0.00    +0.000 A 
ATOM     13  C   UNL     1      50.288   5.407  19.413  0.00  0.00    +0.000 A 
ATOM     14  C   UNL     1      49.128   4.747  18.984  0.00  0.00    +0.000 A 
ATOM     15  C   UNL     1      49.196   3.600  18.177  0.00  0.00    +0.000 A 
BRANCH  10  17
ATOM     16  N   UNL     1      51.428   0.930  17.250  0.00  0.00    +0.000 N 
ATOM     17  C   UNL     1      50.492   1.877  16.931  0.00  0.00    +0.000 C 
ATOM     18  O   UNL     1      49.722   1.715  15.994  0.00  0.00    +0.000 OA
ATOM     19  H   UNL     1      51.398   0.071  16.716  0.00  0.00    +0.000 HD
ATOM     20  H   UNL     1      51.899   0.913  18.142  0.00  0.00    +0.000 HD
ENDBRANCH  10  17
ENDBRANCH   8  13
ENDBRANCH   7   8
ENDBRANCH   1   7
BRANCH   4  21
ATOM     21  C   UNL     1      48.254   8.917  14.319  0.00  0.00    +0.000 C 
BRANCH  21  22
ATOM     22  N   UNL     1      47.284   7.916  13.952  0.00  0.00    +0.000 N 
ATOM     23  C   UNL     1      47.665   6.773  13.297  0.00  0.00    +0.000 C 
ATOM     24  O   UNL     1      48.842   6.532  13.042  0.00  0.00    +0.000 OA
ATOM     25  H   UNL     1      46.309   8.199  13.940  0.00  0.00    +0.000 HD
BRANCH  23  26
ATOM     26  C   UNL     1      46.601   5.816  12.969  0.00  0.00    +0.000 A 
ATOM     27  C   UNL     1      46.776   4.469  13.260  0.00  0.00    +0.000 A 
ATOM     28  S   UNL     1      45.428   3.503  12.863  0.00  0.00    +0.000 S 
ATOM     29  C   UNL     1      44.585   4.841  12.238  0.00  0.00    +0.000 A 
ATOM     30  N   UNL     1      43.345   4.695  11.697  0.00  0.00    +0.000 NA
ATOM     31  C   UNL     1      42.833   5.785  11.231  0.00  0.00    +0.000 A 
ATOM     32  N   UNL     1      43.445   7.011  11.265  0.00  0.00    +0.000 N 
ATOM     33  C   UNL     1      44.685   7.211  11.826  0.00  0.00    +0.000 A 
ATOM     34  O   UNL     1      45.182   8.328  11.879  0.00  0.00    +0.000 OA
ATOM     35  C   UNL     1      45.312   6.015  12.349  0.00  0.00    +0.000 A 
ATOM     36  H   UNL     1      42.986   7.828  10.892  0.00  0.00    +0.000 HD
ENDBRANCH  23  26
ENDBRANCH  21  22
ENDBRANCH   4  21
TORSDOF 7
ENDMDL
MODEL 7
REMARK VINA RESULT:    -7.192      5.186      8.291
REMARK INTER + INTRA:         -11.250
REMARK INTER:                 -10.176
REMARK INTRA:                  -1.073
REMARK UNBOUND:                -1.114
REMARK  Name = 
REMARK  7 active torsions:
REMARK  status: ('A' for Active; 'I' for Inactive)
REMARK    1  A    between atoms: C_2  and  C_4
REMARK    2  A    between atoms: C_7  and  N_8
REMARK    3  A    between atoms: N_8  and  C_9
REMARK    4  A    between atoms: C_9  and  C_10
REMARK    5  A    between atoms: C_13  and  C_14
REMARK    6  A    between atoms: C_14  and  N_15
REMARK    7  A    between atoms: C_16  and  C_18
REMARK                            x       y       z     vdW  Elec       q    Type
REMARK                         _______ _______ _______ _____ _____    ______ ____
ROOT
ATOM      1  C   UNL     1      50.556   8.875  11.296  0.00  0.00    +0.000 A 
ATOM      2  C   UNL     1      50.110   7.604  11.685  0.00  0.00    +0.000 A 
ATOM      3  C   UNL     1      48.833   7.431  12.227  0.00  0.00    +0.000 A 
ATOM      4  C   UNL     1      47.966   8.521  12.370  0.00  0.00    +0.000 A 
ATOM      5  C   UNL     1      48.416   9.795  11.993  0.00  0.00    +0.000 A 
ATOM      6  C   UNL     1      49.693   9.968  11.450  0.00  0.00    +0.000 A 
ENDROOT
BRANCH   1   7
ATOM      7  C   UNL     1      51.957   9.060  10.766  0.00  0.00    +0.000 C 
BRANCH   7   8
ATOM      8  N   UNL     1      52.764   7.864  10.945  0.00  0.00    +0.000 N 
ATOM      9  H   UNL     1      53.549   7.978  11.583  0.00  0.00    +0.000 HD
BRANCH   8  13
ATOM     10  C   UNL     1      53.606   5.299   7.686  0.00  0.00    +0.000 A 
ATOM     11  C   UNL     1      52.844   6.449   7.481  0.00  0.00    +0.000 A 
ATOM     12  C   UNL     1      52.572   7.310   8.551  0.00  0.00    +0.000 A 
ATOM     13  C   UNL     1      53.076   7.068   9.836  0.00  0.00    +0.000 A 
ATOM     14  C   UNL     1      53.823   5.897  10.028  0.00  0.00    +0.000 A 
ATOM     15  C   UNL     1      54.083   5.014   8.968  0.00  0.00    +0.000 A 
BRANCH  10  17
ATOM     16  N   UNL     1      54.196   3.064   6.924  0.00  0.00    +0.000 N 
ATOM     17  C   UNL     1      53.882   4.350   6.576  0.00  0.00    +0.000 C 
ATOM     18  O   UNL     1      53.806   4.688   5.403  0.00  0.00    +0.000 OA
ATOM     19  H   UNL     1      54.293   2.403   6.163  0.00  0.00    +0.000 HD
ATOM     20  H   UNL     1      54.027   2.695   7.847  0.00  0.00    +0.000 HD
ENDBRANCH  10  17
ENDBRANCH   8  13
ENDBRANCH   7   8
ENDBRANCH   1   7
BRANCH   4  21
ATOM     21  C   UNL     1      46.582   8.338  12.938  0.00  0.00    +0.000 C 
BRANCH  21  22
ATOM     22  N   UNL     1      46.070   7.017  12.674  0.00  0.00    +0.000 N 
ATOM     23  C   UNL     1      45.065   6.821  11.762  0.00  0.00    +0.000 C 
ATOM     24  O   UNL     1      44.598   7.745  11.101  0.00  0.00    +0.000 OA
ATOM     25  H   UNL     1      46.271   6.296  13.361  0.00  0.00    +0.000 HD
BRANCH  23  26
ATOM     26  C   UNL     1      44.615   5.438  11.565  0.00  0.00    +0.000 A 
ATOM     27  C   UNL     1      43.886   4.804  12.563  0.00  0.00    +0.000 A 
ATOM     28  S   UNL     1      43.398   3.221  12.155  0.00  0.00    +0.000 S 
ATOM     29  C   UNL     1      44.191   3.307  10.652  0.00  0.00    +0.000 A 
ATOM     30  N   UNL     1      44.188   2.246   9.800  0.00  0.00    +0.000 NA
ATOM     31  C   UNL     1      44.855   2.435   8.710  0.00  0.00    +0.000 A 
ATOM     32  N   UNL     1      45.516   3.592   8.390  0.00  0.00    +0.000 N 
ATOM     33  C   UNL     1      45.522   4.699   9.207  0.00  0.00    +0.000 A 
ATOM     34  O   UNL     1      46.085   5.731   8.869  0.00  0.00    +0.000 OA
ATOM     35  C   UNL     1      44.802   4.534  10.454  0.00  0.00    +0.000 A 
ATOM     36  H   UNL     1      46.010   3.680   7.516  0.00  0.00    +0.000 HD
ENDBRANCH  23  26
ENDBRANCH  21  22
ENDBRANCH   4  21
TORSDOF 7
ENDMDL
MODEL 8
REMARK VINA RESULT:    -6.975      3.923      8.292
REMARK INTER + INTRA:         -10.943
REMARK INTER:                  -8.443
REMARK INTRA:                  -2.500
REMARK UNBOUND:                -1.114
REMARK  Name = 
REMARK  7 active torsions:
REMARK  status: ('A' for Active; 'I' for Inactive)
REMARK    1  A    between atoms: C_2  and  C_4
REMARK    2  A    between atoms: C_7  and  N_8
REMARK    3  A    between atoms: N_8  and  C_9
REMARK    4  A    between atoms: C_9  and  C_10
REMARK    5  A    between atoms: C_13  and  C_14
REMARK    6  A    between atoms: C_14  and  N_15
REMARK    7  A    between atoms: C_16  and  C_18
REMARK                            x       y       z     vdW  Elec       q    Type
REMARK                         _______ _______ _______ _____ _____    ______ ____
ROOT
ATOM      1  C   UNL     1      50.739   8.876  16.153  0.00  0.00    +0.000 A 
ATOM      2  C   UNL     1      51.096   8.177  14.992  0.00  0.00    +0.000 A 
ATOM      3  C   UNL     1      50.362   8.330  13.812  0.00  0.00    +0.000 A 
ATOM      4  C   UNL     1      49.269   9.203  13.761  0.00  0.00    +0.000 A 
ATOM      5  C   UNL     1      48.902   9.893  14.926  0.00  0.00    +0.000 A 
ATOM      6  C   UNL     1      49.637   9.741  16.106  0.00  0.00    +0.000 A 
ENDROOT
BRANCH   1   7
ATOM      7  C   UNL     1      51.502   8.661  17.437  0.00  0.00    +0.000 C 
BRANCH   7   8
ATOM      8  N   UNL     1      50.702   7.959  18.429  0.00  0.00    +0.000 N 
ATOM      9  H   UNL     1      51.093   7.972  19.369  0.00  0.00    +0.000 HD
BRANCH   8  13
ATOM     10  C   UNL     1      48.847   4.338  17.266  0.00  0.00    +0.000 A 
ATOM     11  C   UNL     1      50.237   4.401  17.366  0.00  0.00    +0.000 A 
ATOM     12  C   UNL     1      50.858   5.591  17.763  0.00  0.00    +0.000 A 
ATOM     13  C   UNL     1      50.115   6.731  18.100  0.00  0.00    +0.000 A 
ATOM     14  C   UNL     1      48.721   6.655  17.974  0.00  0.00    +0.000 A 
ATOM     15  C   UNL     1      48.089   5.474  17.555  0.00  0.00    +0.000 A 
BRANCH  10  17
ATOM     16  N   UNL     1      47.041   2.724  17.502  0.00  0.00    +0.000 N 
ATOM     17  C   UNL     1      48.164   3.098  16.815  0.00  0.00    +0.000 C 
ATOM     18  O   UNL     1      48.564   2.451  15.856  0.00  0.00    +0.000 OA
ATOM     19  H   UNL     1      46.530   1.932  17.132  0.00  0.00    +0.000 HD
ATOM     20  H   UNL     1      46.550   3.352  18.121  0.00  0.00    +0.000 HD
ENDBRANCH  10  17
ENDBRANCH   8  13
ENDBRANCH   7   8
ENDBRANCH   1   7
BRANCH   4  21
ATOM     21  C   UNL     1      48.485   9.385  12.487  0.00  0.00    +0.000 C 
BRANCH  21  22
ATOM     22  N   UNL     1      47.671   8.232  12.194  0.00  0.00    +0.000 N 
ATOM     23  C   UNL     1      46.369   8.163  12.620  0.00  0.00    +0.000 C 
ATOM     24  O   UNL     1      45.831   9.091  13.219  0.00  0.00    +0.000 OA
ATOM     25  H   UNL     1      48.154   7.383  11.919  0.00  0.00    +0.000 HD
BRANCH  23  26
ATOM     26  C   UNL     1      45.626   6.947  12.270  0.00  0.00    +0.000 A 
ATOM     27  C   UNL     1      44.482   7.043  11.487  0.00  0.00    +0.000 A 
ATOM     28  S   UNL     1      43.768   5.536  11.130  0.00  0.00    +0.000 S 
ATOM     29  C   UNL     1      44.930   4.706  12.055  0.00  0.00    +0.000 A 
ATOM     30  N   UNL     1      44.875   3.353  12.193  0.00  0.00    +0.000 NA
ATOM     31  C   UNL     1      45.798   2.857  12.948  0.00  0.00    +0.000 A 
ATOM     32  N   UNL     1      46.776   3.588  13.569  0.00  0.00    +0.000 N 
ATOM     33  C   UNL     1      46.886   4.953  13.436  0.00  0.00    +0.000 A 
ATOM     34  O   UNL     1      47.799   5.569  13.969  0.00  0.00    +0.000 OA
ATOM     35  C   UNL     1      45.864   5.564  12.612  0.00  0.00    +0.000 A 
ATOM     36  H   UNL     1      47.476   3.137  14.138  0.00  0.00    +0.000 HD
ENDBRANCH  23  26
ENDBRANCH  21  22
ENDBRANCH   4  21
TORSDOF 7
ENDMDL
MODEL 9
REMARK VINA RESULT:    -6.974      3.827      8.623
REMARK INTER + INTRA:         -10.942
REMARK INTER:                  -9.298
REMARK INTRA:                  -1.645
REMARK UNBOUND:                -1.114
REMARK  Name = 
REMARK  7 active torsions:
REMARK  status: ('A' for Active; 'I' for Inactive)
REMARK    1  A    between atoms: C_2  and  C_4
REMARK    2  A    between atoms: C_7  and  N_8
REMARK    3  A    between atoms: N_8  and  C_9
REMARK    4  A    between atoms: C_9  and  C_10
REMARK    5  A    between atoms: C_13  and  C_14
REMARK    6  A    between atoms: C_14  and  N_15
REMARK    7  A    between atoms: C_16  and  C_18
REMARK                            x       y       z     vdW  Elec       q    Type
REMARK                         _______ _______ _______ _____ _____    ______ ____
ROOT
ATOM      1  C   UNL     1      49.947   8.023  18.941  0.00  0.00    +0.000 A 
ATOM      2  C   UNL     1      48.626   8.490  18.945  0.00  0.00    +0.000 A 
ATOM      3  C   UNL     1      48.042   8.991  17.778  0.00  0.00    +0.000 A 
ATOM      4  C   UNL     1      48.760   9.016  16.576  0.00  0.00    +0.000 A 
ATOM      5  C   UNL     1      50.087   8.561  16.574  0.00  0.00    +0.000 A 
ATOM      6  C   UNL     1      50.671   8.058  17.741  0.00  0.00    +0.000 A 
ENDROOT
BRANCH   1   7
ATOM      7  C   UNL     1      50.587   7.536  20.218  0.00  0.00    +0.000 C 
BRANCH   7   8
ATOM      8  N   UNL     1      50.131   6.202  20.576  0.00  0.00    +0.000 N 
ATOM      9  H   UNL     1      50.434   5.888  21.495  0.00  0.00    +0.000 HD
BRANCH   8  13
ATOM     10  C   UNL     1      50.303   3.000  17.815  0.00  0.00    +0.000 A 
ATOM     11  C   UNL     1      49.065   3.485  18.234  0.00  0.00    +0.000 A 
ATOM     12  C   UNL     1      48.999   4.553  19.137  0.00  0.00    +0.000 A 
ATOM     13  C   UNL     1      50.155   5.183  19.617  0.00  0.00    +0.000 A 
ATOM     14  C   UNL     1      51.391   4.670  19.200  0.00  0.00    +0.000 A 
ATOM     15  C   UNL     1      51.470   3.585  18.313  0.00  0.00    +0.000 A 
BRANCH  10  17
ATOM     16  N   UNL     1      51.405   0.944  17.120  0.00  0.00    +0.000 N 
ATOM     17  C   UNL     1      50.404   1.847  16.884  0.00  0.00    +0.000 C 
ATOM     18  O   UNL     1      49.615   1.688  15.962  0.00  0.00    +0.000 OA
ATOM     19  H   UNL     1      51.411   0.115  16.539  0.00  0.00    +0.000 HD
ATOM     20  H   UNL     1      51.906   0.907  17.996  0.00  0.00    +0.000 HD
ENDBRANCH  10  17
ENDBRANCH   8  13
ENDBRANCH   7   8
ENDBRANCH   1   7
BRANCH   4  21
ATOM     21  C   UNL     1      48.131   9.540  15.311  0.00  0.00    +0.000 C 
BRANCH  21  22
ATOM     22  N   UNL     1      47.269   8.559  14.701  0.00  0.00    +0.000 N 
ATOM     23  C   UNL     1      47.163   8.467  13.336  0.00  0.00    +0.000 C 
ATOM     24  O   UNL     1      47.829   9.174  12.584  0.00  0.00    +0.000 OA
ATOM     25  H   UNL     1      46.553   8.142  15.287  0.00  0.00    +0.000 HD
BRANCH  23  26
ATOM     26  C   UNL     1      46.259   7.436  12.814  0.00  0.00    +0.000 A 
ATOM     27  C   UNL     1      45.181   7.805  12.020  0.00  0.00    +0.000 A 
ATOM     28  S   UNL     1      44.262   6.484  11.455  0.00  0.00    +0.000 S 
ATOM     29  C   UNL     1      45.240   5.375  12.296  0.00  0.00    +0.000 A 
ATOM     30  N   UNL     1      44.974   4.041  12.259  0.00  0.00    +0.000 NA
ATOM     31  C   UNL     1      45.774   3.317  12.968  0.00  0.00    +0.000 A 
ATOM     32  N   UNL     1      46.823   3.804  13.703  0.00  0.00    +0.000 N 
ATOM     33  C   UNL     1      47.146   5.141  13.748  0.00  0.00    +0.000 A 
ATOM     34  O   UNL     1      48.117   5.536  14.379  0.00  0.00    +0.000 OA
ATOM     35  C   UNL     1      46.267   6.001  12.983  0.00  0.00    +0.000 A 
ATOM     36  H   UNL     1      47.419   3.183  14.228  0.00  0.00    +0.000 HD
ENDBRANCH  23  26
ENDBRANCH  21  22
ENDBRANCH   4  21
TORSDOF 7
ENDMDL
