MODEL 1
REMARK VINA RESULT:    -7.122      0.000      0.000
REMARK INTER + INTRA:          -9.489
REMARK INTER:                  -8.788
REMARK INTRA:                  -0.701
REMARK UNBOUND:                -0.701
REMARK  Name = 
REMARK  4 active torsions:
REMARK  status: ('A' for Active; 'I' for Inactive)
REMARK    1  A    between atoms: C_2  and  C_4
REMARK    2  A    between atoms: C_8  and  C_9
REMARK    3  A    between atoms: C_10  and  C_11
REMARK    4  A    between atoms: C_16  and  N_17
REMARK                            x       y       z     vdW  Elec       q    Type
REMARK                         _______ _______ _______ _____ _____    ______ ____
ROOT
ATOM      1  C   UNL     1      46.639   5.392  14.267  0.00  0.00    +0.000 C 
ATOM      2  C   UNL     1      46.235   4.338  13.541  0.00  0.00    +0.000 C 
ENDROOT
BRANCH   2   3
ATOM      3  C   UNL     1      45.140   4.380  12.556  0.00  0.00    +0.000 A 
ATOM      4  C   UNL     1      43.946   5.062  12.787  0.00  0.00    +0.000 A 
ATOM      5  C   UNL     1      42.985   5.119  11.786  0.00  0.00    +0.000 A 
ATOM      6  F   UNL     1      41.839   5.772  12.018  0.00  0.00    +0.000 F 
ATOM      7  C   UNL     1      43.192   4.519  10.547  0.00  0.00    +0.000 A 
ATOM      8  C   UNL     1      44.374   3.826  10.272  0.00  0.00    +0.000 A 
ATOM      9  C   UNL     1      45.336   3.779  11.300  0.00  0.00    +0.000 A 
BRANCH   8  10
ATOM     10  N   UNL     1      44.615   3.226   9.049  0.00  0.00    +0.000 N 
ATOM     11  C   UNL     1      44.755   1.776   8.900  0.00  0.00    +0.000 C 
ATOM     12  C   UNL     1      46.171   1.423   8.452  0.00  0.00    +0.000 C 
ATOM     13  C   UNL     1      46.573   2.213   7.208  0.00  0.00    +0.000 C 
ATOM     14  C   UNL     1      46.381   3.711   7.427  0.00  0.00    +0.000 C 
ATOM     15  C   UNL     1      44.955   4.032   7.874  0.00  0.00    +0.000 C 
ENDBRANCH   8  10
ENDBRANCH   2   3
BRANCH   1  20
ATOM     16  C   UNL     1      48.942   4.509  17.146  0.00  0.00    +0.000 A 
ATOM     17  C   UNL     1      49.865   5.532  16.983  0.00  0.00    +0.000 A 
ATOM     18  N   UNL     1      49.798   6.450  15.989  0.00  0.00    +0.000 NA
ATOM     19  C   UNL     1      48.750   6.344  15.140  0.00  0.00    +0.000 A 
ATOM     20  C   UNL     1      47.756   5.368  15.221  0.00  0.00    +0.000 A 
ATOM     21  C   UNL     1      47.860   4.440  16.262  0.00  0.00    +0.000 A 
BRANCH  16  23
ATOM     22  N   UNL     1      50.128   2.633  18.124  0.00  0.00    +0.000 N 
ATOM     23  C   UNL     1      49.126   3.553  18.255  0.00  0.00    +0.000 C 
ATOM     24  O   UNL     1      48.441   3.607  19.269  0.00  0.00    +0.000 OA
ATOM     25  H   UNL     1      50.318   2.061  18.939  0.00  0.00    +0.000 HD
ATOM     26  H   UNL     1      50.866   2.727  17.441  0.00  0.00    +0.000 HD
ENDBRANCH  16  23
ENDBRANCH   1  20
TORSDOF 4
ENDMDL
MODEL 2
REMARK VINA RESULT:    -7.041      1.102      1.795
REMARK INTER + INTRA:          -9.388
REMARK INTER:                  -8.717
REMARK INTRA:                  -0.671
REMARK UNBOUND:                -0.701
REMARK  Name = 
REMARK  4 active torsions:
REMARK  status: ('A' for Active; 'I' for Inactive)
REMARK    1  A    between atoms: C_2  and  C_4
REMARK    2  A    between atoms: C_8  and  C_9
REMARK    3  A    between atoms: C_10  and  C_11
REMARK    4  A    between atoms: C_16  and  N_17
REMARK                            x       y       z     vdW  Elec       q    Type
REMARK                         _______ _______ _______ _____ _____    ______ ____
ROOT
ATOM      1  C   UNL     1      46.571   4.645  14.799  0.00  0.00    +0.000 C 
ATOM      2  C   UNL     1      46.376   3.878  13.715  0.00  0.00    +0.000 C 
ENDROOT
BRANCH   2   3
ATOM      3  C   UNL     1      45.286   4.076  12.745  0.00  0.00    +0.000 A 
ATOM      4  C   UNL     1      44.142   4.819  13.038  0.00  0.00    +0.000 A 
ATOM      5  C   UNL     1      43.187   5.023  12.052  0.00  0.00    +0.000 A 
ATOM      6  F   UNL     1      42.089   5.733  12.344  0.00  0.00    +0.000 F 
ATOM      7  C   UNL     1      43.349   4.511  10.767  0.00  0.00    +0.000 A 
ATOM      8  C   UNL     1      44.479   3.762  10.430  0.00  0.00    +0.000 A 
ATOM      9  C   UNL     1      45.437   3.566  11.443  0.00  0.00    +0.000 A 
BRANCH   8  10
ATOM     10  N   UNL     1      44.675   3.247   9.161  0.00  0.00    +0.000 N 
ATOM     11  C   UNL     1      44.750   1.807   8.900  0.00  0.00    +0.000 C 
ATOM     12  C   UNL     1      46.143   1.430   8.402  0.00  0.00    +0.000 C 
ATOM     13  C   UNL     1      46.560   2.294   7.213  0.00  0.00    +0.000 C 
ATOM     14  C   UNL     1      46.438   3.778   7.548  0.00  0.00    +0.000 C 
ATOM     15  C   UNL     1      45.033   4.124   8.043  0.00  0.00    +0.000 C 
ENDBRANCH   8  10
ENDBRANCH   2   3
BRANCH   1  20
ATOM     16  C   UNL     1      49.511   5.295  17.102  0.00  0.00    +0.000 A 
ATOM     17  C   UNL     1      49.787   3.980  17.448  0.00  0.00    +0.000 A 
ATOM     18  N   UNL     1      49.064   2.922  17.009  0.00  0.00    +0.000 NA
ATOM     19  C   UNL     1      48.034   3.200  16.175  0.00  0.00    +0.000 A 
ATOM     20  C   UNL     1      47.680   4.480  15.750  0.00  0.00    +0.000 A 
ATOM     21  C   UNL     1      48.452   5.546  16.223  0.00  0.00    +0.000 A 
BRANCH  16  23
ATOM     22  N   UNL     1      51.529   6.639  17.009  0.00  0.00    +0.000 N 
ATOM     23  C   UNL     1      50.356   6.371  17.657  0.00  0.00    +0.000 C 
ATOM     24  O   UNL     1      50.003   7.026  18.630  0.00  0.00    +0.000 OA
ATOM     25  H   UNL     1      52.040   7.454  17.329  0.00  0.00    +0.000 HD
ATOM     26  H   UNL     1      51.719   6.311  16.072  0.00  0.00    +0.000 HD
ENDBRANCH  16  23
ENDBRANCH   1  20
TORSDOF 4
ENDMDL
MODEL 3
REMARK VINA RESULT:    -6.876      4.332      5.321
REMARK INTER + INTRA:          -9.185
REMARK INTER:                  -8.464
REMARK INTRA:                  -0.721
REMARK UNBOUND:                -0.701
REMARK  Name = 
REMARK  4 active torsions:
REMARK  status: ('A' for Active; 'I' for Inactive)
REMARK    1  A    between atoms: C_2  and  C_4
REMARK    2  A    between atoms: C_8  and  C_9
REMARK    3  A    between atoms: C_10  and  C_11
REMARK    4  A    between atoms: C_16  and  N_17
REMARK                            x       y       z     vdW  Elec       q    Type
REMARK                         _______ _______ _______ _____ _____    ______ ____
ROOT
ATOM      1  C   UNL     1      46.803   6.890  12.067  0.00  0.00    +0.000 C 
ATOM      2  C   UNL     1      45.724   6.576  11.332  0.00  0.00    +0.000 C 
ENDROOT
BRANCH   2   3
ATOM      3  C   UNL     1      45.223   5.204  11.142  0.00  0.00    +0.000 A 
ATOM      4  C   UNL     1      44.450   4.544  12.097  0.00  0.00    +0.000 A 
ATOM      5  C   UNL     1      43.953   3.278  11.821  0.00  0.00    +0.000 A 
ATOM      6  F   UNL     1      43.216   2.650  12.746  0.00  0.00    +0.000 F 
ATOM      7  C   UNL     1      44.199   2.652  10.602  0.00  0.00    +0.000 A 
ATOM      8  C   UNL     1      44.968   3.276   9.615  0.00  0.00    +0.000 A 
ATOM      9  C   UNL     1      45.463   4.560   9.914  0.00  0.00    +0.000 A 
BRANCH   8  10
ATOM     10  N   UNL     1      45.223   2.686   8.391  0.00  0.00    +0.000 N 
ATOM     11  C   UNL     1      45.679   1.299   8.267  0.00  0.00    +0.000 C 
ATOM     12  C   UNL     1      47.090   1.255   7.685  0.00  0.00    +0.000 C 
ATOM     13  C   UNL     1      47.178   2.052   6.384  0.00  0.00    +0.000 C 
ATOM     14  C   UNL     1      46.668   3.476   6.581  0.00  0.00    +0.000 C 
ATOM     15  C   UNL     1      45.255   3.487   7.165  0.00  0.00    +0.000 C 
ENDBRANCH   8  10
ENDBRANCH   2   3
BRANCH   1  20
ATOM     16  C   UNL     1      47.133  10.667  12.120  0.00  0.00    +0.000 A 
ATOM     17  C   UNL     1      48.385  10.748  12.712  0.00  0.00    +0.000 A 
ATOM     18  N   UNL     1      49.095   9.667  13.116  0.00  0.00    +0.000 NA
ATOM     19  C   UNL     1      48.529   8.457  12.897  0.00  0.00    +0.000 A 
ATOM     20  C   UNL     1      47.286   8.259  12.296  0.00  0.00    +0.000 A 
ATOM     21  C   UNL     1      46.585   9.400  11.891  0.00  0.00    +0.000 A 
BRANCH  16  23
ATOM     22  N   UNL     1      45.139  12.047  12.124  0.00  0.00    +0.000 N 
ATOM     23  C   UNL     1      46.443  11.913  11.738  0.00  0.00    +0.000 C 
ATOM     24  O   UNL     1      47.024  12.810  11.139  0.00  0.00    +0.000 OA
ATOM     25  H   UNL     1      44.715  12.953  11.958  0.00  0.00    +0.000 HD
ATOM     26  H   UNL     1      44.719  11.461  12.832  0.00  0.00    +0.000 HD
ENDBRANCH  16  23
ENDBRANCH   1  20
TORSDOF 4
ENDMDL
MODEL 4
REMARK VINA RESULT:    -6.785      3.831      9.189
REMARK INTER + INTRA:          -9.073
REMARK INTER:                  -8.369
REMARK INTRA:                  -0.704
REMARK UNBOUND:                -0.701
REMARK  Name = 
REMARK  4 active torsions:
REMARK  status: ('A' for Active; 'I' for Inactive)
REMARK    1  A    between atoms: C_2  and  C_4
REMARK    2  A    between atoms: C_8  and  C_9
REMARK    3  A    between atoms: C_10  and  C_11
REMARK    4  A    between atoms: C_16  and  N_17
REMARK                            x       y       z     vdW  Elec       q    Type
REMARK                         _______ _______ _______ _____ _____    ______ ____
ROOT
ATOM      1  C   UNL     1      47.013   5.102  14.182  0.00  0.00    +0.000 C 
ATOM      2  C   UNL     1      46.766   4.212  15.156  0.00  0.00    +0.000 C 
ENDROOT
BRANCH   2   3
ATOM      3  C   UNL     1      47.703   3.895  16.247  0.00  0.00    +0.000 A 
ATOM      4  C   UNL     1      48.525   2.768  16.232  0.00  0.00    +0.000 A 
ATOM      5  C   UNL     1      49.435   2.570  17.261  0.00  0.00    +0.000 A 
ATOM      6  F   UNL     1      50.216   1.482  17.241  0.00  0.00    +0.000 F 
ATOM      7  C   UNL     1      49.556   3.480  18.307  0.00  0.00    +0.000 A 
ATOM      8  C   UNL     1      48.754   4.623  18.362  0.00  0.00    +0.000 A 
ATOM      9  C   UNL     1      47.837   4.807  17.309  0.00  0.00    +0.000 A 
BRANCH   8  10
ATOM     10  N   UNL     1      48.857   5.552  19.383  0.00  0.00    +0.000 N 
ATOM     11  C   UNL     1      48.652   5.197  20.790  0.00  0.00    +0.000 C 
ATOM     12  C   UNL     1      47.420   5.909  21.343  0.00  0.00    +0.000 C 
ATOM     13  C   UNL     1      47.489   7.415  21.089  0.00  0.00    +0.000 C 
ATOM     14  C   UNL     1      47.723   7.709  19.610  0.00  0.00    +0.000 C 
ATOM     15  C   UNL     1      48.963   6.982  19.087  0.00  0.00    +0.000 C 
ENDBRANCH   8  10
ENDBRANCH   2   3
BRANCH   1  20
ATOM     16  C   UNL     1      44.656   4.943  11.217  0.00  0.00    +0.000 A 
ATOM     17  C   UNL     1      44.389   6.300  11.103  0.00  0.00    +0.000 A 
ATOM     18  N   UNL     1      44.896   7.237  11.940  0.00  0.00    +0.000 NA
ATOM     19  C   UNL     1      45.718   6.790  12.918  0.00  0.00    +0.000 A 
ATOM     20  C   UNL     1      46.067   5.453  13.113  0.00  0.00    +0.000 A 
ATOM     21  C   UNL     1      45.525   4.517  12.227  0.00  0.00    +0.000 A 
BRANCH  16  23
ATOM     22  N   UNL     1      44.012   4.387   8.945  0.00  0.00    +0.000 N 
ATOM     23  C   UNL     1      44.032   4.011  10.259  0.00  0.00    +0.000 C 
ATOM     24  O   UNL     1      43.589   2.926  10.616  0.00  0.00    +0.000 OA
ATOM     25  H   UNL     1      43.688   3.689   8.286  0.00  0.00    +0.000 HD
ATOM     26  H   UNL     1      44.592   5.132   8.585  0.00  0.00    +0.000 HD
ENDBRANCH  16  23
ENDBRANCH   1  20
TORSDOF 4
ENDMDL
MODEL 5
REMARK VINA RESULT:    -6.765      4.153      4.609
REMARK INTER + INTRA:          -9.048
REMARK INTER:                  -8.325
REMARK INTRA:                  -0.723
REMARK UNBOUND:                -0.701
REMARK  Name = 
REMARK  4 active torsions:
REMARK  status: ('A' for Active; 'I' for Inactive)
REMARK    1  A    between atoms: C_2  and  C_4
REMARK    2  A    between atoms: C_8  and  C_9
REMARK    3  A    between atoms: C_10  and  C_11
REMARK    4  A    between atoms: C_16  and  N_17
REMARK                            x       y       z     vdW  Elec       q    Type
REMARK                         _______ _______ _______ _____ _____    ______ ____
ROOT
ATOM      1  C   UNL     1      47.708   6.988  11.629  0.00  0.00    +0.000 C 
ATOM      2  C   UNL     1      46.544   6.894  12.292  0.00  0.00    +0.000 C 
ENDROOT
BRANCH   2   3
ATOM      3  C   UNL     1      45.577   5.797  12.118  0.00  0.00    +0.000 A 
ATOM      4  C   UNL     1      44.634   5.462  13.089  0.00  0.00    +0.000 A 
ATOM      5  C   UNL     1      43.708   4.462  12.828  0.00  0.00    +0.000 A 
ATOM      6  F   UNL     1      42.810   4.143  13.769  0.00  0.00    +0.000 F 
ATOM      7  C   UNL     1      43.689   3.790  11.609  0.00  0.00    +0.000 A 
ATOM      8  C   UNL     1      44.614   4.095  10.606  0.00  0.00    +0.000 A 
ATOM      9  C   UNL     1      45.546   5.112  10.890  0.00  0.00    +0.000 A 
BRANCH   8  10
ATOM     10  N   UNL     1      44.617   3.453   9.381  0.00  0.00    +0.000 N 
ATOM     11  C   UNL     1      44.599   1.993   9.259  0.00  0.00    +0.000 C 
ATOM     12  C   UNL     1      45.896   1.498   8.624  0.00  0.00    +0.000 C 
ATOM     13  C   UNL     1      46.183   2.223   7.310  0.00  0.00    +0.000 C 
ATOM     14  C   UNL     1      46.166   3.736   7.507  0.00  0.00    +0.000 C 
ATOM     15  C   UNL     1      44.856   4.201   8.144  0.00  0.00    +0.000 C 
ENDBRANCH   8  10
ENDBRANCH   2   3
BRANCH   1  20
ATOM     16  C   UNL     1      50.947   8.943  11.875  0.00  0.00    +0.000 A 
ATOM     17  C   UNL     1      50.422  10.138  12.345  0.00  0.00    +0.000 A 
ATOM     18  N   UNL     1      49.099  10.348  12.548  0.00  0.00    +0.000 NA
ATOM     19  C   UNL     1      48.276   9.305  12.286  0.00  0.00    +0.000 A 
ATOM     20  C   UNL     1      48.697   8.057  11.827  0.00  0.00    +0.000 A 
ATOM     21  C   UNL     1      50.071   7.880  11.632  0.00  0.00    +0.000 A 
BRANCH  16  23
ATOM     22  N   UNL     1      52.942   7.579  11.675  0.00  0.00    +0.000 N 
ATOM     23  C   UNL     1      52.404   8.835  11.672  0.00  0.00    +0.000 C 
ATOM     24  O   UNL     1      53.098   9.823  11.465  0.00  0.00    +0.000 OA
ATOM     25  H   UNL     1      53.921   7.512  11.419  0.00  0.00    +0.000 HD
ATOM     26  H   UNL     1      52.379   6.747  11.576  0.00  0.00    +0.000 HD
ENDBRANCH  16  23
ENDBRANCH   1  20
TORSDOF 4
ENDMDL
MODEL 6
REMARK VINA RESULT:    -6.763      5.136      8.525
REMARK INTER + INTRA:          -9.046
REMARK INTER:                  -8.354
REMARK INTRA:                  -0.692
REMARK UNBOUND:                -0.701
REMARK  Name = 
REMARK  4 active torsions:
REMARK  status: ('A' for Active; 'I' for Inactive)
REMARK    1  A    between atoms: C_2  and  C_4
REMARK    2  A    between atoms: C_8  and  C_9
REMARK    3  A    between atoms: C_10  and  C_11
REMARK    4  A    between atoms: C_16  and  N_17
REMARK                            x       y       z     vdW  Elec       q    Type
REMARK                         _______ _______ _______ _____ _____    ______ ____
ROOT
ATOM      1  C   UNL     1      45.470   5.466   9.702  0.00  0.00    +0.000 C 
ATOM      2  C   UNL     1      45.713   5.755  10.990  0.00  0.00    +0.000 C 
ENDROOT
BRANCH   2   3
ATOM      3  C   UNL     1      45.509   7.082  11.594  0.00  0.00    +0.000 A 
ATOM      4  C   UNL     1      46.214   7.516  12.716  0.00  0.00    +0.000 A 
ATOM      5  C   UNL     1      46.021   8.806  13.191  0.00  0.00    +0.000 A 
ATOM      6  F   UNL     1      46.698   9.213  14.272  0.00  0.00    +0.000 F 
ATOM      7  C   UNL     1      45.144   9.687  12.563  0.00  0.00    +0.000 A 
ATOM      8  C   UNL     1      44.417   9.294  11.435  0.00  0.00    +0.000 A 
ATOM      9  C   UNL     1      44.627   7.982  10.969  0.00  0.00    +0.000 A 
BRANCH   8  10
ATOM     10  N   UNL     1      43.545  10.147  10.782  0.00  0.00    +0.000 N 
ATOM     11  C   UNL     1      43.876  11.546  10.503  0.00  0.00    +0.000 C 
ATOM     12  C   UNL     1      42.946  12.477  11.277  0.00  0.00    +0.000 C 
ATOM     13  C   UNL     1      41.479  12.128  11.027  0.00  0.00    +0.000 C 
ATOM     14  C   UNL     1      41.211  10.655  11.318  0.00  0.00    +0.000 C 
ATOM     15  C   UNL     1      42.158   9.749  10.528  0.00  0.00    +0.000 C 
ENDBRANCH   8  10
ENDBRANCH   2   3
BRANCH   1  20
ATOM     16  C   UNL     1      46.505   2.596   7.451  0.00  0.00    +0.000 A 
ATOM     17  C   UNL     1      45.742   1.598   8.039  0.00  0.00    +0.000 A 
ATOM     18  N   UNL     1      44.955   1.796   9.123  0.00  0.00    +0.000 NA
ATOM     19  C   UNL     1      44.920   3.055   9.622  0.00  0.00    +0.000 A 
ATOM     20  C   UNL     1      45.633   4.135   9.100  0.00  0.00    +0.000 A 
ATOM     21  C   UNL     1      46.433   3.890   7.980  0.00  0.00    +0.000 A 
BRANCH  16  23
ATOM     22  N   UNL     1      47.184   3.023   5.162  0.00  0.00    +0.000 N 
ATOM     23  C   UNL     1      47.343   2.260   6.284  0.00  0.00    +0.000 C 
ATOM     24  O   UNL     1      48.176   1.364   6.330  0.00  0.00    +0.000 OA
ATOM     25  H   UNL     1      47.845   2.857   4.411  0.00  0.00    +0.000 HD
ATOM     26  H   UNL     1      46.712   3.916   5.175  0.00  0.00    +0.000 HD
ENDBRANCH  16  23
ENDBRANCH   1  20
TORSDOF 4
ENDMDL
MODEL 7
REMARK VINA RESULT:    -6.653      4.252      4.765
REMARK INTER + INTRA:          -8.910
REMARK INTER:                  -8.148
REMARK INTRA:                  -0.763
REMARK UNBOUND:                -0.701
REMARK  Name = 
REMARK  4 active torsions:
REMARK  status: ('A' for Active; 'I' for Inactive)
REMARK    1  A    between atoms: C_2  and  C_4
REMARK    2  A    between atoms: C_8  and  C_9
REMARK    3  A    between atoms: C_10  and  C_11
REMARK    4  A    between atoms: C_16  and  N_17
REMARK                            x       y       z     vdW  Elec       q    Type
REMARK                         _______ _______ _______ _____ _____    ______ ____
ROOT
ATOM      1  C   UNL     1      47.869   7.109  11.690  0.00  0.00    +0.000 C 
ATOM      2  C   UNL     1      46.602   7.166  12.130  0.00  0.00    +0.000 C 
ENDROOT
BRANCH   2   3
ATOM      3  C   UNL     1      45.606   6.100  11.929  0.00  0.00    +0.000 A 
ATOM      4  C   UNL     1      44.587   5.838  12.844  0.00  0.00    +0.000 A 
ATOM      5  C   UNL     1      43.641   4.864  12.557  0.00  0.00    +0.000 A 
ATOM      6  F   UNL     1      42.670   4.615  13.445  0.00  0.00    +0.000 F 
ATOM      7  C   UNL     1      43.678   4.146  11.364  0.00  0.00    +0.000 A 
ATOM      8  C   UNL     1      44.680   4.377  10.417  0.00  0.00    +0.000 A 
ATOM      9  C   UNL     1      45.631   5.369  10.728  0.00  0.00    +0.000 A 
BRANCH   8  10
ATOM     10  N   UNL     1      44.740   3.688   9.219  0.00  0.00    +0.000 N 
ATOM     11  C   UNL     1      44.535   2.240   9.135  0.00  0.00    +0.000 C 
ATOM     12  C   UNL     1      45.818   1.548   8.679  0.00  0.00    +0.000 C 
ATOM     13  C   UNL     1      46.357   2.171   7.392  0.00  0.00    +0.000 C 
ATOM     14  C   UNL     1      46.525   3.680   7.545  0.00  0.00    +0.000 C 
ATOM     15  C   UNL     1      45.225   4.343   8.002  0.00  0.00    +0.000 C 
ENDBRANCH   8  10
ENDBRANCH   2   3
BRANCH   1  20
ATOM     16  C   UNL     1      49.623  10.307  12.723  0.00  0.00    +0.000 A 
ATOM     17  C   UNL     1      50.869  10.036  12.178  0.00  0.00    +0.000 A 
ATOM     18  N   UNL     1      51.171   8.881  11.538  0.00  0.00    +0.000 NA
ATOM     19  C   UNL     1      50.173   7.973  11.426  0.00  0.00    +0.000 A 
ATOM     20  C   UNL     1      48.880   8.150  11.921  0.00  0.00    +0.000 A 
ATOM     21  C   UNL     1      48.607   9.356  12.574  0.00  0.00    +0.000 A 
BRANCH  16  23
ATOM     22  N   UNL     1      48.499  11.611  14.433  0.00  0.00    +0.000 N 
ATOM     23  C   UNL     1      49.413  11.593  13.417  0.00  0.00    +0.000 C 
ATOM     24  O   UNL     1      50.060  12.591  13.126  0.00  0.00    +0.000 OA
ATOM     25  H   UNL     1      48.451  12.466  14.975  0.00  0.00    +0.000 HD
ATOM     26  H   UNL     1      48.153  10.767  14.867  0.00  0.00    +0.000 HD
ENDBRANCH  16  23
ENDBRANCH   1  20
TORSDOF 4
ENDMDL
MODEL 8
REMARK VINA RESULT:    -6.233      3.604      8.972
REMARK INTER + INTRA:          -8.391
REMARK INTER:                  -7.649
REMARK INTRA:                  -0.743
REMARK UNBOUND:                -0.701
REMARK  Name = 
REMARK  4 active torsions:
REMARK  status: ('A' for Active; 'I' for Inactive)
REMARK    1  A    between atoms: C_2  and  C_4
REMARK    2  A    between atoms: C_8  and  C_9
REMARK    3  A    between atoms: C_10  and  C_11
REMARK    4  A    between atoms: C_16  and  N_17
REMARK                            x       y       z     vdW  Elec       q    Type
REMARK                         _______ _______ _______ _____ _____    ______ ____
ROOT
ATOM      1  C   UNL     1      46.263   5.379  13.668  0.00  0.00    +0.000 C 
ATOM      2  C   UNL     1      47.259   6.205  13.307  0.00  0.00    +0.000 C 
ENDROOT
BRANCH   2   3
ATOM      3  C   UNL     1      48.383   6.578  14.182  0.00  0.00    +0.000 A 
ATOM      4  C   UNL     1      49.483   7.306  13.728  0.00  0.00    +0.000 A 
ATOM      5  C   UNL     1      50.473   7.683  14.624  0.00  0.00    +0.000 A 
ATOM      6  F   UNL     1      51.528   8.377  14.178  0.00  0.00    +0.000 F 
ATOM      7  C   UNL     1      50.389   7.362  15.976  0.00  0.00    +0.000 A 
ATOM      8  C   UNL     1      49.304   6.635  16.476  0.00  0.00    +0.000 A 
ATOM      9  C   UNL     1      48.310   6.261  15.551  0.00  0.00    +0.000 A 
BRANCH   8  10
ATOM     10  N   UNL     1      49.185   6.308  17.814  0.00  0.00    +0.000 N 
ATOM     11  C   UNL     1      48.249   5.287  18.293  0.00  0.00    +0.000 C 
ATOM     12  C   UNL     1      47.177   5.923  19.175  0.00  0.00    +0.000 C 
ATOM     13  C   UNL     1      47.800   6.760  20.290  0.00  0.00    +0.000 C 
ATOM     14  C   UNL     1      48.778   7.785  19.722  0.00  0.00    +0.000 C 
ATOM     15  C   UNL     1      49.838   7.119  18.845  0.00  0.00    +0.000 C 
ENDBRANCH   8  10
ENDBRANCH   2   3
BRANCH   1  20
ATOM     16  C   UNL     1      44.247   4.007  10.766  0.00  0.00    +0.000 A 
ATOM     17  C   UNL     1      42.984   4.362  11.216  0.00  0.00    +0.000 A 
ATOM     18  N   UNL     1      42.756   4.979  12.400  0.00  0.00    +0.000 NA
ATOM     19  C   UNL     1      43.846   5.265  13.151  0.00  0.00    +0.000 A 
ATOM     20  C   UNL     1      45.160   4.969  12.788  0.00  0.00    +0.000 A 
ATOM     21  C   UNL     1      45.353   4.334  11.556  0.00  0.00    +0.000 A 
BRANCH  16  23
ATOM     22  N   UNL     1      44.315   4.096   8.343  0.00  0.00    +0.000 N 
ATOM     23  C   UNL     1      44.373   3.320   9.466  0.00  0.00    +0.000 C 
ATOM     24  O   UNL     1      44.567   2.112   9.395  0.00  0.00    +0.000 OA
ATOM     25  H   UNL     1      44.520   3.629   7.466  0.00  0.00    +0.000 HD
ATOM     26  H   UNL     1      44.424   5.099   8.370  0.00  0.00    +0.000 HD
ENDBRANCH  16  23
ENDBRANCH   1  20
TORSDOF 4
ENDMDL
MODEL 9
REMARK VINA RESULT:    -6.180      5.178      6.398
REMARK INTER + INTRA:          -8.326
REMARK INTER:                  -7.603
REMARK INTRA:                  -0.723
REMARK UNBOUND:                -0.701
REMARK  Name = 
REMARK  4 active torsions:
REMARK  status: ('A' for Active; 'I' for Inactive)
REMARK    1  A    between atoms: C_2  and  C_4
REMARK    2  A    between atoms: C_8  and  C_9
REMARK    3  A    between atoms: C_10  and  C_11
REMARK    4  A    between atoms: C_16  and  N_17
REMARK                            x       y       z     vdW  Elec       q    Type
REMARK                         _______ _______ _______ _____ _____    ______ ____
ROOT
ATOM      1  C   UNL     1      49.861   8.542  11.423  0.00  0.00    +0.000 C 
ATOM      2  C   UNL     1      49.074   7.575  11.919  0.00  0.00    +0.000 C 
ENDROOT
BRANCH   2   3
ATOM      3  C   UNL     1      47.641   7.743  12.216  0.00  0.00    +0.000 A 
ATOM      4  C   UNL     1      47.010   8.987  12.205  0.00  0.00    +0.000 A 
ATOM      5  C   UNL     1      45.642   9.063  12.426  0.00  0.00    +0.000 A 
ATOM      6  F   UNL     1      45.045  10.262  12.419  0.00  0.00    +0.000 F 
ATOM      7  C   UNL     1      44.878   7.920  12.648  0.00  0.00    +0.000 A 
ATOM      8  C   UNL     1      45.468   6.653  12.667  0.00  0.00    +0.000 A 
ATOM      9  C   UNL     1      46.857   6.597  12.441  0.00  0.00    +0.000 A 
BRANCH   8  10
ATOM     10  N   UNL     1      44.737   5.498  12.875  0.00  0.00    +0.000 N 
ATOM     11  C   UNL     1      45.368   4.183  13.015  0.00  0.00    +0.000 C 
ATOM     12  C   UNL     1      44.968   3.276  11.854  0.00  0.00    +0.000 C 
ATOM     13  C   UNL     1      43.449   3.217  11.694  0.00  0.00    +0.000 C 
ATOM     14  C   UNL     1      42.859   4.619  11.575  0.00  0.00    +0.000 C 
ATOM     15  C   UNL     1      43.277   5.502  12.751  0.00  0.00    +0.000 C 
ENDBRANCH   8  10
ENDBRANCH   2   3
BRANCH   1  20
ATOM     16  C   UNL     1      53.179   7.102  10.290  0.00  0.00    +0.000 A 
ATOM     17  C   UNL     1      53.985   8.186  10.607  0.00  0.00    +0.000 A 
ATOM     18  N   UNL     1      53.512   9.345  11.125  0.00  0.00    +0.000 NA
ATOM     19  C   UNL     1      52.179   9.406  11.350  0.00  0.00    +0.000 A 
ATOM     20  C   UNL     1      51.281   8.372  11.085  0.00  0.00    +0.000 A 
ATOM     21  C   UNL     1      51.808   7.191  10.553  0.00  0.00    +0.000 A 
BRANCH  16  23
ATOM     22  N   UNL     1      54.138   4.893  10.576  0.00  0.00    +0.000 N 
ATOM     23  C   UNL     1      53.802   5.896   9.712  0.00  0.00    +0.000 C 
ATOM     24  O   UNL     1      53.971   5.778   8.504  0.00  0.00    +0.000 OA
ATOM     25  H   UNL     1      54.456   4.027  10.153  0.00  0.00    +0.000 HD
ATOM     26  H   UNL     1      53.778   4.844  11.518  0.00  0.00    +0.000 HD
ENDBRANCH  16  23
ENDBRANCH   1  20
TORSDOF 4
ENDMDL
