MODEL 1
REMARK VINA RESULT:    -7.332      0.000      0.000
REMARK INTER + INTRA:         -11.425
REMARK INTER:                 -10.332
REMARK INTRA:                  -1.093
REMARK UNBOUND:                -1.093
REMARK  Name = 
REMARK  9 active torsions:
REMARK  status: ('A' for Active; 'I' for Inactive)
REMARK    1  A    between atoms: C_1  and  N_2
REMARK    2  A    between atoms: N_2  and  C_3
REMARK    3  A    between atoms: N_2  and  C_25
REMARK    4  A    between atoms: C_3  and  C_4
REMARK    5  A    between atoms: C_7  and  C_8
REMARK    6  A    between atoms: C_8  and  N_9
REMARK    7  A    between atoms: N_9  and  C_10
REMARK    8  A    between atoms: C_11  and  C_13
REMARK    9  A    between atoms: C_25  and  C_26
REMARK                            x       y       z     vdW  Elec       q    Type
REMARK                         _______ _______ _______ _____ _____    ______ ____
ROOT
ATOM      1  C   UNL     1      46.039   5.005  12.601  0.00  0.00    +0.000 A 
ATOM      2  C   UNL     1      46.575   6.145  11.990  0.00  0.00    +0.000 A 
ATOM      3  C   UNL     1      47.564   6.898  12.631  0.00  0.00    +0.000 A 
ATOM      4  C   UNL     1      48.054   6.526  13.894  0.00  0.00    +0.000 A 
ATOM      5  C   UNL     1      47.499   5.401  14.515  0.00  0.00    +0.000 A 
ATOM      6  C   UNL     1      46.506   4.648  13.878  0.00  0.00    +0.000 A 
ENDROOT
BRANCH   1   7
ATOM      7  C   UNL     1      44.982   4.175  11.896  0.00  0.00    +0.000 C 
BRANCH   7   9
ATOM      8  C   UNL     1      43.069   5.511  11.341  0.00  0.00    +0.000 C 
ATOM      9  N   UNL     1      44.273   4.865  10.803  0.00  0.00    +0.000 NA
BRANCH   9  10
ATOM     10  C   UNL     1      43.906   3.923   9.709  0.00  0.00    +0.000 C 
BRANCH  10  11
ATOM     11  C   UNL     1      45.066   3.415   8.853  0.00  0.00    +0.000 A 
ATOM     12  N   UNL     1      45.719   4.299   8.068  0.00  0.00    +0.000 NA
ATOM     13  C   UNL     1      46.672   3.801   7.262  0.00  0.00    +0.000 A 
ATOM     14  C   UNL     1      47.009   2.470   7.216  0.00  0.00    +0.000 A 
ATOM     15  C   UNL     1      46.305   1.651   8.067  0.00  0.00    +0.000 A 
ATOM     16  N   UNL     1      45.330   2.089   8.886  0.00  0.00    +0.000 NA
ENDBRANCH  10  11
ENDBRANCH   9  10
ENDBRANCH   7   9
ENDBRANCH   1   7
BRANCH   4  17
ATOM     17  C   UNL     1      49.207   7.279  14.527  0.00  0.00    +0.000 C 
BRANCH  17  18
ATOM     18  N   UNL     1      49.129   7.554  15.966  0.00  0.00    +0.000 N 
ATOM     19  C   UNL     1      48.502   8.796  16.405  0.00  0.00    +0.000 C 
ATOM     20  C   UNL     1      49.933   6.740  16.791  0.00  0.00    +0.000 C 
ATOM     21  O   UNL     1      50.593   5.820  16.322  0.00  0.00    +0.000 OA
BRANCH  20  22
ATOM     22  C   UNL     1      49.941   6.969  18.245  0.00  0.00    +0.000 A 
ATOM     23  C   UNL     1      50.861   7.779  18.896  0.00  0.00    +0.000 A 
ATOM     24  S   UNL     1      50.599   7.892  20.578  0.00  0.00    +0.000 S 
ATOM     25  C   UNL     1      49.168   6.979  20.474  0.00  0.00    +0.000 A 
ATOM     26  N   UNL     1      48.388   6.776  21.569  0.00  0.00    +0.000 NA
ATOM     27  C   UNL     1      47.298   6.127  21.328  0.00  0.00    +0.000 A 
ATOM     28  N   UNL     1      46.935   5.635  20.100  0.00  0.00    +0.000 N 
ATOM     29  C   UNL     1      47.756   5.700  18.992  0.00  0.00    +0.000 A 
ATOM     30  O   UNL     1      47.499   5.053  17.984  0.00  0.00    +0.000 OA
ATOM     31  C   UNL     1      48.939   6.521  19.189  0.00  0.00    +0.000 A 
ATOM     32  H   UNL     1      46.098   5.083  19.993  0.00  0.00    +0.000 HD
ENDBRANCH  20  22
ENDBRANCH  17  18
ENDBRANCH   4  17
TORSDOF 7
ENDMDL
MODEL 2
REMARK VINA RESULT:    -6.643      1.538      1.892
REMARK INTER + INTRA:         -10.454
REMARK INTER:                  -9.511
REMARK INTRA:                  -0.943
REMARK UNBOUND:                -1.093
REMARK  Name = 
REMARK  9 active torsions:
REMARK  status: ('A' for Active; 'I' for Inactive)
REMARK    1  A    between atoms: C_1  and  N_2
REMARK    2  A    between atoms: N_2  and  C_3
REMARK    3  A    between atoms: N_2  and  C_25
REMARK    4  A    between atoms: C_3  and  C_4
REMARK    5  A    between atoms: C_7  and  C_8
REMARK    6  A    between atoms: C_8  and  N_9
REMARK    7  A    between atoms: N_9  and  C_10
REMARK    8  A    between atoms: C_11  and  C_13
REMARK    9  A    between atoms: C_25  and  C_26
REMARK                            x       y       z     vdW  Elec       q    Type
REMARK                         _______ _______ _______ _____ _____    ______ ____
ROOT
ATOM      1  C   UNL     1      46.066   4.987  12.456  0.00  0.00    +0.000 A 
ATOM      2  C   UNL     1      46.190   6.153  11.691  0.00  0.00    +0.000 A 
ATOM      3  C   UNL     1      46.985   7.215  12.134  0.00  0.00    +0.000 A 
ATOM      4  C   UNL     1      47.689   7.136  13.348  0.00  0.00    +0.000 A 
ATOM      5  C   UNL     1      47.543   5.980  14.124  0.00  0.00    +0.000 A 
ATOM      6  C   UNL     1      46.745   4.918  13.685  0.00  0.00    +0.000 A 
ENDROOT
BRANCH   1   7
ATOM      7  C   UNL     1      45.222   3.826  11.965  0.00  0.00    +0.000 C 
BRANCH   7   9
ATOM      8  C   UNL     1      43.171   4.637  11.022  0.00  0.00    +0.000 C 
ATOM      9  N   UNL     1      44.490   4.074  10.708  0.00  0.00    +0.000 NA
BRANCH   9  10
ATOM     10  C   UNL     1      44.340   2.826   9.908  0.00  0.00    +0.000 C 
BRANCH  10  11
ATOM     11  C   UNL     1      45.353   2.635   8.780  0.00  0.00    +0.000 A 
ATOM     12  N   UNL     1      45.872   1.405   8.584  0.00  0.00    +0.000 NA
ATOM     13  C   UNL     1      46.826   1.295   7.644  0.00  0.00    +0.000 A 
ATOM     14  C   UNL     1      47.271   2.350   6.886  0.00  0.00    +0.000 A 
ATOM     15  C   UNL     1      46.668   3.558   7.141  0.00  0.00    +0.000 A 
ATOM     16  N   UNL     1      45.718   3.734   8.079  0.00  0.00    +0.000 NA
ENDBRANCH  10  11
ENDBRANCH   9  10
ENDBRANCH   7   9
ENDBRANCH   1   7
BRANCH   4  17
ATOM     17  C   UNL     1      48.639   8.242  13.761  0.00  0.00    +0.000 C 
BRANCH  17  18
ATOM     18  N   UNL     1      49.024   8.311  15.176  0.00  0.00    +0.000 N 
ATOM     19  C   UNL     1      48.164   9.044  16.097  0.00  0.00    +0.000 C 
ATOM     20  C   UNL     1      50.347   7.919  15.471  0.00  0.00    +0.000 C 
ATOM     21  O   UNL     1      51.088   7.483  14.598  0.00  0.00    +0.000 OA
BRANCH  20  22
ATOM     22  C   UNL     1      50.828   7.989  16.860  0.00  0.00    +0.000 A 
ATOM     23  C   UNL     1      51.391   9.122  17.429  0.00  0.00    +0.000 A 
ATOM     24  S   UNL     1      51.816   8.923  19.069  0.00  0.00    +0.000 S 
ATOM     25  C   UNL     1      51.135   7.366  19.115  0.00  0.00    +0.000 A 
ATOM     26  N   UNL     1      51.083   6.661  20.277  0.00  0.00    +0.000 NA
ATOM     27  C   UNL     1      50.475   5.526  20.178  0.00  0.00    +0.000 A 
ATOM     28  N   UNL     1      49.946   5.019  19.019  0.00  0.00    +0.000 N 
ATOM     29  C   UNL     1      50.092   5.636  17.793  0.00  0.00    +0.000 A 
ATOM     30  O   UNL     1      49.811   5.046  16.757  0.00  0.00    +0.000 OA
ATOM     31  C   UNL     1      50.667   6.969  17.875  0.00  0.00    +0.000 A 
ATOM     32  H   UNL     1      49.538   4.097  18.998  0.00  0.00    +0.000 HD
ENDBRANCH  20  22
ENDBRANCH  17  18
ENDBRANCH   4  17
TORSDOF 7
ENDMDL
MODEL 3
REMARK VINA RESULT:    -6.508      1.329      2.252
REMARK INTER + INTRA:         -10.263
REMARK INTER:                  -9.383
REMARK INTRA:                  -0.880
REMARK UNBOUND:                -1.093
REMARK  Name = 
REMARK  9 active torsions:
REMARK  status: ('A' for Active; 'I' for Inactive)
REMARK    1  A    between atoms: C_1  and  N_2
REMARK    2  A    between atoms: N_2  and  C_3
REMARK    3  A    between atoms: N_2  and  C_25
REMARK    4  A    between atoms: C_3  and  C_4
REMARK    5  A    between atoms: C_7  and  C_8
REMARK    6  A    between atoms: C_8  and  N_9
REMARK    7  A    between atoms: N_9  and  C_10
REMARK    8  A    between atoms: C_11  and  C_13
REMARK    9  A    between atoms: C_25  and  C_26
REMARK                            x       y       z     vdW  Elec       q    Type
REMARK                         _______ _______ _______ _____ _____    ______ ____
ROOT
ATOM      1  C   UNL     1      46.039   4.979  12.476  0.00  0.00    +0.000 A 
ATOM      2  C   UNL     1      46.663   6.121  11.961  0.00  0.00    +0.000 A 
ATOM      3  C   UNL     1      47.615   6.814  12.716  0.00  0.00    +0.000 A 
ATOM      4  C   UNL     1      47.979   6.377  14.002  0.00  0.00    +0.000 A 
ATOM      5  C   UNL     1      47.335   5.249  14.524  0.00  0.00    +0.000 A 
ATOM      6  C   UNL     1      46.379   4.557  13.772  0.00  0.00    +0.000 A 
ENDROOT
BRANCH   1   7
ATOM      7  C   UNL     1      45.023   4.214  11.648  0.00  0.00    +0.000 C 
BRANCH   7   9
ATOM      8  C   UNL     1      43.233   5.723  11.128  0.00  0.00    +0.000 C 
ATOM      9  N   UNL     1      44.380   4.993  10.573  0.00  0.00    +0.000 NA
BRANCH   9  10
ATOM     10  C   UNL     1      43.939   4.117   9.452  0.00  0.00    +0.000 C 
BRANCH  10  11
ATOM     11  C   UNL     1      45.057   3.494   8.618  0.00  0.00    +0.000 A 
ATOM     12  N   UNL     1      45.285   2.169   8.737  0.00  0.00    +0.000 NA
ATOM     13  C   UNL     1      46.334   1.673   8.059  0.00  0.00    +0.000 A 
ATOM     14  C   UNL     1      47.150   2.435   7.259  0.00  0.00    +0.000 A 
ATOM     15  C   UNL     1      46.826   3.768   7.182  0.00  0.00    +0.000 A 
ATOM     16  N   UNL     1      45.798   4.325   7.849  0.00  0.00    +0.000 NA
ENDBRANCH  10  11
ENDBRANCH   9  10
ENDBRANCH   7   9
ENDBRANCH   1   7
BRANCH   4  17
ATOM     17  C   UNL     1      49.095   7.064  14.763  0.00  0.00    +0.000 C 
BRANCH  17  18
ATOM     18  N   UNL     1      48.887   7.311  16.194  0.00  0.00    +0.000 N 
ATOM     19  C   UNL     1      48.427   8.629  16.615  0.00  0.00    +0.000 C 
ATOM     20  C   UNL     1      49.435   6.349  17.068  0.00  0.00    +0.000 C 
ATOM     21  O   UNL     1      49.985   5.342  16.637  0.00  0.00    +0.000 OA
BRANCH  20  22
ATOM     22  C   UNL     1      49.303   6.535  18.522  0.00  0.00    +0.000 A 
ATOM     23  C   UNL     1      48.265   6.011  19.279  0.00  0.00    +0.000 A 
ATOM     24  S   UNL     1      48.396   6.351  20.946  0.00  0.00    +0.000 S 
ATOM     25  C   UNL     1      49.914   7.087  20.733  0.00  0.00    +0.000 A 
ATOM     26  N   UNL     1      50.632   7.527  21.801  0.00  0.00    +0.000 NA
ATOM     27  C   UNL     1      51.795   7.998  21.497  0.00  0.00    +0.000 A 
ATOM     28  N   UNL     1      52.289   8.100  20.222  0.00  0.00    +0.000 N 
ATOM     29  C   UNL     1      51.546   7.792  19.101  0.00  0.00    +0.000 A 
ATOM     30  O   UNL     1      51.935   8.112  17.984  0.00  0.00    +0.000 OA
ATOM     31  C   UNL     1      50.276   7.150  19.400  0.00  0.00    +0.000 A 
ATOM     32  H   UNL     1      53.182   8.536  20.048  0.00  0.00    +0.000 HD
ENDBRANCH  20  22
ENDBRANCH  17  18
ENDBRANCH   4  17
TORSDOF 7
ENDMDL
MODEL 4
REMARK VINA RESULT:    -6.388      3.662      8.191
REMARK INTER + INTRA:         -10.094
REMARK INTER:                  -8.661
REMARK INTRA:                  -1.434
REMARK UNBOUND:                -1.093
REMARK  Name = 
REMARK  9 active torsions:
REMARK  status: ('A' for Active; 'I' for Inactive)
REMARK    1  A    between atoms: C_1  and  N_2
REMARK    2  A    between atoms: N_2  and  C_3
REMARK    3  A    between atoms: N_2  and  C_25
REMARK    4  A    between atoms: C_3  and  C_4
REMARK    5  A    between atoms: C_7  and  C_8
REMARK    6  A    between atoms: C_8  and  N_9
REMARK    7  A    between atoms: N_9  and  C_10
REMARK    8  A    between atoms: C_11  and  C_13
REMARK    9  A    between atoms: C_25  and  C_26
REMARK                            x       y       z     vdW  Elec       q    Type
REMARK                         _______ _______ _______ _____ _____    ______ ____
ROOT
ATOM      1  C   UNL     1      52.505   6.176  16.796  0.00  0.00    +0.000 A 
ATOM      2  C   UNL     1      51.123   6.332  16.950  0.00  0.00    +0.000 A 
ATOM      3  C   UNL     1      50.399   7.161  16.086  0.00  0.00    +0.000 A 
ATOM      4  C   UNL     1      51.035   7.846  15.037  0.00  0.00    +0.000 A 
ATOM      5  C   UNL     1      52.421   7.707  14.900  0.00  0.00    +0.000 A 
ATOM      6  C   UNL     1      53.148   6.883  15.766  0.00  0.00    +0.000 A 
ENDROOT
BRANCH   1   7
ATOM      7  C   UNL     1      53.287   5.259  17.718  0.00  0.00    +0.000 C 
BRANCH   7   9
ATOM      8  C   UNL     1      53.221   3.978  19.745  0.00  0.00    +0.000 C 
ATOM      9  N   UNL     1      52.464   4.356  18.545  0.00  0.00    +0.000 NA
BRANCH   9  10
ATOM     10  C   UNL     1      52.060   3.138  17.787  0.00  0.00    +0.000 C 
BRANCH  10  11
ATOM     11  C   UNL     1      50.556   2.944  17.596  0.00  0.00    +0.000 A 
ATOM     12  N   UNL     1      50.134   2.122  16.612  0.00  0.00    +0.000 NA
ATOM     13  C   UNL     1      48.807   2.047  16.416  0.00  0.00    +0.000 A 
ATOM     14  C   UNL     1      47.888   2.742  17.163  0.00  0.00    +0.000 A 
ATOM     15  C   UNL     1      48.410   3.535  18.156  0.00  0.00    +0.000 A 
ATOM     16  N   UNL     1      49.730   3.663  18.392  0.00  0.00    +0.000 NA
ENDBRANCH  10  11
ENDBRANCH   9  10
ENDBRANCH   7   9
ENDBRANCH   1   7
BRANCH   4  17
ATOM     17  C   UNL     1      50.226   8.646  14.036  0.00  0.00    +0.000 C 
BRANCH  17  18
ATOM     18  N   UNL     1      49.177   7.938  13.292  0.00  0.00    +0.000 N 
ATOM     19  C   UNL     1      49.510   7.366  11.993  0.00  0.00    +0.000 C 
ATOM     20  C   UNL     1      47.859   8.130  13.758  0.00  0.00    +0.000 C 
ATOM     21  O   UNL     1      47.633   8.792  14.765  0.00  0.00    +0.000 OA
BRANCH  20  22
ATOM     22  C   UNL     1      46.742   7.484  13.050  0.00  0.00    +0.000 A 
ATOM     23  C   UNL     1      45.931   8.132  12.129  0.00  0.00    +0.000 A 
ATOM     24  S   UNL     1      44.744   7.120  11.435  0.00  0.00    +0.000 S 
ATOM     25  C   UNL     1      45.362   5.753  12.235  0.00  0.00    +0.000 A 
ATOM     26  N   UNL     1      44.845   4.517  12.004  0.00  0.00    +0.000 NA
ATOM     27  C   UNL     1      45.458   3.564  12.625  0.00  0.00    +0.000 A 
ATOM     28  N   UNL     1      46.516   3.740  13.480  0.00  0.00    +0.000 N 
ATOM     29  C   UNL     1      46.986   4.984  13.847  0.00  0.00    +0.000 A 
ATOM     30  O   UNL     1      47.770   5.107  14.780  0.00  0.00    +0.000 OA
ATOM     31  C   UNL     1      46.403   6.078  13.086  0.00  0.00    +0.000 A 
ATOM     32  H   UNL     1      46.909   2.958  13.981  0.00  0.00    +0.000 HD
ENDBRANCH  20  22
ENDBRANCH  17  18
ENDBRANCH   4  17
TORSDOF 7
ENDMDL
MODEL 5
REMARK VINA RESULT:    -6.205      4.478      6.229
REMARK INTER + INTRA:          -9.837
REMARK INTER:                  -8.814
REMARK INTRA:                  -1.023
REMARK UNBOUND:                -1.093
REMARK  Name = 
REMARK  9 active torsions:
REMARK  status: ('A' for Active; 'I' for Inactive)
REMARK    1  A    between atoms: C_1  and  N_2
REMARK    2  A    between atoms: N_2  and  C_3
REMARK    3  A    between atoms: N_2  and  C_25
REMARK    4  A    between atoms: C_3  and  C_4
REMARK    5  A    between atoms: C_7  and  C_8
REMARK    6  A    between atoms: C_8  and  N_9
REMARK    7  A    between atoms: N_9  and  C_10
REMARK    8  A    between atoms: C_11  and  C_13
REMARK    9  A    between atoms: C_25  and  C_26
REMARK                            x       y       z     vdW  Elec       q    Type
REMARK                         _______ _______ _______ _____ _____    ______ ____
ROOT
ATOM      1  C   UNL     1      45.731   5.723  12.660  0.00  0.00    +0.000 A 
ATOM      2  C   UNL     1      47.074   5.631  13.044  0.00  0.00    +0.000 A 
ATOM      3  C   UNL     1      47.810   6.783  13.341  0.00  0.00    +0.000 A 
ATOM      4  C   UNL     1      47.222   8.057  13.274  0.00  0.00    +0.000 A 
ATOM      5  C   UNL     1      45.886   8.148  12.865  0.00  0.00    +0.000 A 
ATOM      6  C   UNL     1      45.149   6.998  12.563  0.00  0.00    +0.000 A 
ENDROOT
BRANCH   1   7
ATOM      7  C   UNL     1      44.925   4.473  12.360  0.00  0.00    +0.000 C 
BRANCH   7   9
ATOM      8  C   UNL     1      42.746   4.994  11.505  0.00  0.00    +0.000 C 
ATOM      9  N   UNL     1      44.095   4.542  11.143  0.00  0.00    +0.000 NA
BRANCH   9  10
ATOM     10  C   UNL     1      44.028   3.224  10.452  0.00  0.00    +0.000 C 
BRANCH  10  11
ATOM     11  C   UNL     1      44.971   3.049   9.262  0.00  0.00    +0.000 A 
ATOM     12  N   UNL     1      45.416   1.808   8.972  0.00  0.00    +0.000 NA
ATOM     13  C   UNL     1      46.315   1.705   7.978  0.00  0.00    +0.000 A 
ATOM     14  C   UNL     1      46.775   2.779   7.256  0.00  0.00    +0.000 A 
ATOM     15  C   UNL     1      46.248   3.999   7.609  0.00  0.00    +0.000 A 
ATOM     16  N   UNL     1      45.357   4.166   8.604  0.00  0.00    +0.000 NA
ENDBRANCH  10  11
ENDBRANCH   9  10
ENDBRANCH   7   9
ENDBRANCH   1   7
BRANCH   4  17
ATOM     17  C   UNL     1      47.992   9.286  13.711  0.00  0.00    +0.000 C 
BRANCH  17  18
ATOM     18  N   UNL     1      49.036   9.788  12.810  0.00  0.00    +0.000 N 
ATOM     19  C   UNL     1      48.649  10.240  11.478  0.00  0.00    +0.000 C 
ATOM     20  C   UNL     1      50.364   9.511  13.195  0.00  0.00    +0.000 C 
ATOM     21  O   UNL     1      50.612   8.949  14.256  0.00  0.00    +0.000 OA
BRANCH  20  22
ATOM     22  C   UNL     1      51.473   9.949  12.332  0.00  0.00    +0.000 A 
ATOM     23  C   UNL     1      52.198  11.115  12.533  0.00  0.00    +0.000 A 
ATOM     24  S   UNL     1      53.454  11.342  11.401  0.00  0.00    +0.000 S 
ATOM     25  C   UNL     1      53.164   9.824  10.691  0.00  0.00    +0.000 A 
ATOM     26  N   UNL     1      53.965   9.353   9.699  0.00  0.00    +0.000 NA
ATOM     27  C   UNL     1      53.671   8.159   9.305  0.00  0.00    +0.000 A 
ATOM     28  N   UNL     1      52.629   7.409   9.788  0.00  0.00    +0.000 N 
ATOM     29  C   UNL     1      51.711   7.896  10.696  0.00  0.00    +0.000 A 
ATOM     30  O   UNL     1      50.674   7.286  10.927  0.00  0.00    +0.000 OA
ATOM     31  C   UNL     1      52.069   9.191  11.253  0.00  0.00    +0.000 A 
ATOM     32  H   UNL     1      52.416   6.506   9.392  0.00  0.00    +0.000 HD
ENDBRANCH  20  22
ENDBRANCH  17  18
ENDBRANCH   4  17
TORSDOF 7
ENDMDL
MODEL 6
REMARK VINA RESULT:    -6.164      2.776      3.661
REMARK INTER + INTRA:          -9.780
REMARK INTER:                  -8.649
REMARK INTRA:                  -1.131
REMARK UNBOUND:                -1.093
REMARK  Name = 
REMARK  9 active torsions:
REMARK  status: ('A' for Active; 'I' for Inactive)
REMARK    1  A    between atoms: C_1  and  N_2
REMARK    2  A    between atoms: N_2  and  C_3
REMARK    3  A    between atoms: N_2  and  C_25
REMARK    4  A    between atoms: C_3  and  C_4
REMARK    5  A    between atoms: C_7  and  C_8
REMARK    6  A    between atoms: C_8  and  N_9
REMARK    7  A    between atoms: N_9  and  C_10
REMARK    8  A    between atoms: C_11  and  C_13
REMARK    9  A    between atoms: C_25  and  C_26
REMARK                            x       y       z     vdW  Elec       q    Type
REMARK                         _______ _______ _______ _____ _____    ______ ____
ROOT
ATOM      1  C   UNL     1      45.619   6.315  12.563  0.00  0.00    +0.000 A 
ATOM      2  C   UNL     1      46.961   5.925  12.477  0.00  0.00    +0.000 A 
ATOM      3  C   UNL     1      47.974   6.882  12.356  0.00  0.00    +0.000 A 
ATOM      4  C   UNL     1      47.676   8.255  12.332  0.00  0.00    +0.000 A 
ATOM      5  C   UNL     1      46.332   8.641  12.394  0.00  0.00    +0.000 A 
ATOM      6  C   UNL     1      45.316   7.686  12.509  0.00  0.00    +0.000 A 
ENDROOT
BRANCH   1   7
ATOM      7  C   UNL     1      44.522   5.279  12.717  0.00  0.00    +0.000 C 
BRANCH   7   9
ATOM      8  C   UNL     1      42.317   5.470  11.792  0.00  0.00    +0.000 C 
ATOM      9  N   UNL     1      43.698   5.058  11.513  0.00  0.00    +0.000 NA
BRANCH   9  10
ATOM     10  C   UNL     1      43.733   3.633  11.081  0.00  0.00    +0.000 C 
BRANCH  10  11
ATOM     11  C   UNL     1      44.555   3.340   9.826  0.00  0.00    +0.000 A 
ATOM     12  N   UNL     1      44.827   2.053   9.522  0.00  0.00    +0.000 NA
ATOM     13  C   UNL     1      45.627   1.839   8.464  0.00  0.00    +0.000 A 
ATOM     14  C   UNL     1      46.152   2.846   7.692  0.00  0.00    +0.000 A 
ATOM     15  C   UNL     1      45.801   4.122   8.065  0.00  0.00    +0.000 A 
ATOM     16  N   UNL     1      45.016   4.400   9.122  0.00  0.00    +0.000 NA
ENDBRANCH  10  11
ENDBRANCH   9  10
ENDBRANCH   7   9
ENDBRANCH   1   7
BRANCH   4  17
ATOM     17  C   UNL     1      48.787   9.285  12.321  0.00  0.00    +0.000 C 
BRANCH  17  18
ATOM     18  N   UNL     1      49.714   9.294  13.458  0.00  0.00    +0.000 N 
ATOM     19  C   UNL     1      49.427  10.175  14.584  0.00  0.00    +0.000 C 
ATOM     20  C   UNL     1      50.962   8.675  13.237  0.00  0.00    +0.000 C 
ATOM     21  O   UNL     1      51.210   8.109  12.178  0.00  0.00    +0.000 OA
BRANCH  20  22
ATOM     22  C   UNL     1      51.966   8.668  14.313  0.00  0.00    +0.000 A 
ATOM     23  C   UNL     1      53.077   9.498  14.341  0.00  0.00    +0.000 A 
ATOM     24  S   UNL     1      54.043   9.299  15.734  0.00  0.00    +0.000 S 
ATOM     25  C   UNL     1      52.936   8.200  16.413  0.00  0.00    +0.000 A 
ATOM     26  N   UNL     1      53.123   7.705  17.665  0.00  0.00    +0.000 NA
ATOM     27  C   UNL     1      52.168   6.939  18.077  0.00  0.00    +0.000 A 
ATOM     28  N   UNL     1      51.064   6.598  17.339  0.00  0.00    +0.000 N 
ATOM     29  C   UNL     1      50.899   6.967  16.020  0.00  0.00    +0.000 A 
ATOM     30  O   UNL     1      50.023   6.457  15.332  0.00  0.00    +0.000 OA
ATOM     31  C   UNL     1      51.889   7.923  15.552  0.00  0.00    +0.000 A 
ATOM     32  H   UNL     1      50.385   5.944  17.699  0.00  0.00    +0.000 HD
ENDBRANCH  20  22
ENDBRANCH  17  18
ENDBRANCH   4  17
TORSDOF 7
ENDMDL
MODEL 7
REMARK VINA RESULT:    -6.027      3.440      9.329
REMARK INTER + INTRA:          -9.586
REMARK INTER:                  -8.423
REMARK INTRA:                  -1.163
REMARK UNBOUND:                -1.093
REMARK  Name = 
REMARK  9 active torsions:
REMARK  status: ('A' for Active; 'I' for Inactive)
REMARK    1  A    between atoms: C_1  and  N_2
REMARK    2  A    between atoms: N_2  and  C_3
REMARK    3  A    between atoms: N_2  and  C_25
REMARK    4  A    between atoms: C_3  and  C_4
REMARK    5  A    between atoms: C_7  and  C_8
REMARK    6  A    between atoms: C_8  and  N_9
REMARK    7  A    between atoms: N_9  and  C_10
REMARK    8  A    between atoms: C_11  and  C_13
REMARK    9  A    between atoms: C_25  and  C_26
REMARK                            x       y       z     vdW  Elec       q    Type
REMARK                         _______ _______ _______ _____ _____    ______ ____
ROOT
ATOM      1  C   UNL     1      49.982   9.068  15.445  0.00  0.00    +0.000 A 
ATOM      2  C   UNL     1      48.624   9.016  15.783  0.00  0.00    +0.000 A 
ATOM      3  C   UNL     1      47.653   8.796  14.800  0.00  0.00    +0.000 A 
ATOM      4  C   UNL     1      48.013   8.609  13.455  0.00  0.00    +0.000 A 
ATOM      5  C   UNL     1      49.369   8.687  13.115  0.00  0.00    +0.000 A 
ATOM      6  C   UNL     1      50.342   8.911  14.095  0.00  0.00    +0.000 A 
ENDROOT
BRANCH   1   7
ATOM      7  C   UNL     1      51.037   9.284  16.513  0.00  0.00    +0.000 C 
BRANCH   7   9
ATOM      8  C   UNL     1      51.500   9.350  18.866  0.00  0.00    +0.000 C 
ATOM      9  N   UNL     1      50.745   8.656  17.815  0.00  0.00    +0.000 NA
BRANCH   9  10
ATOM     10  C   UNL     1      51.085   7.205  17.811  0.00  0.00    +0.000 C 
BRANCH  10  11
ATOM     11  C   UNL     1      49.896   6.245  17.789  0.00  0.00    +0.000 A 
ATOM     12  N   UNL     1      49.606   5.607  16.636  0.00  0.00    +0.000 NA
ATOM     13  C   UNL     1      48.501   4.843  16.629  0.00  0.00    +0.000 A 
ATOM     14  C   UNL     1      47.686   4.677  17.723  0.00  0.00    +0.000 A 
ATOM     15  C   UNL     1      48.074   5.347  18.857  0.00  0.00    +0.000 A 
ATOM     16  N   UNL     1      49.161   6.139  18.921  0.00  0.00    +0.000 NA
ENDBRANCH  10  11
ENDBRANCH   9  10
ENDBRANCH   7   9
ENDBRANCH   1   7
BRANCH   4  17
ATOM     17  C   UNL     1      46.966   8.254  12.419  0.00  0.00    +0.000 C 
BRANCH  17  18
ATOM     18  N   UNL     1      46.517   6.858  12.360  0.00  0.00    +0.000 N 
ATOM     19  C   UNL     1      47.455   5.808  12.739  0.00  0.00    +0.000 C 
ATOM     20  C   UNL     1      45.317   6.629  11.654  0.00  0.00    +0.000 C 
ATOM     21  O   UNL     1      44.668   7.559  11.189  0.00  0.00    +0.000 OA
BRANCH  20  22
ATOM     22  C   UNL     1      44.812   5.253  11.516  0.00  0.00    +0.000 A 
ATOM     23  C   UNL     1      44.049   4.609  12.479  0.00  0.00    +0.000 A 
ATOM     24  S   UNL     1      43.567   3.035  12.027  0.00  0.00    +0.000 S 
ATOM     25  C   UNL     1      44.239   3.215  10.475  0.00  0.00    +0.000 A 
ATOM     26  N   UNL     1      44.095   2.244   9.535  0.00  0.00    +0.000 NA
ATOM     27  C   UNL     1      44.594   2.546   8.383  0.00  0.00    +0.000 A 
ATOM     28  N   UNL     1      45.252   3.714   8.097  0.00  0.00    +0.000 N 
ATOM     29  C   UNL     1      45.540   4.668   9.052  0.00  0.00    +0.000 A 
ATOM     30  O   UNL     1      46.322   5.579   8.812  0.00  0.00    +0.000 OA
ATOM     31  C   UNL     1      44.898   4.424  10.334  0.00  0.00    +0.000 A 
ATOM     32  H   UNL     1      45.673   3.861   7.192  0.00  0.00    +0.000 HD
ENDBRANCH  20  22
ENDBRANCH  17  18
ENDBRANCH   4  17
TORSDOF 7
ENDMDL
MODEL 8
REMARK VINA RESULT:    -5.992      3.127      4.035
REMARK INTER + INTRA:          -9.536
REMARK INTER:                  -8.504
REMARK INTRA:                  -1.032
REMARK UNBOUND:                -1.093
REMARK  Name = 
REMARK  9 active torsions:
REMARK  status: ('A' for Active; 'I' for Inactive)
REMARK    1  A    between atoms: C_1  and  N_2
REMARK    2  A    between atoms: N_2  and  C_3
REMARK    3  A    between atoms: N_2  and  C_25
REMARK    4  A    between atoms: C_3  and  C_4
REMARK    5  A    between atoms: C_7  and  C_8
REMARK    6  A    between atoms: C_8  and  N_9
REMARK    7  A    between atoms: N_9  and  C_10
REMARK    8  A    between atoms: C_11  and  C_13
REMARK    9  A    between atoms: C_25  and  C_26
REMARK                            x       y       z     vdW  Elec       q    Type
REMARK                         _______ _______ _______ _____ _____    ______ ____
ROOT
ATOM      1  C   UNL     1      46.057   4.995  12.296  0.00  0.00    +0.000 A 
ATOM      2  C   UNL     1      46.116   6.114  11.456  0.00  0.00    +0.000 A 
ATOM      3  C   UNL     1      46.781   7.275  11.862  0.00  0.00    +0.000 A 
ATOM      4  C   UNL     1      47.418   7.346  13.113  0.00  0.00    +0.000 A 
ATOM      5  C   UNL     1      47.337   6.235  13.961  0.00  0.00    +0.000 A 
ATOM      6  C   UNL     1      46.667   5.074  13.559  0.00  0.00    +0.000 A 
ENDROOT
BRANCH   1   7
ATOM      7  C   UNL     1      45.354   3.727  11.847  0.00  0.00    +0.000 C 
BRANCH   7   9
ATOM      8  C   UNL     1      43.038   4.199  11.443  0.00  0.00    +0.000 C 
ATOM      9  N   UNL     1      44.329   3.918  10.803  0.00  0.00    +0.000 NA
BRANCH   9  10
ATOM     10  C   UNL     1      44.218   2.722   9.922  0.00  0.00    +0.000 C 
BRANCH  10  11
ATOM     11  C   UNL     1      45.268   2.613   8.816  0.00  0.00    +0.000 A 
ATOM     12  N   UNL     1      45.835   1.410   8.586  0.00  0.00    +0.000 NA
ATOM     13  C   UNL     1      46.818   1.371   7.670  0.00  0.00    +0.000 A 
ATOM     14  C   UNL     1      47.246   2.471   6.968  0.00  0.00    +0.000 A 
ATOM     15  C   UNL     1      46.593   3.646   7.254  0.00  0.00    +0.000 A 
ATOM     16  N   UNL     1      45.613   3.751   8.171  0.00  0.00    +0.000 NA
ENDBRANCH  10  11
ENDBRANCH   9  10
ENDBRANCH   7   9
ENDBRANCH   1   7
BRANCH   4  17
ATOM     17  C   UNL     1      48.236   8.563  13.494  0.00  0.00    +0.000 C 
BRANCH  17  18
ATOM     18  N   UNL     1      49.120   8.448  14.659  0.00  0.00    +0.000 N 
ATOM     19  C   UNL     1      48.631   8.909  15.953  0.00  0.00    +0.000 C 
ATOM     20  C   UNL     1      50.476   8.181  14.376  0.00  0.00    +0.000 C 
ATOM     21  O   UNL     1      50.858   7.989  13.227  0.00  0.00    +0.000 OA
BRANCH  20  22
ATOM     22  C   UNL     1      51.440   8.082  15.485  0.00  0.00    +0.000 A 
ATOM     23  C   UNL     1      51.790   6.891  16.103  0.00  0.00    +0.000 A 
ATOM     24  S   UNL     1      52.964   7.077  17.328  0.00  0.00    +0.000 S 
ATOM     25  C   UNL     1      53.147   8.731  16.978  0.00  0.00    +0.000 A 
ATOM     26  N   UNL     1      54.083   9.480  17.620  0.00  0.00    +0.000 NA
ATOM     27  C   UNL     1      54.158  10.700  17.203  0.00  0.00    +0.000 A 
ATOM     28  N   UNL     1      53.362  11.245  16.229  0.00  0.00    +0.000 N 
ATOM     29  C   UNL     1      52.313  10.563  15.647  0.00  0.00    +0.000 A 
ATOM     30  O   UNL     1      51.489  11.152  14.957  0.00  0.00    +0.000 OA
ATOM     31  C   UNL     1      52.264   9.154  16.001  0.00  0.00    +0.000 A 
ATOM     32  H   UNL     1      53.431  12.224  15.994  0.00  0.00    +0.000 HD
ENDBRANCH  20  22
ENDBRANCH  17  18
ENDBRANCH   4  17
TORSDOF 7
ENDMDL
MODEL 9
REMARK VINA RESULT:    -5.895      3.381      4.464
REMARK INTER + INTRA:          -9.400
REMARK INTER:                  -8.867
REMARK INTRA:                  -0.533
REMARK UNBOUND:                -1.093
REMARK  Name = 
REMARK  9 active torsions:
REMARK  status: ('A' for Active; 'I' for Inactive)
REMARK    1  A    between atoms: C_1  and  N_2
REMARK    2  A    between atoms: N_2  and  C_3
REMARK    3  A    between atoms: N_2  and  C_25
REMARK    4  A    between atoms: C_3  and  C_4
REMARK    5  A    between atoms: C_7  and  C_8
REMARK    6  A    between atoms: C_8  and  N_9
REMARK    7  A    between atoms: N_9  and  C_10
REMARK    8  A    between atoms: C_11  and  C_13
REMARK    9  A    between atoms: C_25  and  C_26
REMARK                            x       y       z     vdW  Elec       q    Type
REMARK                         _______ _______ _______ _____ _____    ______ ____
ROOT
ATOM      1  C   UNL     1      47.728   7.408  13.368  0.00  0.00    +0.000 A 
ATOM      2  C   UNL     1      48.044   8.592  14.045  0.00  0.00    +0.000 A 
ATOM      3  C   UNL     1      48.554   8.553  15.347  0.00  0.00    +0.000 A 
ATOM      4  C   UNL     1      48.773   7.329  16.004  0.00  0.00    +0.000 A 
ATOM      5  C   UNL     1      48.433   6.148  15.333  0.00  0.00    +0.000 A 
ATOM      6  C   UNL     1      47.919   6.185  14.033  0.00  0.00    +0.000 A 
ENDROOT
BRANCH   1   7
ATOM      7  C   UNL     1      47.197   7.449  11.947  0.00  0.00    +0.000 C 
BRANCH   7   9
ATOM      8  C   UNL     1      45.144   8.688  12.020  0.00  0.00    +0.000 C 
ATOM      9  N   UNL     1      45.729   7.355  11.826  0.00  0.00    +0.000 NA
BRANCH   9  10
ATOM     10  C   UNL     1      45.160   6.395  12.812  0.00  0.00    +0.000 C 
BRANCH  10  11
ATOM     11  C   UNL     1      44.537   5.130  12.223  0.00  0.00    +0.000 A 
ATOM     12  N   UNL     1      44.042   4.203  13.070  0.00  0.00    +0.000 NA
ATOM     13  C   UNL     1      43.585   3.065  12.520  0.00  0.00    +0.000 A 
ATOM     14  C   UNL     1      43.589   2.819  11.168  0.00  0.00    +0.000 A 
ATOM     15  C   UNL     1      44.092   3.830  10.385  0.00  0.00    +0.000 A 
ATOM     16  N   UNL     1      44.576   4.985  10.878  0.00  0.00    +0.000 NA
ENDBRANCH  10  11
ENDBRANCH   9  10
ENDBRANCH   7   9
ENDBRANCH   1   7
BRANCH   4  17
ATOM     17  C   UNL     1      49.435   7.293  17.366  0.00  0.00    +0.000 C 
BRANCH  17  18
ATOM     18  N   UNL     1      50.655   6.491  17.506  0.00  0.00    +0.000 N 
ATOM     19  C   UNL     1      51.727   6.676  16.533  0.00  0.00    +0.000 C 
ATOM     20  C   UNL     1      50.570   5.394  18.388  0.00  0.00    +0.000 C 
ATOM     21  O   UNL     1      49.555   5.184  19.042  0.00  0.00    +0.000 OA
BRANCH  20  22
ATOM     22  C   UNL     1      51.738   4.515  18.563  0.00  0.00    +0.000 A 
ATOM     23  C   UNL     1      52.849   4.846  19.325  0.00  0.00    +0.000 A 
ATOM     24  S   UNL     1      54.029   3.614  19.383  0.00  0.00    +0.000 S 
ATOM     25  C   UNL     1      53.035   2.544  18.511  0.00  0.00    +0.000 A 
ATOM     26  N   UNL     1      53.419   1.259  18.287  0.00  0.00    +0.000 NA
ATOM     27  C   UNL     1      52.536   0.543  17.676  0.00  0.00    +0.000 A 
ATOM     28  N   UNL     1      51.320   1.004  17.239  0.00  0.00    +0.000 N 
ATOM     29  C   UNL     1      50.945   2.329  17.323  0.00  0.00    +0.000 A 
ATOM     30  O   UNL     1      49.961   2.741  16.720  0.00  0.00    +0.000 OA
ATOM     31  C   UNL     1      51.857   3.146  18.107  0.00  0.00    +0.000 A 
ATOM     32  H   UNL     1      50.702   0.407  16.711  0.00  0.00    +0.000 HD
ENDBRANCH  20  22
ENDBRANCH  17  18
ENDBRANCH   4  17
TORSDOF 7
ENDMDL
