MODEL 1
REMARK VINA RESULT:    -8.018      0.000      0.000
REMARK INTER + INTRA:         -12.005
REMARK INTER:                 -11.064
REMARK INTRA:                  -0.941
REMARK UNBOUND:                -0.941
REMARK  Name = 
REMARK  10 active torsions:
REMARK  status: ('A' for Active; 'I' for Inactive)
REMARK    1  A    between atoms: C_1  and  C_2
REMARK    2  A    between atoms: C_4  and  C_5
REMARK    3  A    between atoms: C_5  and  C_6
REMARK    4  A    between atoms: C_5  and  C_7
REMARK    5  A    between atoms: C_7  and  N_8
REMARK    6  A    between atoms: C_12  and  C_13
REMARK    7  A    between atoms: C_19  and  C_20
REMARK    8  A    between atoms: C_21  and  O_22
REMARK    9  A    between atoms: O_22  and  C_23
REMARK   10  A    between atoms: C_25  and  O_26
REMARK                            x       y       z     vdW  Elec       q    Type
REMARK                         _______ _______ _______ _____ _____    ______ ____
ROOT
ATOM      1  C   UNL     1      43.319   4.786  12.356  0.00  0.00    +0.000 C 
ATOM      2  C   UNL     1      42.473   6.062  12.206  0.00  0.00    +0.000 C 
ENDROOT
BRANCH   1   6
ATOM      3  C   UNL     1      47.420   3.657  15.044  0.00  0.00    +0.000 C 
ATOM      4  C   UNL     1      46.744   4.615  14.098  0.00  0.00    +0.000 A 
ATOM      5  C   UNL     1      45.450   4.291  13.644  0.00  0.00    +0.000 A 
ATOM      6  C   UNL     1      44.731   5.150  12.807  0.00  0.00    +0.000 A 
ATOM      7  C   UNL     1      45.359   6.334  12.415  0.00  0.00    +0.000 A 
ATOM      8  C   UNL     1      46.665   6.679  12.812  0.00  0.00    +0.000 A 
ATOM      9  C   UNL     1      47.158   7.998  12.287  0.00  0.00    +0.000 C 
ATOM     10  C   UNL     1      47.371   5.801  13.655  0.00  0.00    +0.000 A 
BRANCH  10  11
ATOM     11  O   UNL     1      48.650   6.004  14.142  0.00  0.00    +0.000 OA
BRANCH  11  12
ATOM     12  C   UNL     1      48.866   6.993  15.175  0.00  0.00    +0.000 C 
ATOM     13  C   UNL     1      50.328   7.436  15.428  0.00  0.00    +0.000 C 
ATOM     14  C   UNL     1      50.377   6.432  16.595  0.00  0.00    +0.000 C 
ATOM     15  C   UNL     1      48.840   6.503  16.638  0.00  0.00    +0.000 C 
BRANCH  14  16
ATOM     16  O   UNL     1      51.080   6.861  17.775  0.00  0.00    +0.000 OA
ATOM     17  H   UNL     1      51.158   6.074  18.342  0.00  0.00    +0.000 HD
ENDBRANCH  14  16
ENDBRANCH  11  12
ENDBRANCH  10  11
ENDBRANCH   1   6
BRANCH   1  18
ATOM     18  C   UNL     1      43.204   3.996  11.028  0.00  0.00    +0.000 C 
BRANCH  18  19
ATOM     19  N   UNL     1      43.866   4.678   9.907  0.00  0.00    +0.000 N 
ATOM     20  C   UNL     1      44.714   3.843   9.169  0.00  0.00    +0.000 A 
ATOM     21  C   UNL     1      45.365   4.356   8.051  0.00  0.00    +0.000 A 
ATOM     22  C   UNL     1      46.215   3.528   7.311  0.00  0.00    +0.000 A 
ATOM     23  C   UNL     1      46.395   2.198   7.696  0.00  0.00    +0.000 A 
ATOM     24  C   UNL     1      45.680   1.764   8.797  0.00  0.00    +0.000 A 
ATOM     25  N   UNL     1      44.853   2.549   9.527  0.00  0.00    +0.000 NA
ATOM     26  H   UNL     1      44.358   5.521  10.187  0.00  0.00    +0.000 HD
BRANCH  23  27
ATOM     27  C   UNL     1      47.325   1.329   6.934  0.00  0.00    +0.000 C 
ATOM     28  N   UNL     1      48.449   1.882   6.386  0.00  0.00    +0.000 N 
ATOM     29  O   UNL     1      47.089   0.134   6.797  0.00  0.00    +0.000 OA
ATOM     30  H   UNL     1      48.718   2.852   6.419  0.00  0.00    +0.000 HD
ATOM     31  H   UNL     1      49.042   1.253   5.858  0.00  0.00    +0.000 HD
ENDBRANCH  23  27
ENDBRANCH  18  19
ENDBRANCH   1  18
TORSDOF 7
ENDMDL
MODEL 2
REMARK VINA RESULT:    -7.991      1.104      2.172
REMARK INTER + INTRA:         -11.969
REMARK INTER:                 -10.894
REMARK INTRA:                  -1.074
REMARK UNBOUND:                -0.941
REMARK  Name = 
REMARK  10 active torsions:
REMARK  status: ('A' for Active; 'I' for Inactive)
REMARK    1  A    between atoms: C_1  and  C_2
REMARK    2  A    between atoms: C_4  and  C_5
REMARK    3  A    between atoms: C_5  and  C_6
REMARK    4  A    between atoms: C_5  and  C_7
REMARK    5  A    between atoms: C_7  and  N_8
REMARK    6  A    between atoms: C_12  and  C_13
REMARK    7  A    between atoms: C_19  and  C_20
REMARK    8  A    between atoms: C_21  and  O_22
REMARK    9  A    between atoms: O_22  and  C_23
REMARK   10  A    between atoms: C_25  and  O_26
REMARK                            x       y       z     vdW  Elec       q    Type
REMARK                         _______ _______ _______ _____ _____    ______ ____
ROOT
ATOM      1  C   UNL     1      43.684   4.873  11.992  0.00  0.00    +0.000 C 
ATOM      2  C   UNL     1      42.740   6.071  12.197  0.00  0.00    +0.000 C 
ENDROOT
BRANCH   1   6
ATOM      3  C   UNL     1      48.000   7.411  11.492  0.00  0.00    +0.000 C 
ATOM      4  C   UNL     1      47.179   6.447  12.308  0.00  0.00    +0.000 A 
ATOM      5  C   UNL     1      45.881   6.136  11.855  0.00  0.00    +0.000 A 
ATOM      6  C   UNL     1      45.074   5.212  12.524  0.00  0.00    +0.000 A 
ATOM      7  C   UNL     1      45.595   4.624  13.678  0.00  0.00    +0.000 A 
ATOM      8  C   UNL     1      46.870   4.935  14.189  0.00  0.00    +0.000 A 
ATOM      9  C   UNL     1      47.248   4.192  15.439  0.00  0.00    +0.000 C 
ATOM     10  C   UNL     1      47.667   5.868  13.501  0.00  0.00    +0.000 A 
BRANCH  10  11
ATOM     11  O   UNL     1      48.942   6.264  13.865  0.00  0.00    +0.000 OA
BRANCH  11  12
ATOM     12  C   UNL     1      49.110   7.201  14.954  0.00  0.00    +0.000 C 
ATOM     13  C   UNL     1      49.961   8.463  14.669  0.00  0.00    +0.000 C 
ATOM     14  C   UNL     1      51.159   7.738  15.313  0.00  0.00    +0.000 C 
ATOM     15  C   UNL     1      50.142   6.841  16.043  0.00  0.00    +0.000 C 
BRANCH  14  16
ATOM     16  O   UNL     1      52.022   8.543  16.137  0.00  0.00    +0.000 OA
ATOM     17  H   UNL     1      52.925   8.390  15.809  0.00  0.00    +0.000 HD
ENDBRANCH  14  16
ENDBRANCH  11  12
ENDBRANCH  10  11
ENDBRANCH   1   6
BRANCH   1  18
ATOM     18  C   UNL     1      43.599   4.469  10.499  0.00  0.00    +0.000 C 
BRANCH  18  19
ATOM     19  N   UNL     1      43.972   3.066  10.273  0.00  0.00    +0.000 N 
ATOM     20  C   UNL     1      44.891   2.893   9.230  0.00  0.00    +0.000 A 
ATOM     21  C   UNL     1      45.361   1.615   8.945  0.00  0.00    +0.000 A 
ATOM     22  C   UNL     1      46.277   1.436   7.904  0.00  0.00    +0.000 A 
ATOM     23  C   UNL     1      46.714   2.539   7.169  0.00  0.00    +0.000 A 
ATOM     24  C   UNL     1      46.223   3.776   7.545  0.00  0.00    +0.000 A 
ATOM     25  N   UNL     1      45.336   3.970   8.549  0.00  0.00    +0.000 NA
ATOM     26  H   UNL     1      43.170   2.456  10.139  0.00  0.00    +0.000 HD
BRANCH  23  27
ATOM     27  C   UNL     1      47.657   2.347   6.040  0.00  0.00    +0.000 C 
ATOM     28  N   UNL     1      47.625   3.224   4.993  0.00  0.00    +0.000 N 
ATOM     29  O   UNL     1      48.454   1.414   6.047  0.00  0.00    +0.000 OA
ATOM     30  H   UNL     1      46.994   4.002   4.880  0.00  0.00    +0.000 HD
ATOM     31  H   UNL     1      48.274   3.040   4.237  0.00  0.00    +0.000 HD
ENDBRANCH  23  27
ENDBRANCH  18  19
ENDBRANCH   1  18
TORSDOF 7
ENDMDL
MODEL 3
REMARK VINA RESULT:    -7.739      2.011      2.698
REMARK INTER + INTRA:         -11.620
REMARK INTER:                 -10.492
REMARK INTRA:                  -1.128
REMARK UNBOUND:                -0.941
REMARK  Name = 
REMARK  10 active torsions:
REMARK  status: ('A' for Active; 'I' for Inactive)
REMARK    1  A    between atoms: C_1  and  C_2
REMARK    2  A    between atoms: C_4  and  C_5
REMARK    3  A    between atoms: C_5  and  C_6
REMARK    4  A    between atoms: C_5  and  C_7
REMARK    5  A    between atoms: C_7  and  N_8
REMARK    6  A    between atoms: C_12  and  C_13
REMARK    7  A    between atoms: C_19  and  C_20
REMARK    8  A    between atoms: C_21  and  O_22
REMARK    9  A    between atoms: O_22  and  C_23
REMARK   10  A    between atoms: C_25  and  O_26
REMARK                            x       y       z     vdW  Elec       q    Type
REMARK                         _______ _______ _______ _____ _____    ______ ____
ROOT
ATOM      1  C   UNL     1      43.593   5.176  11.827  0.00  0.00    +0.000 C 
ATOM      2  C   UNL     1      42.200   5.767  12.106  0.00  0.00    +0.000 C 
ENDROOT
BRANCH   1   6
ATOM      3  C   UNL     1      47.909   6.149  14.223  0.00  0.00    +0.000 C 
ATOM      4  C   UNL     1      46.778   6.673  13.377  0.00  0.00    +0.000 A 
ATOM      5  C   UNL     1      45.782   5.764  12.969  0.00  0.00    +0.000 A 
ATOM      6  C   UNL     1      44.671   6.179  12.228  0.00  0.00    +0.000 A 
ATOM      7  C   UNL     1      44.600   7.530  11.884  0.00  0.00    +0.000 A 
ATOM      8  C   UNL     1      45.593   8.465  12.236  0.00  0.00    +0.000 A 
ATOM      9  C   UNL     1      45.329   9.871  11.774  0.00  0.00    +0.000 C 
ATOM     10  C   UNL     1      46.702   8.028  12.982  0.00  0.00    +0.000 A 
BRANCH  10  11
ATOM     11  O   UNL     1      47.747   8.824  13.416  0.00  0.00    +0.000 OA
BRANCH  11  12
ATOM     12  C   UNL     1      48.742   9.269  12.466  0.00  0.00    +0.000 C 
ATOM     13  C   UNL     1      49.210   8.242  11.406  0.00  0.00    +0.000 C 
ATOM     14  C   UNL     1      50.426   7.945  12.306  0.00  0.00    +0.000 C 
ATOM     15  C   UNL     1      50.206   9.325  12.950  0.00  0.00    +0.000 C 
BRANCH  14  16
ATOM     16  O   UNL     1      51.680   7.736  11.632  0.00  0.00    +0.000 OA
ATOM     17  H   UNL     1      52.353   7.672  12.331  0.00  0.00    +0.000 HD
ENDBRANCH  14  16
ENDBRANCH  11  12
ENDBRANCH  10  11
ENDBRANCH   1   6
BRANCH   1  18
ATOM     18  C   UNL     1      43.608   4.704  10.351  0.00  0.00    +0.000 C 
BRANCH  18  19
ATOM     19  N   UNL     1      43.998   3.295  10.214  0.00  0.00    +0.000 N 
ATOM     20  C   UNL     1      44.914   3.068   9.178  0.00  0.00    +0.000 A 
ATOM     21  C   UNL     1      45.400   1.780   8.973  0.00  0.00    +0.000 A 
ATOM     22  C   UNL     1      46.313   1.547   7.940  0.00  0.00    +0.000 A 
ATOM     23  C   UNL     1      46.730   2.606   7.132  0.00  0.00    +0.000 A 
ATOM     24  C   UNL     1      46.225   3.857   7.431  0.00  0.00    +0.000 A 
ATOM     25  N   UNL     1      45.340   4.104   8.427  0.00  0.00    +0.000 NA
ATOM     26  H   UNL     1      43.205   2.667  10.125  0.00  0.00    +0.000 HD
BRANCH  23  27
ATOM     27  C   UNL     1      47.670   2.354   6.012  0.00  0.00    +0.000 C 
ATOM     28  N   UNL     1      47.673   3.208   4.945  0.00  0.00    +0.000 N 
ATOM     29  O   UNL     1      48.431   1.393   6.042  0.00  0.00    +0.000 OA
ATOM     30  H   UNL     1      47.072   4.006   4.813  0.00  0.00    +0.000 HD
ATOM     31  H   UNL     1      48.318   2.983   4.197  0.00  0.00    +0.000 HD
ENDBRANCH  23  27
ENDBRANCH  18  19
ENDBRANCH   1  18
TORSDOF 7
ENDMDL
MODEL 4
REMARK VINA RESULT:    -7.643      2.248      3.500
REMARK INTER + INTRA:         -11.489
REMARK INTER:                 -10.518
REMARK INTRA:                  -0.971
REMARK UNBOUND:                -0.941
REMARK  Name = 
REMARK  10 active torsions:
REMARK  status: ('A' for Active; 'I' for Inactive)
REMARK    1  A    between atoms: C_1  and  C_2
REMARK    2  A    between atoms: C_4  and  C_5
REMARK    3  A    between atoms: C_5  and  C_6
REMARK    4  A    between atoms: C_5  and  C_7
REMARK    5  A    between atoms: C_7  and  N_8
REMARK    6  A    between atoms: C_12  and  C_13
REMARK    7  A    between atoms: C_19  and  C_20
REMARK    8  A    between atoms: C_21  and  O_22
REMARK    9  A    between atoms: O_22  and  C_23
REMARK   10  A    between atoms: C_25  and  O_26
REMARK                            x       y       z     vdW  Elec       q    Type
REMARK                         _______ _______ _______ _____ _____    ______ ____
ROOT
ATOM      1  C   UNL     1      44.137   4.803  12.330  0.00  0.00    +0.000 C 
ATOM      2  C   UNL     1      42.940   5.030  13.270  0.00  0.00    +0.000 C 
ENDROOT
BRANCH   1   6
ATOM      3  C   UNL     1      44.903   9.774  12.158  0.00  0.00    +0.000 C 
ATOM      4  C   UNL     1      45.494   8.402  12.355  0.00  0.00    +0.000 A 
ATOM      5  C   UNL     1      44.625   7.294  12.302  0.00  0.00    +0.000 A 
ATOM      6  C   UNL     1      45.099   5.985  12.422  0.00  0.00    +0.000 A 
ATOM      7  C   UNL     1      46.471   5.817  12.625  0.00  0.00    +0.000 A 
ATOM      8  C   UNL     1      47.369   6.897  12.725  0.00  0.00    +0.000 A 
ATOM      9  C   UNL     1      48.805   6.507  12.939  0.00  0.00    +0.000 C 
ATOM     10  C   UNL     1      46.872   8.207  12.601  0.00  0.00    +0.000 A 
BRANCH  10  11
ATOM     11  O   UNL     1      47.626   9.366  12.660  0.00  0.00    +0.000 OA
BRANCH  11  12
ATOM     12  C   UNL     1      48.433   9.745  11.522  0.00  0.00    +0.000 C 
ATOM     13  C   UNL     1      49.952   9.920  11.766  0.00  0.00    +0.000 C 
ATOM     14  C   UNL     1      49.704  11.436  11.899  0.00  0.00    +0.000 C 
ATOM     15  C   UNL     1      48.405  11.229  11.099  0.00  0.00    +0.000 C 
BRANCH  14  16
ATOM     16  O   UNL     1      50.697  12.297  11.313  0.00  0.00    +0.000 OA
ATOM     17  H   UNL     1      50.235  13.122  11.084  0.00  0.00    +0.000 HD
ENDBRANCH  14  16
ENDBRANCH  11  12
ENDBRANCH  10  11
ENDBRANCH   1   6
BRANCH   1  18
ATOM     18  C   UNL     1      43.568   4.489  10.924  0.00  0.00    +0.000 C 
BRANCH  18  19
ATOM     19  N   UNL     1      44.352   5.109   9.847  0.00  0.00    +0.000 N 
ATOM     20  C   UNL     1      45.096   4.188   9.097  0.00  0.00    +0.000 A 
ATOM     21  C   UNL     1      45.846   4.643   8.017  0.00  0.00    +0.000 A 
ATOM     22  C   UNL     1      46.592   3.730   7.266  0.00  0.00    +0.000 A 
ATOM     23  C   UNL     1      46.572   2.375   7.604  0.00  0.00    +0.000 A 
ATOM     24  C   UNL     1      45.771   2.008   8.669  0.00  0.00    +0.000 A 
ATOM     25  N   UNL     1      45.041   2.877   9.409  0.00  0.00    +0.000 NA
ATOM     26  H   UNL     1      44.950   5.863  10.171  0.00  0.00    +0.000 HD
BRANCH  23  27
ATOM     27  C   UNL     1      47.393   1.410   6.832  0.00  0.00    +0.000 C 
ATOM     28  N   UNL     1      48.508   1.860   6.182  0.00  0.00    +0.000 N 
ATOM     29  O   UNL     1      47.075   0.227   6.776  0.00  0.00    +0.000 OA
ATOM     30  H   UNL     1      48.838   2.812   6.144  0.00  0.00    +0.000 HD
ATOM     31  H   UNL     1      49.025   1.168   5.652  0.00  0.00    +0.000 HD
ENDBRANCH  23  27
ENDBRANCH  18  19
ENDBRANCH   1  18
TORSDOF 7
ENDMDL
MODEL 5
REMARK VINA RESULT:    -7.442      2.088      2.591
REMARK INTER + INTRA:         -11.210
REMARK INTER:                 -10.126
REMARK INTRA:                  -1.084
REMARK UNBOUND:                -0.941
REMARK  Name = 
REMARK  10 active torsions:
REMARK  status: ('A' for Active; 'I' for Inactive)
REMARK    1  A    between atoms: C_1  and  C_2
REMARK    2  A    between atoms: C_4  and  C_5
REMARK    3  A    between atoms: C_5  and  C_6
REMARK    4  A    between atoms: C_5  and  C_7
REMARK    5  A    between atoms: C_7  and  N_8
REMARK    6  A    between atoms: C_12  and  C_13
REMARK    7  A    between atoms: C_19  and  C_20
REMARK    8  A    between atoms: C_21  and  O_22
REMARK    9  A    between atoms: O_22  and  C_23
REMARK   10  A    between atoms: C_25  and  O_26
REMARK                            x       y       z     vdW  Elec       q    Type
REMARK                         _______ _______ _______ _____ _____    ______ ____
ROOT
ATOM      1  C   UNL     1      44.191   4.819  12.226  0.00  0.00    +0.000 C 
ATOM      2  C   UNL     1      43.038   5.100  13.205  0.00  0.00    +0.000 C 
ENDROOT
BRANCH   1   6
ATOM      3  C   UNL     1      48.909   6.554  12.445  0.00  0.00    +0.000 C 
ATOM      4  C   UNL     1      47.444   6.870  12.297  0.00  0.00    +0.000 A 
ATOM      5  C   UNL     1      46.534   5.794  12.286  0.00  0.00    +0.000 A 
ATOM      6  C   UNL     1      45.154   6.003  12.205  0.00  0.00    +0.000 A 
ATOM      7  C   UNL     1      44.711   7.324  12.110  0.00  0.00    +0.000 A 
ATOM      8  C   UNL     1      45.587   8.427  12.077  0.00  0.00    +0.000 A 
ATOM      9  C   UNL     1      44.913   9.766  11.975  0.00  0.00    +0.000 C 
ATOM     10  C   UNL     1      46.972   8.195  12.159  0.00  0.00    +0.000 A 
BRANCH  10  11
ATOM     11  O   UNL     1      47.954   9.170  12.156  0.00  0.00    +0.000 OA
BRANCH  11  12
ATOM     12  C   UNL     1      48.109  10.024  13.312  0.00  0.00    +0.000 C 
ATOM     13  C   UNL     1      49.494  10.686  13.516  0.00  0.00    +0.000 C 
ATOM     14  C   UNL     1      49.835   9.551  14.502  0.00  0.00    +0.000 C 
ATOM     15  C   UNL     1      48.321   9.334  14.677  0.00  0.00    +0.000 C 
BRANCH  14  16
ATOM     16  O   UNL     1      50.576   9.929  15.676  0.00  0.00    +0.000 OA
ATOM     17  H   UNL     1      50.918  10.823  15.501  0.00  0.00    +0.000 HD
ENDBRANCH  14  16
ENDBRANCH  11  12
ENDBRANCH  10  11
ENDBRANCH   1   6
BRANCH   1  18
ATOM     18  C   UNL     1      43.560   4.423  10.868  0.00  0.00    +0.000 C 
BRANCH  18  19
ATOM     19  N   UNL     1      43.885   3.045  10.475  0.00  0.00    +0.000 N 
ATOM     20  C   UNL     1      44.781   2.968   9.401  0.00  0.00    +0.000 A 
ATOM     21  C   UNL     1      45.207   1.718   8.962  0.00  0.00    +0.000 A 
ATOM     22  C   UNL     1      46.100   1.635   7.890  0.00  0.00    +0.000 A 
ATOM     23  C   UNL     1      46.558   2.802   7.276  0.00  0.00    +0.000 A 
ATOM     24  C   UNL     1      46.111   4.001   7.802  0.00  0.00    +0.000 A 
ATOM     25  N   UNL     1      45.247   4.103   8.840  0.00  0.00    +0.000 NA
ATOM     26  H   UNL     1      43.063   2.478  10.289  0.00  0.00    +0.000 HD
BRANCH  23  27
ATOM     27  C   UNL     1      47.475   2.714   6.115  0.00  0.00    +0.000 C 
ATOM     28  N   UNL     1      48.794   2.429   6.333  0.00  0.00    +0.000 N 
ATOM     29  O   UNL     1      47.058   2.896   4.976  0.00  0.00    +0.000 OA
ATOM     30  H   UNL     1      49.239   2.290   7.227  0.00  0.00    +0.000 HD
ATOM     31  H   UNL     1      49.386   2.399   5.510  0.00  0.00    +0.000 HD
ENDBRANCH  23  27
ENDBRANCH  18  19
ENDBRANCH   1  18
TORSDOF 7
ENDMDL
MODEL 6
REMARK VINA RESULT:    -6.727      3.008      4.716
REMARK INTER + INTRA:         -10.224
REMARK INTER:                  -9.486
REMARK INTRA:                  -0.739
REMARK UNBOUND:                -0.941
REMARK  Name = 
REMARK  10 active torsions:
REMARK  status: ('A' for Active; 'I' for Inactive)
REMARK    1  A    between atoms: C_1  and  C_2
REMARK    2  A    between atoms: C_4  and  C_5
REMARK    3  A    between atoms: C_5  and  C_6
REMARK    4  A    between atoms: C_5  and  C_7
REMARK    5  A    between atoms: C_7  and  N_8
REMARK    6  A    between atoms: C_12  and  C_13
REMARK    7  A    between atoms: C_19  and  C_20
REMARK    8  A    between atoms: C_21  and  O_22
REMARK    9  A    between atoms: O_22  and  C_23
REMARK   10  A    between atoms: C_25  and  O_26
REMARK                            x       y       z     vdW  Elec       q    Type
REMARK                         _______ _______ _______ _____ _____    ______ ____
ROOT
ATOM      1  C   UNL     1      45.161   5.288  12.030  0.00  0.00    +0.000 C 
ATOM      2  C   UNL     1      44.948   4.697  13.434  0.00  0.00    +0.000 C 
ENDROOT
BRANCH   1   6
ATOM      3  C   UNL     1      43.991   9.966  10.592  0.00  0.00    +0.000 C 
ATOM      4  C   UNL     1      44.848   9.078  11.456  0.00  0.00    +0.000 A 
ATOM      5  C   UNL     1      44.624   7.688  11.403  0.00  0.00    +0.000 A 
ATOM      6  C   UNL     1      45.409   6.791  12.132  0.00  0.00    +0.000 A 
ATOM      7  C   UNL     1      46.413   7.329  12.939  0.00  0.00    +0.000 A 
ATOM      8  C   UNL     1      46.646   8.713  13.054  0.00  0.00    +0.000 A 
ATOM      9  C   UNL     1      47.775   9.090  13.971  0.00  0.00    +0.000 C 
ATOM     10  C   UNL     1      45.845   9.600  12.312  0.00  0.00    +0.000 A 
BRANCH  10  11
ATOM     11  O   UNL     1      45.960  10.979  12.305  0.00  0.00    +0.000 OA
BRANCH  11  12
ATOM     12  C   UNL     1      47.209  11.584  11.899  0.00  0.00    +0.000 C 
ATOM     13  C   UNL     1      47.121  12.904  11.095  0.00  0.00    +0.000 C 
ATOM     14  C   UNL     1      47.285  12.071   9.808  0.00  0.00    +0.000 C 
ATOM     15  C   UNL     1      47.925  10.973  10.676  0.00  0.00    +0.000 C 
BRANCH  14  16
ATOM     16  O   UNL     1      48.109  12.646   8.778  0.00  0.00    +0.000 OA
ATOM     17  H   UNL     1      47.533  13.254   8.282  0.00  0.00    +0.000 HD
ENDBRANCH  14  16
ENDBRANCH  11  12
ENDBRANCH  10  11
ENDBRANCH   1   6
BRANCH   1  18
ATOM     18  C   UNL     1      43.960   4.848  11.156  0.00  0.00    +0.000 C 
BRANCH  18  19
ATOM     19  N   UNL     1      44.063   3.449  10.720  0.00  0.00    +0.000 N 
ATOM     20  C   UNL     1      44.872   3.274   9.590  0.00  0.00    +0.000 A 
ATOM     21  C   UNL     1      45.090   1.989   9.104  0.00  0.00    +0.000 A 
ATOM     22  C   UNL     1      45.895   1.808   7.975  0.00  0.00    +0.000 A 
ATOM     23  C   UNL     1      46.475   2.915   7.354  0.00  0.00    +0.000 A 
ATOM     24  C   UNL     1      46.235   4.151   7.927  0.00  0.00    +0.000 A 
ATOM     25  N   UNL     1      45.459   4.347   9.019  0.00  0.00    +0.000 NA
ATOM     26  H   UNL     1      43.160   3.007  10.577  0.00  0.00    +0.000 HD
BRANCH  23  27
ATOM     27  C   UNL     1      47.299   2.729   6.134  0.00  0.00    +0.000 C 
ATOM     28  N   UNL     1      48.636   2.480   6.270  0.00  0.00    +0.000 N 
ATOM     29  O   UNL     1      46.789   2.799   5.021  0.00  0.00    +0.000 OA
ATOM     30  H   UNL     1      49.153   2.430   7.134  0.00  0.00    +0.000 HD
ATOM     31  H   UNL     1      49.160   2.379   5.409  0.00  0.00    +0.000 HD
ENDBRANCH  23  27
ENDBRANCH  18  19
ENDBRANCH   1  18
TORSDOF 7
ENDMDL
MODEL 7
REMARK VINA RESULT:    -6.546      3.963      8.554
REMARK INTER + INTRA:          -9.974
REMARK INTER:                  -8.720
REMARK INTRA:                  -1.254
REMARK UNBOUND:                -0.941
REMARK  Name = 
REMARK  10 active torsions:
REMARK  status: ('A' for Active; 'I' for Inactive)
REMARK    1  A    between atoms: C_1  and  C_2
REMARK    2  A    between atoms: C_4  and  C_5
REMARK    3  A    between atoms: C_5  and  C_6
REMARK    4  A    between atoms: C_5  and  C_7
REMARK    5  A    between atoms: C_7  and  N_8
REMARK    6  A    between atoms: C_12  and  C_13
REMARK    7  A    between atoms: C_19  and  C_20
REMARK    8  A    between atoms: C_21  and  O_22
REMARK    9  A    between atoms: O_22  and  C_23
REMARK   10  A    between atoms: C_25  and  O_26
REMARK                            x       y       z     vdW  Elec       q    Type
REMARK                         _______ _______ _______ _____ _____    ______ ____
ROOT
ATOM      1  C   UNL     1      49.810   7.656  13.018  0.00  0.00    +0.000 C 
ATOM      2  C   UNL     1      50.020   8.777  11.986  0.00  0.00    +0.000 C 
ENDROOT
BRANCH   1   6
ATOM      3  C   UNL     1      46.549   3.879  13.664  0.00  0.00    +0.000 C 
ATOM      4  C   UNL     1      46.772   5.310  13.248  0.00  0.00    +0.000 A 
ATOM      5  C   UNL     1      48.077   5.830  13.344  0.00  0.00    +0.000 A 
ATOM      6  C   UNL     1      48.380   7.130  12.929  0.00  0.00    +0.000 A 
ATOM      7  C   UNL     1      47.329   7.906  12.437  0.00  0.00    +0.000 A 
ATOM      8  C   UNL     1      46.002   7.440  12.360  0.00  0.00    +0.000 A 
ATOM      9  C   UNL     1      45.017   8.427  11.798  0.00  0.00    +0.000 C 
ATOM     10  C   UNL     1      45.718   6.129  12.783  0.00  0.00    +0.000 A 
BRANCH  10  11
ATOM     11  O   UNL     1      44.474   5.523  12.755  0.00  0.00    +0.000 OA
BRANCH  11  12
ATOM     12  C   UNL     1      43.896   5.148  11.484  0.00  0.00    +0.000 C 
ATOM     13  C   UNL     1      43.196   3.769  11.410  0.00  0.00    +0.000 C 
ATOM     14  C   UNL     1      44.497   3.197  10.813  0.00  0.00    +0.000 C 
ATOM     15  C   UNL     1      44.861   4.633  10.395  0.00  0.00    +0.000 C 
BRANCH  14  16
ATOM     16  O   UNL     1      44.343   2.233   9.757  0.00  0.00    +0.000 OA
ATOM     17  H   UNL     1      43.431   2.332   9.434  0.00  0.00    +0.000 HD
ENDBRANCH  14  16
ENDBRANCH  11  12
ENDBRANCH  10  11
ENDBRANCH   1   6
BRANCH   1  18
ATOM     18  C   UNL     1      50.256   8.206  14.396  0.00  0.00    +0.000 C 
BRANCH  18  19
ATOM     19  N   UNL     1      51.090   7.253  15.141  0.00  0.00    +0.000 N 
ATOM     20  C   UNL     1      50.432   6.670  16.232  0.00  0.00    +0.000 A 
ATOM     21  C   UNL     1      51.098   5.714  16.993  0.00  0.00    +0.000 A 
ATOM     22  C   UNL     1      50.448   5.130  18.084  0.00  0.00    +0.000 A 
ATOM     23  C   UNL     1      49.140   5.507  18.394  0.00  0.00    +0.000 A 
ATOM     24  C   UNL     1      48.543   6.437  17.562  0.00  0.00    +0.000 A 
ATOM     25  N   UNL     1      49.155   7.014  16.501  0.00  0.00    +0.000 NA
ATOM     26  H   UNL     1      51.979   7.645  15.435  0.00  0.00    +0.000 HD
BRANCH  23  27
ATOM     27  C   UNL     1      48.462   4.916  19.574  0.00  0.00    +0.000 C 
ATOM     28  N   UNL     1      48.526   3.564  19.766  0.00  0.00    +0.000 N 
ATOM     29  O   UNL     1      47.853   5.629  20.364  0.00  0.00    +0.000 OA
ATOM     30  H   UNL     1      48.976   2.892  19.164  0.00  0.00    +0.000 HD
ATOM     31  H   UNL     1      48.031   3.206  20.574  0.00  0.00    +0.000 HD
ENDBRANCH  23  27
ENDBRANCH  18  19
ENDBRANCH   1  18
TORSDOF 7
ENDMDL
MODEL 8
REMARK VINA RESULT:    -6.510      4.001      8.721
REMARK INTER + INTRA:          -9.924
REMARK INTER:                  -8.788
REMARK INTRA:                  -1.136
REMARK UNBOUND:                -0.941
REMARK  Name = 
REMARK  10 active torsions:
REMARK  status: ('A' for Active; 'I' for Inactive)
REMARK    1  A    between atoms: C_1  and  C_2
REMARK    2  A    between atoms: C_4  and  C_5
REMARK    3  A    between atoms: C_5  and  C_6
REMARK    4  A    between atoms: C_5  and  C_7
REMARK    5  A    between atoms: C_7  and  N_8
REMARK    6  A    between atoms: C_12  and  C_13
REMARK    7  A    between atoms: C_19  and  C_20
REMARK    8  A    between atoms: C_21  and  O_22
REMARK    9  A    between atoms: O_22  and  C_23
REMARK   10  A    between atoms: C_25  and  O_26
REMARK                            x       y       z     vdW  Elec       q    Type
REMARK                         _______ _______ _______ _____ _____    ______ ____
ROOT
ATOM      1  C   UNL     1      49.822   7.814  13.000  0.00  0.00    +0.000 C 
ATOM      2  C   UNL     1      49.991   9.013  12.052  0.00  0.00    +0.000 C 
ENDROOT
BRANCH   1   6
ATOM      3  C   UNL     1      45.003   8.517  11.732  0.00  0.00    +0.000 C 
ATOM      4  C   UNL     1      46.053   7.580  12.272  0.00  0.00    +0.000 A 
ATOM      5  C   UNL     1      47.378   8.051  12.357  0.00  0.00    +0.000 A 
ATOM      6  C   UNL     1      48.402   7.265  12.894  0.00  0.00    +0.000 A 
ATOM      7  C   UNL     1      48.064   5.979  13.322  0.00  0.00    +0.000 A 
ATOM      8  C   UNL     1      46.761   5.454  13.220  0.00  0.00    +0.000 A 
ATOM      9  C   UNL     1      46.602   4.053  13.740  0.00  0.00    +0.000 C 
ATOM     10  C   UNL     1      45.745   6.261  12.676  0.00  0.00    +0.000 A 
BRANCH  10  11
ATOM     11  O   UNL     1      44.419   5.896  12.524  0.00  0.00    +0.000 OA
BRANCH  11  12
ATOM     12  C   UNL     1      43.971   5.362  11.257  0.00  0.00    +0.000 C 
ATOM     13  C   UNL     1      43.169   4.038  11.298  0.00  0.00    +0.000 C 
ATOM     14  C   UNL     1      44.478   3.293  10.974  0.00  0.00    +0.000 C 
ATOM     15  C   UNL     1      45.014   4.616  10.397  0.00  0.00    +0.000 C 
BRANCH  14  16
ATOM     16  O   UNL     1      44.371   2.184  10.063  0.00  0.00    +0.000 OA
ATOM     17  H   UNL     1      43.742   2.462   9.375  0.00  0.00    +0.000 HD
ENDBRANCH  14  16
ENDBRANCH  11  12
ENDBRANCH  10  11
ENDBRANCH   1   6
BRANCH   1  18
ATOM     18  C   UNL     1      50.279   8.270  14.408  0.00  0.00    +0.000 C 
BRANCH  18  19
ATOM     19  N   UNL     1      51.050   7.237  15.113  0.00  0.00    +0.000 N 
ATOM     20  C   UNL     1      50.381   6.700  16.221  0.00  0.00    +0.000 A 
ATOM     21  C   UNL     1      50.986   5.679  16.947  0.00  0.00    +0.000 A 
ATOM     22  C   UNL     1      50.325   5.139  18.055  0.00  0.00    +0.000 A 
ATOM     23  C   UNL     1      49.067   5.626  18.415  0.00  0.00    +0.000 A 
ATOM     24  C   UNL     1      48.526   6.616  17.615  0.00  0.00    +0.000 A 
ATOM     25  N   UNL     1      49.150   7.151  16.539  0.00  0.00    +0.000 NA
ATOM     26  H   UNL     1      51.981   7.546  15.379  0.00  0.00    +0.000 HD
BRANCH  23  27
ATOM     27  C   UNL     1      48.380   5.081  19.612  0.00  0.00    +0.000 C 
ATOM     28  N   UNL     1      48.569   3.769  19.944  0.00  0.00    +0.000 N 
ATOM     29  O   UNL     1      47.654   5.797  20.293  0.00  0.00    +0.000 OA
ATOM     30  H   UNL     1      49.122   3.095  19.437  0.00  0.00    +0.000 HD
ATOM     31  H   UNL     1      48.064   3.438  20.757  0.00  0.00    +0.000 HD
ENDBRANCH  23  27
ENDBRANCH  18  19
ENDBRANCH   1  18
TORSDOF 7
ENDMDL
MODEL 9
REMARK VINA RESULT:    -6.484      2.678      5.031
REMARK INTER + INTRA:          -9.889
REMARK INTER:                  -8.698
REMARK INTRA:                  -1.191
REMARK UNBOUND:                -0.941
REMARK  Name = 
REMARK  10 active torsions:
REMARK  status: ('A' for Active; 'I' for Inactive)
REMARK    1  A    between atoms: C_1  and  C_2
REMARK    2  A    between atoms: C_4  and  C_5
REMARK    3  A    between atoms: C_5  and  C_6
REMARK    4  A    between atoms: C_5  and  C_7
REMARK    5  A    between atoms: C_7  and  N_8
REMARK    6  A    between atoms: C_12  and  C_13
REMARK    7  A    between atoms: C_19  and  C_20
REMARK    8  A    between atoms: C_21  and  O_22
REMARK    9  A    between atoms: O_22  and  C_23
REMARK   10  A    between atoms: C_25  and  O_26
REMARK                            x       y       z     vdW  Elec       q    Type
REMARK                         _______ _______ _______ _____ _____    ______ ____
ROOT
ATOM      1  C   UNL     1      48.441   8.221  13.508  0.00  0.00    +0.000 C 
ATOM      2  C   UNL     1      49.318   7.300  12.642  0.00  0.00    +0.000 C 
ENDROOT
BRANCH   1   6
ATOM      3  C   UNL     1      50.949   5.696  17.065  0.00  0.00    +0.000 C 
ATOM      4  C   UNL     1      50.011   6.825  16.730  0.00  0.00    +0.000 A 
ATOM      5  C   UNL     1      49.692   7.040  15.374  0.00  0.00    +0.000 A 
ATOM      6  C   UNL     1      48.789   8.032  14.982  0.00  0.00    +0.000 A 
ATOM      7  C   UNL     1      48.232   8.824  15.989  0.00  0.00    +0.000 A 
ATOM      8  C   UNL     1      48.552   8.671  17.351  0.00  0.00    +0.000 A 
ATOM      9  C   UNL     1      47.843   9.618  18.277  0.00  0.00    +0.000 C 
ATOM     10  C   UNL     1      49.463   7.666  17.725  0.00  0.00    +0.000 A 
BRANCH  10  11
ATOM     11  O   UNL     1      49.866   7.382  19.018  0.00  0.00    +0.000 OA
BRANCH  11  12
ATOM     12  C   UNL     1      48.916   6.808  19.946  0.00  0.00    +0.000 C 
ATOM     13  C   UNL     1      49.453   5.738  20.927  0.00  0.00    +0.000 C 
ATOM     14  C   UNL     1      48.924   4.660  19.960  0.00  0.00    +0.000 C 
ATOM     15  C   UNL     1      47.963   5.724  19.401  0.00  0.00    +0.000 C 
BRANCH  14  16
ATOM     16  O   UNL     1      48.326   3.499  20.566  0.00  0.00    +0.000 OA
ATOM     17  H   UNL     1      47.498   3.806  20.973  0.00  0.00    +0.000 HD
ENDBRANCH  14  16
ENDBRANCH  11  12
ENDBRANCH  10  11
ENDBRANCH   1   6
BRANCH   1  18
ATOM     18  C   UNL     1      46.966   7.962  13.112  0.00  0.00    +0.000 C 
BRANCH  18  19
ATOM     19  N   UNL     1      46.465   6.676  13.615  0.00  0.00    +0.000 N 
ATOM     20  C   UNL     1      45.957   5.843  12.609  0.00  0.00    +0.000 A 
ATOM     21  C   UNL     1      45.494   4.575  12.948  0.00  0.00    +0.000 A 
ATOM     22  C   UNL     1      44.984   3.740  11.950  0.00  0.00    +0.000 A 
ATOM     23  C   UNL     1      44.951   4.183  10.626  0.00  0.00    +0.000 A 
ATOM     24  C   UNL     1      45.467   5.441  10.375  0.00  0.00    +0.000 A 
ATOM     25  N   UNL     1      45.964   6.265  11.328  0.00  0.00    +0.000 NA
ATOM     26  H   UNL     1      45.786   6.777  14.364  0.00  0.00    +0.000 HD
BRANCH  23  27
ATOM     27  C   UNL     1      44.377   3.313   9.571  0.00  0.00    +0.000 C 
ATOM     28  N   UNL     1      44.327   3.775   8.286  0.00  0.00    +0.000 N 
ATOM     29  O   UNL     1      43.953   2.196   9.848  0.00  0.00    +0.000 OA
ATOM     30  H   UNL     1      44.623   4.683   7.962  0.00  0.00    +0.000 HD
ATOM     31  H   UNL     1      43.908   3.153   7.605  0.00  0.00    +0.000 HD
ENDBRANCH  23  27
ENDBRANCH  18  19
ENDBRANCH   1  18
TORSDOF 7
ENDMDL
