MODEL 1
REMARK VINA RESULT:    -8.355      0.000      0.000
REMARK INTER + INTRA:         -11.975
REMARK INTER:                 -11.286
REMARK INTRA:                  -0.689
REMARK UNBOUND:                -0.689
REMARK  Name = 
REMARK  6 active torsions:
REMARK  status: ('A' for Active; 'I' for Inactive)
REMARK    1  A    between atoms: C_2  and  C_4
REMARK    2  A    between atoms: C_7  and  C_8
REMARK    3  A    between atoms: C_8  and  N_9
REMARK    4  A    between atoms: C_16  and  C_17
REMARK    5  A    between atoms: C_17  and  N_18
REMARK    6  A    between atoms: C_19  and  C_21
REMARK                            x       y       z     vdW  Elec       q    Type
REMARK                         _______ _______ _______ _____ _____    ______ ____
ROOT
ATOM      1  C   UNL     1      49.928   3.388  17.491  0.00  0.00    +0.000 A 
ATOM      2  C   UNL     1      50.974   3.986  18.215  0.00  0.00    +0.000 A 
ATOM      3  C   UNL     1      50.863   5.298  18.677  0.00  0.00    +0.000 A 
ATOM      4  C   UNL     1      49.725   6.054  18.386  0.00  0.00    +0.000 A 
ATOM      5  C   UNL     1      48.672   5.451  17.682  0.00  0.00    +0.000 A 
ATOM      6  C   UNL     1      48.742   4.109  17.254  0.00  0.00    +0.000 A 
ENDROOT
BRANCH   1   8
ATOM      7  N   UNL     1      50.940   1.174  17.646  0.00  0.00    +0.000 N 
ATOM      8  C   UNL     1      50.141   2.022  16.930  0.00  0.00    +0.000 C 
ATOM      9  O   UNL     1      49.642   1.663  15.870  0.00  0.00    +0.000 OA
ATOM     10  H   UNL     1      51.086   0.245  17.276  0.00  0.00    +0.000 HD
ATOM     11  H   UNL     1      51.267   1.371  18.581  0.00  0.00    +0.000 HD
ENDBRANCH   1   8
BRANCH   4  12
ATOM     12  C   UNL     1      49.623   7.492  18.847  0.00  0.00    +0.000 C 
BRANCH  12  13
ATOM     13  N   UNL     1      48.347   7.823  19.523  0.00  0.00    +0.000 NA
ATOM     14  C   UNL     1      48.465   7.617  20.979  0.00  0.00    +0.000 C 
ATOM     15  C   UNL     1      47.242   8.110  21.757  0.00  0.00    +0.000 C 
ATOM     16  C   UNL     1      46.948   9.569  21.442  0.00  0.00    +0.000 C 
ATOM     17  C   UNL     1      46.764   9.730  19.941  0.00  0.00    +0.000 C 
ATOM     18  C   UNL     1      47.982   9.209  19.180  0.00  0.00    +0.000 C 
ENDBRANCH  12  13
ENDBRANCH   4  12
BRANCH   6  19
ATOM     19  C   UNL     1      47.528   3.516  16.581  0.00  0.00    +0.000 C 
BRANCH  19  20
ATOM     20  N   UNL     1      46.915   4.429  15.659  0.00  0.00    +0.000 N 
ATOM     21  C   UNL     1      46.832   4.196  14.311  0.00  0.00    +0.000 C 
ATOM     22  O   UNL     1      47.199   3.139  13.796  0.00  0.00    +0.000 OA
ATOM     23  H   UNL     1      46.630   5.319  16.053  0.00  0.00    +0.000 HD
BRANCH  21  24
ATOM     24  C   UNL     1      46.215   5.264  13.518  0.00  0.00    +0.000 A 
ATOM     25  C   UNL     1      46.857   6.485  13.371  0.00  0.00    +0.000 A 
ATOM     26  S   UNL     1      46.009   7.583  12.376  0.00  0.00    +0.000 S 
ATOM     27  C   UNL     1      44.728   6.482  12.157  0.00  0.00    +0.000 A 
ATOM     28  N   UNL     1      43.642   6.811  11.407  0.00  0.00    +0.000 NA
ATOM     29  C   UNL     1      42.737   5.891  11.350  0.00  0.00    +0.000 A 
ATOM     30  N   UNL     1      42.816   4.676  11.979  0.00  0.00    +0.000 N 
ATOM     31  C   UNL     1      43.894   4.299  12.746  0.00  0.00    +0.000 A 
ATOM     32  O   UNL     1      43.923   3.207  13.303  0.00  0.00    +0.000 OA
ATOM     33  C   UNL     1      44.949   5.291  12.826  0.00  0.00    +0.000 A 
ATOM     34  H   UNL     1      42.072   3.999  11.900  0.00  0.00    +0.000 HD
ENDBRANCH  21  24
ENDBRANCH  19  20
ENDBRANCH   6  19
TORSDOF 6
ENDMDL
MODEL 2
REMARK VINA RESULT:    -8.194      3.719      9.450
REMARK INTER + INTRA:         -11.757
REMARK INTER:                 -10.788
REMARK INTRA:                  -0.969
REMARK UNBOUND:                -0.689
REMARK  Name = 
REMARK  6 active torsions:
REMARK  status: ('A' for Active; 'I' for Inactive)
REMARK    1  A    between atoms: C_2  and  C_4
REMARK    2  A    between atoms: C_7  and  C_8
REMARK    3  A    between atoms: C_8  and  N_9
REMARK    4  A    between atoms: C_16  and  C_17
REMARK    5  A    between atoms: C_17  and  N_18
REMARK    6  A    between atoms: C_19  and  C_21
REMARK                            x       y       z     vdW  Elec       q    Type
REMARK                         _______ _______ _______ _____ _____    ______ ____
ROOT
ATOM      1  C   UNL     1      44.595   6.934  11.455  0.00  0.00    +0.000 A 
ATOM      2  C   UNL     1      43.403   6.297  11.068  0.00  0.00    +0.000 A 
ATOM      3  C   UNL     1      43.426   5.019  10.509  0.00  0.00    +0.000 A 
ATOM      4  C   UNL     1      44.641   4.369  10.284  0.00  0.00    +0.000 A 
ATOM      5  C   UNL     1      45.830   4.994  10.691  0.00  0.00    +0.000 A 
ATOM      6  C   UNL     1      45.824   6.262  11.307  0.00  0.00    +0.000 A 
ENDROOT
BRANCH   1   8
ATOM      7  N   UNL     1      43.778   9.220  11.213  0.00  0.00    +0.000 N 
ATOM      8  C   UNL     1      44.524   8.340  11.948  0.00  0.00    +0.000 C 
ATOM      9  O   UNL     1      45.113   8.712  12.957  0.00  0.00    +0.000 OA
ATOM     10  H   UNL     1      43.722  10.173  11.543  0.00  0.00    +0.000 HD
ATOM     11  H   UNL     1      43.173   8.940  10.454  0.00  0.00    +0.000 HD
ENDBRANCH   1   8
BRANCH   4  12
ATOM     12  C   UNL     1      44.669   3.002   9.636  0.00  0.00    +0.000 C 
BRANCH  12  13
ATOM     13  N   UNL     1      45.859   2.757   8.788  0.00  0.00    +0.000 NA
ATOM     14  C   UNL     1      45.925   1.339   8.387  0.00  0.00    +0.000 C 
ATOM     15  C   UNL     1      47.029   1.053   7.366  0.00  0.00    +0.000 C 
ATOM     16  C   UNL     1      46.888   1.951   6.146  0.00  0.00    +0.000 C 
ATOM     17  C   UNL     1      46.894   3.405   6.591  0.00  0.00    +0.000 C 
ATOM     18  C   UNL     1      45.803   3.665   7.629  0.00  0.00    +0.000 C 
ENDBRANCH  12  13
ENDBRANCH   4  12
BRANCH   6  19
ATOM     19  C   UNL     1      47.141   6.820  11.791  0.00  0.00    +0.000 C 
BRANCH  19  20
ATOM     20  N   UNL     1      47.340   6.606  13.197  0.00  0.00    +0.000 N 
ATOM     21  C   UNL     1      48.539   6.813  13.828  0.00  0.00    +0.000 C 
ATOM     22  O   UNL     1      49.519   7.287  13.252  0.00  0.00    +0.000 OA
ATOM     23  H   UNL     1      46.556   6.188  13.688  0.00  0.00    +0.000 HD
BRANCH  21  24
ATOM     24  C   UNL     1      48.567   6.493  15.258  0.00  0.00    +0.000 A 
ATOM     25  C   UNL     1      49.119   7.386  16.165  0.00  0.00    +0.000 A 
ATOM     26  S   UNL     1      49.017   6.861  17.786  0.00  0.00    +0.000 S 
ATOM     27  C   UNL     1      48.285   5.395  17.323  0.00  0.00    +0.000 A 
ATOM     28  N   UNL     1      47.948   4.457  18.249  0.00  0.00    +0.000 NA
ATOM     29  C   UNL     1      47.426   3.384  17.754  0.00  0.00    +0.000 A 
ATOM     30  N   UNL     1      47.216   3.161  16.418  0.00  0.00    +0.000 N 
ATOM     31  C   UNL     1      47.540   4.079  15.446  0.00  0.00    +0.000 A 
ATOM     32  O   UNL     1      47.349   3.838  14.259  0.00  0.00    +0.000 OA
ATOM     33  C   UNL     1      48.113   5.312  15.953  0.00  0.00    +0.000 A 
ATOM     34  H   UNL     1      46.808   2.298  16.092  0.00  0.00    +0.000 HD
ENDBRANCH  21  24
ENDBRANCH  19  20
ENDBRANCH   6  19
TORSDOF 6
ENDMDL
MODEL 3
REMARK VINA RESULT:    -7.931      3.546      8.744
REMARK INTER + INTRA:         -11.401
REMARK INTER:                  -9.835
REMARK INTRA:                  -1.566
REMARK UNBOUND:                -0.689
REMARK  Name = 
REMARK  6 active torsions:
REMARK  status: ('A' for Active; 'I' for Inactive)
REMARK    1  A    between atoms: C_2  and  C_4
REMARK    2  A    between atoms: C_7  and  C_8
REMARK    3  A    between atoms: C_8  and  N_9
REMARK    4  A    between atoms: C_16  and  C_17
REMARK    5  A    between atoms: C_17  and  N_18
REMARK    6  A    between atoms: C_19  and  C_21
REMARK                            x       y       z     vdW  Elec       q    Type
REMARK                         _______ _______ _______ _____ _____    ______ ____
ROOT
ATOM      1  C   UNL     1      46.867   8.743  12.155  0.00  0.00    +0.000 A 
ATOM      2  C   UNL     1      45.495   8.839  11.865  0.00  0.00    +0.000 A 
ATOM      3  C   UNL     1      44.734   7.694  11.629  0.00  0.00    +0.000 A 
ATOM      4  C   UNL     1      45.336   6.434  11.633  0.00  0.00    +0.000 A 
ATOM      5  C   UNL     1      46.700   6.336  11.945  0.00  0.00    +0.000 A 
ATOM      6  C   UNL     1      47.475   7.476  12.240  0.00  0.00    +0.000 A 
ENDROOT
BRANCH   1   8
ATOM      7  N   UNL     1      47.744  10.544  13.547  0.00  0.00    +0.000 N 
ATOM      8  C   UNL     1      47.655  10.002  12.294  0.00  0.00    +0.000 C 
ATOM      9  O   UNL     1      48.193  10.549  11.339  0.00  0.00    +0.000 OA
ATOM     10  H   UNL     1      48.280  11.395  13.651  0.00  0.00    +0.000 HD
ATOM     11  H   UNL     1      47.433  10.071  14.384  0.00  0.00    +0.000 HD
ENDBRANCH   1   8
BRANCH   4  12
ATOM     12  C   UNL     1      44.520   5.196  11.332  0.00  0.00    +0.000 C 
BRANCH  12  13
ATOM     13  N   UNL     1      45.174   4.251  10.397  0.00  0.00    +0.000 NA
ATOM     14  C   UNL     1      44.336   3.052  10.203  0.00  0.00    +0.000 C 
ATOM     15  C   UNL     1      44.867   2.118   9.112  0.00  0.00    +0.000 C 
ATOM     16  C   UNL     1      45.052   2.863   7.799  0.00  0.00    +0.000 C 
ATOM     17  C   UNL     1      45.976   4.051   8.023  0.00  0.00    +0.000 C 
ATOM     18  C   UNL     1      45.444   4.957   9.132  0.00  0.00    +0.000 C 
ENDBRANCH  12  13
ENDBRANCH   4  12
BRANCH   6  19
ATOM     19  C   UNL     1      48.913   7.269  12.649  0.00  0.00    +0.000 C 
BRANCH  19  20
ATOM     20  N   UNL     1      49.030   6.551  13.887  0.00  0.00    +0.000 N 
ATOM     21  C   UNL     1      49.001   7.157  15.115  0.00  0.00    +0.000 C 
ATOM     22  O   UNL     1      48.783   8.361  15.257  0.00  0.00    +0.000 OA
ATOM     23  H   UNL     1      49.239   5.562  13.797  0.00  0.00    +0.000 HD
BRANCH  21  24
ATOM     24  C   UNL     1      49.185   6.268  16.267  0.00  0.00    +0.000 A 
ATOM     25  C   UNL     1      50.202   6.507  17.180  0.00  0.00    +0.000 A 
ATOM     26  S   UNL     1      50.227   5.396  18.476  0.00  0.00    +0.000 S 
ATOM     27  C   UNL     1      48.917   4.524  17.827  0.00  0.00    +0.000 A 
ATOM     28  N   UNL     1      48.436   3.414  18.450  0.00  0.00    +0.000 NA
ATOM     29  C   UNL     1      47.460   2.838  17.831  0.00  0.00    +0.000 A 
ATOM     30  N   UNL     1      46.923   3.267  16.645  0.00  0.00    +0.000 N 
ATOM     31  C   UNL     1      47.375   4.382  15.979  0.00  0.00    +0.000 A 
ATOM     32  O   UNL     1      46.877   4.727  14.913  0.00  0.00    +0.000 OA
ATOM     33  C   UNL     1      48.461   5.078  16.644  0.00  0.00    +0.000 A 
ATOM     34  H   UNL     1      46.162   2.770  16.208  0.00  0.00    +0.000 HD
ENDBRANCH  21  24
ENDBRANCH  19  20
ENDBRANCH   6  19
TORSDOF 6
ENDMDL
MODEL 4
REMARK VINA RESULT:    -7.871      1.935      2.764
REMARK INTER + INTRA:         -11.320
REMARK INTER:                 -10.028
REMARK INTRA:                  -1.292
REMARK UNBOUND:                -0.689
REMARK  Name = 
REMARK  6 active torsions:
REMARK  status: ('A' for Active; 'I' for Inactive)
REMARK    1  A    between atoms: C_2  and  C_4
REMARK    2  A    between atoms: C_7  and  C_8
REMARK    3  A    between atoms: C_8  and  N_9
REMARK    4  A    between atoms: C_16  and  C_17
REMARK    5  A    between atoms: C_17  and  N_18
REMARK    6  A    between atoms: C_19  and  C_21
REMARK                            x       y       z     vdW  Elec       q    Type
REMARK                         _______ _______ _______ _____ _____    ______ ____
ROOT
ATOM      1  C   UNL     1      48.083   5.177  17.877  0.00  0.00    +0.000 A 
ATOM      2  C   UNL     1      47.632   5.224  19.208  0.00  0.00    +0.000 A 
ATOM      3  C   UNL     1      47.624   6.426  19.916  0.00  0.00    +0.000 A 
ATOM      4  C   UNL     1      48.108   7.596  19.326  0.00  0.00    +0.000 A 
ATOM      5  C   UNL     1      48.537   7.554  17.991  0.00  0.00    +0.000 A 
ATOM      6  C   UNL     1      48.502   6.361  17.241  0.00  0.00    +0.000 A 
ENDROOT
BRANCH   1   8
ATOM      7  N   UNL     1      46.992   3.263  16.830  0.00  0.00    +0.000 N 
ATOM      8  C   UNL     1      48.170   3.850  17.201  0.00  0.00    +0.000 C 
ATOM      9  O   UNL     1      49.239   3.289  16.992  0.00  0.00    +0.000 OA
ATOM     10  H   UNL     1      47.042   2.365  16.368  0.00  0.00    +0.000 HD
ATOM     11  H   UNL     1      46.099   3.735  16.860  0.00  0.00    +0.000 HD
ENDBRANCH   1   8
BRANCH   4  12
ATOM     12  C   UNL     1      48.142   8.890  20.109  0.00  0.00    +0.000 C 
BRANCH  12  13
ATOM     13  N   UNL     1      47.138   9.889  19.675  0.00  0.00    +0.000 NA
ATOM     14  C   UNL     1      46.251  10.252  20.796  0.00  0.00    +0.000 C 
ATOM     15  C   UNL     1      45.306  11.410  20.464  0.00  0.00    +0.000 C 
ATOM     16  C   UNL     1      46.081  12.624  19.977  0.00  0.00    +0.000 C 
ATOM     17  C   UNL     1      46.930  12.228  18.779  0.00  0.00    +0.000 C 
ATOM     18  C   UNL     1      47.848  11.055  19.121  0.00  0.00    +0.000 C 
ENDBRANCH  12  13
ENDBRANCH   4  12
BRANCH   6  19
ATOM     19  C   UNL     1      48.900   6.427  15.786  0.00  0.00    +0.000 C 
BRANCH  19  20
ATOM     20  N   UNL     1      47.780   6.253  14.905  0.00  0.00    +0.000 N 
ATOM     21  C   UNL     1      47.885   6.276  13.539  0.00  0.00    +0.000 C 
ATOM     22  O   UNL     1      48.967   6.359  12.958  0.00  0.00    +0.000 OA
ATOM     23  H   UNL     1      46.873   6.212  15.359  0.00  0.00    +0.000 HD
BRANCH  21  24
ATOM     24  C   UNL     1      46.625   6.131  12.803  0.00  0.00    +0.000 A 
ATOM     25  C   UNL     1      46.011   7.241  12.240  0.00  0.00    +0.000 A 
ATOM     26  S   UNL     1      44.583   6.867  11.384  0.00  0.00    +0.000 S 
ATOM     27  C   UNL     1      44.706   5.218  11.787  0.00  0.00    +0.000 A 
ATOM     28  N   UNL     1      43.768   4.324  11.374  0.00  0.00    +0.000 NA
ATOM     29  C   UNL     1      43.974   3.113  11.776  0.00  0.00    +0.000 A 
ATOM     30  N   UNL     1      45.029   2.717  12.557  0.00  0.00    +0.000 N 
ATOM     31  C   UNL     1      46.001   3.584  12.997  0.00  0.00    +0.000 A 
ATOM     32  O   UNL     1      46.923   3.194  13.705  0.00  0.00    +0.000 OA
ATOM     33  C   UNL     1      45.826   4.955  12.556  0.00  0.00    +0.000 A 
ATOM     34  H   UNL     1      45.132   1.755  12.843  0.00  0.00    +0.000 HD
ENDBRANCH  21  24
ENDBRANCH  19  20
ENDBRANCH   6  19
TORSDOF 6
ENDMDL
MODEL 5
REMARK VINA RESULT:    -7.799      2.981      7.855
REMARK INTER + INTRA:         -11.224
REMARK INTER:                 -10.103
REMARK INTRA:                  -1.121
REMARK UNBOUND:                -0.689
REMARK  Name = 
REMARK  6 active torsions:
REMARK  status: ('A' for Active; 'I' for Inactive)
REMARK    1  A    between atoms: C_2  and  C_4
REMARK    2  A    between atoms: C_7  and  C_8
REMARK    3  A    between atoms: C_8  and  N_9
REMARK    4  A    between atoms: C_16  and  C_17
REMARK    5  A    between atoms: C_17  and  N_18
REMARK    6  A    between atoms: C_19  and  C_21
REMARK                            x       y       z     vdW  Elec       q    Type
REMARK                         _______ _______ _______ _____ _____    ______ ____
ROOT
ATOM      1  C   UNL     1      45.302   4.569  12.232  0.00  0.00    +0.000 A 
ATOM      2  C   UNL     1      45.085   5.674  11.391  0.00  0.00    +0.000 A 
ATOM      3  C   UNL     1      45.788   6.864  11.581  0.00  0.00    +0.000 A 
ATOM      4  C   UNL     1      46.690   6.989  12.641  0.00  0.00    +0.000 A 
ATOM      5  C   UNL     1      46.923   5.879  13.466  0.00  0.00    +0.000 A 
ATOM      6  C   UNL     1      46.263   4.651  13.258  0.00  0.00    +0.000 A 
ENDROOT
BRANCH   1   8
ATOM      7  N   UNL     1      44.628   2.636  10.904  0.00  0.00    +0.000 N 
ATOM      8  C   UNL     1      44.448   3.359  12.052  0.00  0.00    +0.000 C 
ATOM      9  O   UNL     1      43.608   3.020  12.877  0.00  0.00    +0.000 OA
ATOM     10  H   UNL     1      44.056   1.813  10.776  0.00  0.00    +0.000 HD
ATOM     11  H   UNL     1      45.388   2.795  10.258  0.00  0.00    +0.000 HD
ENDBRANCH   1   8
BRANCH   4  12
ATOM     12  C   UNL     1      47.420   8.294  12.875  0.00  0.00    +0.000 C 
BRANCH  12  13
ATOM     13  N   UNL     1      48.451   8.603  11.857  0.00  0.00    +0.000 NA
ATOM     14  C   UNL     1      48.780  10.041  11.874  0.00  0.00    +0.000 C 
ATOM     15  C   UNL     1      49.964  10.398  10.973  0.00  0.00    +0.000 C 
ATOM     16  C   UNL     1      51.186   9.562  11.322  0.00  0.00    +0.000 C 
ATOM     17  C   UNL     1      50.829   8.087  11.226  0.00  0.00    +0.000 C 
ATOM     18  C   UNL     1      49.629   7.755  12.112  0.00  0.00    +0.000 C 
ENDBRANCH  12  13
ENDBRANCH   4  12
BRANCH   6  19
ATOM     19  C   UNL     1      46.640   3.485  14.139  0.00  0.00    +0.000 C 
BRANCH  19  20
ATOM     20  N   UNL     1      47.672   3.822  15.078  0.00  0.00    +0.000 N 
ATOM     21  C   UNL     1      47.509   3.746  16.437  0.00  0.00    +0.000 C 
ATOM     22  O   UNL     1      46.489   3.296  16.959  0.00  0.00    +0.000 OA
ATOM     23  H   UNL     1      48.512   4.223  14.674  0.00  0.00    +0.000 HD
BRANCH  21  24
ATOM     24  C   UNL     1      48.657   4.178  17.239  0.00  0.00    +0.000 A 
ATOM     25  C   UNL     1      48.633   5.401  17.894  0.00  0.00    +0.000 A 
ATOM     26  S   UNL     1      50.037   5.708  18.815  0.00  0.00    +0.000 S 
ATOM     27  C   UNL     1      50.748   4.242  18.321  0.00  0.00    +0.000 A 
ATOM     28  N   UNL     1      51.992   3.890  18.744  0.00  0.00    +0.000 NA
ATOM     29  C   UNL     1      52.418   2.766  18.269  0.00  0.00    +0.000 A 
ATOM     30  N   UNL     1      51.714   1.965  17.407  0.00  0.00    +0.000 N 
ATOM     31  C   UNL     1      50.454   2.279  16.953  0.00  0.00    +0.000 A 
ATOM     32  O   UNL     1      49.861   1.543  16.172  0.00  0.00    +0.000 OA
ATOM     33  C   UNL     1      49.922   3.525  17.473  0.00  0.00    +0.000 A 
ATOM     34  H   UNL     1      52.103   1.099  17.066  0.00  0.00    +0.000 HD
ENDBRANCH  21  24
ENDBRANCH  19  20
ENDBRANCH   6  19
TORSDOF 6
ENDMDL
MODEL 6
REMARK VINA RESULT:    -7.622      3.178      8.986
REMARK INTER + INTRA:         -10.984
REMARK INTER:                 -10.132
REMARK INTRA:                  -0.852
REMARK UNBOUND:                -0.689
REMARK  Name = 
REMARK  6 active torsions:
REMARK  status: ('A' for Active; 'I' for Inactive)
REMARK    1  A    between atoms: C_2  and  C_4
REMARK    2  A    between atoms: C_7  and  C_8
REMARK    3  A    between atoms: C_8  and  N_9
REMARK    4  A    between atoms: C_16  and  C_17
REMARK    5  A    between atoms: C_17  and  N_18
REMARK    6  A    between atoms: C_19  and  C_21
REMARK                            x       y       z     vdW  Elec       q    Type
REMARK                         _______ _______ _______ _____ _____    ______ ____
ROOT
ATOM      1  C   UNL     1      46.456   7.623  12.347  0.00  0.00    +0.000 A 
ATOM      2  C   UNL     1      45.239   8.036  11.778  0.00  0.00    +0.000 A 
ATOM      3  C   UNL     1      44.275   7.102  11.398  0.00  0.00    +0.000 A 
ATOM      4  C   UNL     1      44.524   5.735  11.539  0.00  0.00    +0.000 A 
ATOM      5  C   UNL     1      45.729   5.323  12.129  0.00  0.00    +0.000 A 
ATOM      6  C   UNL     1      46.693   6.253  12.568  0.00  0.00    +0.000 A 
ENDROOT
BRANCH   1   8
ATOM      7  N   UNL     1      47.337   9.392  13.778  0.00  0.00    +0.000 N 
ATOM      8  C   UNL     1      47.494   8.655  12.636  0.00  0.00    +0.000 C 
ATOM      9  O   UNL     1      48.443   8.859  11.889  0.00  0.00    +0.000 OA
ATOM     10  H   UNL     1      48.038  10.091  13.984  0.00  0.00    +0.000 HD
ATOM     11  H   UNL     1      46.651   9.180  14.490  0.00  0.00    +0.000 HD
ENDBRANCH   1   8
BRANCH   4  12
ATOM     12  C   UNL     1      43.498   4.719  11.086  0.00  0.00    +0.000 C 
BRANCH  12  13
ATOM     13  N   UNL     1      43.867   3.995   9.848  0.00  0.00    +0.000 NA
ATOM     14  C   UNL     1      44.994   4.667   9.172  0.00  0.00    +0.000 C 
ATOM     15  C   UNL     1      45.542   3.873   7.983  0.00  0.00    +0.000 C 
ATOM     16  C   UNL     1      45.929   2.463   8.402  0.00  0.00    +0.000 C 
ATOM     17  C   UNL     1      44.725   1.778   9.030  0.00  0.00    +0.000 C 
ATOM     18  C   UNL     1      44.176   2.597  10.198  0.00  0.00    +0.000 C 
ENDBRANCH  12  13
ENDBRANCH   4  12
BRANCH   6  19
ATOM     19  C   UNL     1      47.920   5.724  13.270  0.00  0.00    +0.000 C 
BRANCH  19  20
ATOM     20  N   UNL     1      47.899   5.990  14.681  0.00  0.00    +0.000 N 
ATOM     21  C   UNL     1      48.941   6.574  15.353  0.00  0.00    +0.000 C 
ATOM     22  O   UNL     1      49.946   6.998  14.780  0.00  0.00    +0.000 OA
ATOM     23  H   UNL     1      47.095   5.624  15.180  0.00  0.00    +0.000 HD
BRANCH  21  24
ATOM     24  C   UNL     1      48.760   6.721  16.800  0.00  0.00    +0.000 A 
ATOM     25  C   UNL     1      48.571   7.977  17.357  0.00  0.00    +0.000 A 
ATOM     26  S   UNL     1      48.331   7.943  19.047  0.00  0.00    +0.000 S 
ATOM     27  C   UNL     1      48.531   6.253  19.097  0.00  0.00    +0.000 A 
ATOM     28  N   UNL     1      48.464   5.574  20.274  0.00  0.00    +0.000 NA
ATOM     29  C   UNL     1      48.662   4.301  20.166  0.00  0.00    +0.000 A 
ATOM     30  N   UNL     1      48.925   3.648  18.990  0.00  0.00    +0.000 N 
ATOM     31  C   UNL     1      49.002   4.291  17.777  0.00  0.00    +0.000 A 
ATOM     32  O   UNL     1      49.253   3.674  16.748  0.00  0.00    +0.000 OA
ATOM     33  C   UNL     1      48.768   5.722  17.841  0.00  0.00    +0.000 A 
ATOM     34  H   UNL     1      49.076   2.651  18.971  0.00  0.00    +0.000 HD
ENDBRANCH  21  24
ENDBRANCH  19  20
ENDBRANCH   6  19
TORSDOF 6
ENDMDL
MODEL 7
REMARK VINA RESULT:    -7.318      3.038      7.649
REMARK INTER + INTRA:         -10.574
REMARK INTER:                  -9.373
REMARK INTRA:                  -1.201
REMARK UNBOUND:                -0.689
REMARK  Name = 
REMARK  6 active torsions:
REMARK  status: ('A' for Active; 'I' for Inactive)
REMARK    1  A    between atoms: C_2  and  C_4
REMARK    2  A    between atoms: C_7  and  C_8
REMARK    3  A    between atoms: C_8  and  N_9
REMARK    4  A    between atoms: C_16  and  C_17
REMARK    5  A    between atoms: C_17  and  N_18
REMARK    6  A    between atoms: C_19  and  C_21
REMARK                            x       y       z     vdW  Elec       q    Type
REMARK                         _______ _______ _______ _____ _____    ______ ____
ROOT
ATOM      1  C   UNL     1      44.823   4.614  11.855  0.00  0.00    +0.000 A 
ATOM      2  C   UNL     1      44.194   5.634  11.121  0.00  0.00    +0.000 A 
ATOM      3  C   UNL     1      44.434   6.977  11.415  0.00  0.00    +0.000 A 
ATOM      4  C   UNL     1      45.272   7.327  12.476  0.00  0.00    +0.000 A 
ATOM      5  C   UNL     1      45.918   6.310  13.194  0.00  0.00    +0.000 A 
ATOM      6  C   UNL     1      45.731   4.949  12.878  0.00  0.00    +0.000 A 
ENDROOT
BRANCH   1   8
ATOM      7  N   UNL     1      43.716   2.544  12.521  0.00  0.00    +0.000 N 
ATOM      8  C   UNL     1      44.451   3.198  11.569  0.00  0.00    +0.000 C 
ATOM      9  O   UNL     1      44.790   2.624  10.542  0.00  0.00    +0.000 OA
ATOM     10  H   UNL     1      43.456   1.586  12.334  0.00  0.00    +0.000 HD
ATOM     11  H   UNL     1      43.302   3.004  13.320  0.00  0.00    +0.000 HD
ENDBRANCH   1   8
BRANCH   4  12
ATOM     12  C   UNL     1      45.497   8.782  12.824  0.00  0.00    +0.000 C 
BRANCH  12  13
ATOM     13  N   UNL     1      46.299   9.528  11.827  0.00  0.00    +0.000 NA
ATOM     14  C   UNL     1      45.803  10.911  11.694  0.00  0.00    +0.000 C 
ATOM     15  C   UNL     1      46.696  11.788  10.813  0.00  0.00    +0.000 C 
ATOM     16  C   UNL     1      48.133  11.778  11.312  0.00  0.00    +0.000 C 
ATOM     17  C   UNL     1      48.633  10.343  11.371  0.00  0.00    +0.000 C 
ATOM     18  C   UNL     1      47.715   9.477  12.232  0.00  0.00    +0.000 C 
ENDBRANCH  12  13
ENDBRANCH   4  12
BRANCH   6  19
ATOM     19  C   UNL     1      46.533   3.926  13.646  0.00  0.00    +0.000 C 
BRANCH  19  20
ATOM     20  N   UNL     1      47.074   4.459  14.864  0.00  0.00    +0.000 N 
ATOM     21  C   UNL     1      47.838   3.726  15.734  0.00  0.00    +0.000 C 
ATOM     22  O   UNL     1      48.196   2.573  15.493  0.00  0.00    +0.000 OA
ATOM     23  H   UNL     1      46.769   5.398  15.100  0.00  0.00    +0.000 HD
BRANCH  21  24
ATOM     24  C   UNL     1      48.260   4.424  16.952  0.00  0.00    +0.000 A 
ATOM     25  C   UNL     1      47.968   3.893  18.200  0.00  0.00    +0.000 A 
ATOM     26  S   UNL     1      48.582   4.821  19.495  0.00  0.00    +0.000 S 
ATOM     27  C   UNL     1      49.207   5.994  18.431  0.00  0.00    +0.000 A 
ATOM     28  N   UNL     1      49.854   7.094  18.902  0.00  0.00    +0.000 NA
ATOM     29  C   UNL     1      50.251   7.912  17.984  0.00  0.00    +0.000 A 
ATOM     30  N   UNL     1      50.056   7.733  16.639  0.00  0.00    +0.000 N 
ATOM     31  C   UNL     1      49.409   6.638  16.116  0.00  0.00    +0.000 A 
ATOM     32  O   UNL     1      49.242   6.519  14.908  0.00  0.00    +0.000 OA
ATOM     33  C   UNL     1      48.959   5.677  17.107  0.00  0.00    +0.000 A 
ATOM     34  H   UNL     1      50.386   8.412  15.971  0.00  0.00    +0.000 HD
ENDBRANCH  21  24
ENDBRANCH  19  20
ENDBRANCH   6  19
TORSDOF 6
ENDMDL
MODEL 8
REMARK VINA RESULT:    -7.129      3.551      5.781
REMARK INTER + INTRA:         -10.318
REMARK INTER:                  -8.751
REMARK INTRA:                  -1.566
REMARK UNBOUND:                -0.689
REMARK  Name = 
REMARK  6 active torsions:
REMARK  status: ('A' for Active; 'I' for Inactive)
REMARK    1  A    between atoms: C_2  and  C_4
REMARK    2  A    between atoms: C_7  and  C_8
REMARK    3  A    between atoms: C_8  and  N_9
REMARK    4  A    between atoms: C_16  and  C_17
REMARK    5  A    between atoms: C_17  and  N_18
REMARK    6  A    between atoms: C_19  and  C_21
REMARK                            x       y       z     vdW  Elec       q    Type
REMARK                         _______ _______ _______ _____ _____    ______ ____
ROOT
ATOM      1  C   UNL     1      48.424   9.683  13.368  0.00  0.00    +0.000 A 
ATOM      2  C   UNL     1      48.868  10.023  14.658  0.00  0.00    +0.000 A 
ATOM      3  C   UNL     1      49.387   9.050  15.513  0.00  0.00    +0.000 A 
ATOM      4  C   UNL     1      49.433   7.712  15.114  0.00  0.00    +0.000 A 
ATOM      5  C   UNL     1      49.012   7.376  13.819  0.00  0.00    +0.000 A 
ATOM      6  C   UNL     1      48.534   8.353  12.921  0.00  0.00    +0.000 A 
ENDROOT
BRANCH   1   8
ATOM      7  N   UNL     1      46.413  10.774  12.523  0.00  0.00    +0.000 N 
ATOM      8  C   UNL     1      47.780  10.740  12.536  0.00  0.00    +0.000 C 
ATOM      9  O   UNL     1      48.430  11.541  11.875  0.00  0.00    +0.000 OA
ATOM     10  H   UNL     1      45.969  11.490  11.964  0.00  0.00    +0.000 HD
ATOM     11  H   UNL     1      45.835  10.227  13.144  0.00  0.00    +0.000 HD
ENDBRANCH   1   8
BRANCH   4  12
ATOM     12  C   UNL     1      49.954   6.650  16.057  0.00  0.00    +0.000 C 
BRANCH  12  13
ATOM     13  N   UNL     1      48.912   6.032  16.909  0.00  0.00    +0.000 NA
ATOM     14  C   UNL     1      48.369   4.820  16.265  0.00  0.00    +0.000 C 
ATOM     15  C   UNL     1      47.417   4.034  17.170  0.00  0.00    +0.000 C 
ATOM     16  C   UNL     1      48.084   3.687  18.492  0.00  0.00    +0.000 C 
ATOM     17  C   UNL     1      48.568   4.965  19.159  0.00  0.00    +0.000 C 
ATOM     18  C   UNL     1      49.496   5.749  18.232  0.00  0.00    +0.000 C 
ENDBRANCH  12  13
ENDBRANCH   4  12
BRANCH   6  19
ATOM     19  C   UNL     1      48.185   7.915  11.518  0.00  0.00    +0.000 C 
BRANCH  19  20
ATOM     20  N   UNL     1      47.304   6.781  11.504  0.00  0.00    +0.000 N 
ATOM     21  C   UNL     1      45.944   6.882  11.640  0.00  0.00    +0.000 C 
ATOM     22  O   UNL     1      45.361   7.965  11.696  0.00  0.00    +0.000 OA
ATOM     23  H   UNL     1      47.762   5.876  11.488  0.00  0.00    +0.000 HD
BRANCH  21  24
ATOM     24  C   UNL     1      45.212   5.612  11.652  0.00  0.00    +0.000 A 
ATOM     25  C   UNL     1      44.575   5.182  12.807  0.00  0.00    +0.000 A 
ATOM     26  S   UNL     1      43.736   3.708  12.612  0.00  0.00    +0.000 S 
ATOM     27  C   UNL     1      44.245   3.567  10.994  0.00  0.00    +0.000 A 
ATOM     28  N   UNL     1      43.885   2.496  10.236  0.00  0.00    +0.000 NA
ATOM     29  C   UNL     1      44.365   2.507   9.037  0.00  0.00    +0.000 A 
ATOM     30  N   UNL     1      45.176   3.488   8.528  0.00  0.00    +0.000 N 
ATOM     31  C   UNL     1      45.566   4.589   9.255  0.00  0.00    +0.000 A 
ATOM     32  O   UNL     1      46.302   5.440   8.768  0.00  0.00    +0.000 OA
ATOM     33  C   UNL     1      45.036   4.634  10.605  0.00  0.00    +0.000 A 
ATOM     34  H   UNL     1      45.524   3.437   7.583  0.00  0.00    +0.000 HD
ENDBRANCH  21  24
ENDBRANCH  19  20
ENDBRANCH   6  19
TORSDOF 6
ENDMDL
MODEL 9
REMARK VINA RESULT:    -6.959      3.221      8.358
REMARK INTER + INTRA:         -10.088
REMARK INTER:                  -9.215
REMARK INTRA:                  -0.873
REMARK UNBOUND:                -0.689
REMARK  Name = 
REMARK  6 active torsions:
REMARK  status: ('A' for Active; 'I' for Inactive)
REMARK    1  A    between atoms: C_2  and  C_4
REMARK    2  A    between atoms: C_7  and  C_8
REMARK    3  A    between atoms: C_8  and  N_9
REMARK    4  A    between atoms: C_16  and  C_17
REMARK    5  A    between atoms: C_17  and  N_18
REMARK    6  A    between atoms: C_19  and  C_21
REMARK                            x       y       z     vdW  Elec       q    Type
REMARK                         _______ _______ _______ _____ _____    ______ ____
ROOT
ATOM      1  C   UNL     1      45.501   5.317  12.322  0.00  0.00    +0.000 A 
ATOM      2  C   UNL     1      44.311   5.714  11.687  0.00  0.00    +0.000 A 
ATOM      3  C   UNL     1      44.063   7.059  11.412  0.00  0.00    +0.000 A 
ATOM      4  C   UNL     1      44.978   8.039  11.805  0.00  0.00    +0.000 A 
ATOM      5  C   UNL     1      46.176   7.642  12.418  0.00  0.00    +0.000 A 
ATOM      6  C   UNL     1      46.469   6.284  12.656  0.00  0.00    +0.000 A 
ENDROOT
BRANCH   1   8
ATOM      7  N   UNL     1      45.145   2.955  11.826  0.00  0.00    +0.000 N 
ATOM      8  C   UNL     1      45.668   3.881  12.687  0.00  0.00    +0.000 C 
ATOM      9  O   UNL     1      46.232   3.527  13.715  0.00  0.00    +0.000 OA
ATOM     10  H   UNL     1      45.257   1.979  12.064  0.00  0.00    +0.000 HD
ATOM     11  H   UNL     1      44.788   3.185  10.909  0.00  0.00    +0.000 HD
ENDBRANCH   1   8
BRANCH   4  12
ATOM     12  C   UNL     1      44.689   9.502  11.548  0.00  0.00    +0.000 C 
BRANCH  12  13
ATOM     13  N   UNL     1      43.592   9.743  10.582  0.00  0.00    +0.000 NA
ATOM     14  C   UNL     1      42.430  10.350  11.260  0.00  0.00    +0.000 C 
ATOM     15  C   UNL     1      41.330  10.789  10.289  0.00  0.00    +0.000 C 
ATOM     16  C   UNL     1      41.883  11.726   9.227  0.00  0.00    +0.000 C 
ATOM     17  C   UNL     1      43.032  11.041   8.503  0.00  0.00    +0.000 C 
ATOM     18  C   UNL     1      44.107  10.587   9.489  0.00  0.00    +0.000 C 
ENDBRANCH  12  13
ENDBRANCH   4  12
BRANCH   6  19
ATOM     19  C   UNL     1      47.818   5.942  13.240  0.00  0.00    +0.000 C 
BRANCH  19  20
ATOM     20  N   UNL     1      47.875   6.174  14.655  0.00  0.00    +0.000 N 
ATOM     21  C   UNL     1      48.981   6.671  15.294  0.00  0.00    +0.000 C 
ATOM     22  O   UNL     1      49.987   7.042  14.687  0.00  0.00    +0.000 OA
ATOM     23  H   UNL     1      47.070   5.850  15.181  0.00  0.00    +0.000 HD
BRANCH  21  24
ATOM     24  C   UNL     1      48.872   6.795  16.750  0.00  0.00    +0.000 A 
ATOM     25  C   UNL     1      48.805   8.047  17.343  0.00  0.00    +0.000 A 
ATOM     26  S   UNL     1      48.633   7.988  19.041  0.00  0.00    +0.000 S 
ATOM     27  C   UNL     1      48.701   6.286  19.044  0.00  0.00    +0.000 A 
ATOM     28  N   UNL     1      48.628   5.584  20.207  0.00  0.00    +0.000 NA
ATOM     29  C   UNL     1      48.720   4.304  20.062  0.00  0.00    +0.000 A 
ATOM     30  N   UNL     1      48.883   3.662  18.862  0.00  0.00    +0.000 N 
ATOM     31  C   UNL     1      48.961   4.329  17.661  0.00  0.00    +0.000 A 
ATOM     32  O   UNL     1      49.120   3.721  16.609  0.00  0.00    +0.000 OA
ATOM     33  C   UNL     1      48.843   5.771  17.767  0.00  0.00    +0.000 A 
ATOM     34  H   UNL     1      48.953   2.657  18.814  0.00  0.00    +0.000 HD
ENDBRANCH  21  24
ENDBRANCH  19  20
ENDBRANCH   6  19
TORSDOF 6
ENDMDL
