MODEL 1
REMARK VINA RESULT:    -8.131      0.000      0.000
REMARK INTER + INTRA:         -11.450
REMARK INTER:                 -10.508
REMARK INTRA:                  -0.942
REMARK UNBOUND:                -0.942
REMARK  Name = 
REMARK  5 active torsions:
REMARK  status: ('A' for Active; 'I' for Inactive)
REMARK    1  A    between atoms: C_2  and  C_3
REMARK    2  A    between atoms: C_7  and  N_8
REMARK    3  A    between atoms: N_8  and  C_9
REMARK    4  A    between atoms: C_9  and  C_10
REMARK    5  A    between atoms: C_14  and  C_15
REMARK                            x       y       z     vdW  Elec       q    Type
REMARK                         _______ _______ _______ _____ _____    ______ ____
ROOT
ATOM      1  C   UNL     1      43.786   4.979  11.487  0.00  0.00    +0.000 C 
ATOM      2  C   UNL     1      42.478   5.376  12.176  0.00  0.00    +0.000 C 
ATOM      3  C   UNL     1      42.987   6.190  11.040  0.00  0.00    +0.000 C 
ENDROOT
BRANCH   1   4
ATOM      4  C   UNL     1      45.062   5.232  12.290  0.00  0.00    +0.000 A 
ATOM      5  C   UNL     1      45.626   4.254  13.117  0.00  0.00    +0.000 A 
ATOM      6  C   UNL     1      46.891   4.436  13.678  0.00  0.00    +0.000 A 
ATOM      7  C   UNL     1      47.625   5.592  13.394  0.00  0.00    +0.000 A 
ATOM      8  C   UNL     1      47.091   6.609  12.589  0.00  0.00    +0.000 A 
ATOM      9  C   UNL     1      45.781   6.432  12.119  0.00  0.00    +0.000 A 
BRANCH   8  10
ATOM     10  C   UNL     1      47.904   7.744  12.094  0.00  0.00    +0.000 A 
ATOM     11  C   UNL     1      47.377   9.047  12.093  0.00  0.00    +0.000 A 
ATOM     12  C   UNL     1      48.167  10.156  11.773  0.00  0.00    +0.000 A 
ATOM     13  C   UNL     1      49.509   9.984  11.452  0.00  0.00    +0.000 A 
ATOM     14  C   UNL     1      50.055   8.704  11.431  0.00  0.00    +0.000 A 
ATOM     15  C   UNL     1      49.259   7.595  11.740  0.00  0.00    +0.000 A 
ENDBRANCH   8  10
ENDBRANCH   1   4
BRANCH   1  16
ATOM     16  N   UNL     1      43.776   3.688  10.762  0.00  0.00    +0.000 N 
ATOM     17  H   UNL     1      43.765   2.894  11.402  0.00  0.00    +0.000 HD
BRANCH  16  22
ATOM     18  C   UNL     1      45.967   1.988   8.249  0.00  0.00    +0.000 A 
ATOM     19  C   UNL     1      46.362   3.108   7.534  0.00  0.00    +0.000 A 
ATOM     20  N   UNL     1      45.928   4.355   7.810  0.00  0.00    +0.000 NA
ATOM     21  C   UNL     1      45.072   4.480   8.855  0.00  0.00    +0.000 A 
ATOM     22  C   UNL     1      44.589   3.423   9.637  0.00  0.00    +0.000 A 
ATOM     23  C   UNL     1      45.068   2.155   9.306  0.00  0.00    +0.000 A 
BRANCH  18  25
ATOM     24  N   UNL     1      46.918  -0.349   7.659  0.00  0.00    +0.000 NA
ATOM     25  C   UNL     1      46.496   0.702   7.922  0.00  0.00    +0.000 C 
ENDBRANCH  18  25
ENDBRANCH  16  22
ENDBRANCH   1  16
TORSDOF 5
ENDMDL
MODEL 2
REMARK VINA RESULT:    -7.832      1.727      3.596
REMARK INTER + INTRA:         -11.064
REMARK INTER:                 -10.445
REMARK INTRA:                  -0.618
REMARK UNBOUND:                -0.942
REMARK  Name = 
REMARK  5 active torsions:
REMARK  status: ('A' for Active; 'I' for Inactive)
REMARK    1  A    between atoms: C_2  and  C_3
REMARK    2  A    between atoms: C_7  and  N_8
REMARK    3  A    between atoms: N_8  and  C_9
REMARK    4  A    between atoms: C_9  and  C_10
REMARK    5  A    between atoms: C_14  and  C_15
REMARK                            x       y       z     vdW  Elec       q    Type
REMARK                         _______ _______ _______ _____ _____    ______ ____
ROOT
ATOM      1  C   UNL     1      43.975   4.878  11.795  0.00  0.00    +0.000 C 
ATOM      2  C   UNL     1      42.870   5.099  12.832  0.00  0.00    +0.000 C 
ATOM      3  C   UNL     1      42.908   5.940  11.606  0.00  0.00    +0.000 C 
ENDROOT
BRANCH   1   4
ATOM      4  C   UNL     1      45.371   5.345  12.205  0.00  0.00    +0.000 A 
ATOM      5  C   UNL     1      46.011   6.420  11.577  0.00  0.00    +0.000 A 
ATOM      6  C   UNL     1      47.190   6.953  12.098  0.00  0.00    +0.000 A 
ATOM      7  C   UNL     1      47.734   6.435  13.277  0.00  0.00    +0.000 A 
ATOM      8  C   UNL     1      47.141   5.343  13.930  0.00  0.00    +0.000 A 
ATOM      9  C   UNL     1      46.009   4.776  13.325  0.00  0.00    +0.000 A 
BRANCH   8  10
ATOM     10  C   UNL     1      47.556   4.900  15.280  0.00  0.00    +0.000 A 
ATOM     11  C   UNL     1      48.403   5.706  16.062  0.00  0.00    +0.000 A 
ATOM     12  C   UNL     1      48.694   5.387  17.392  0.00  0.00    +0.000 A 
ATOM     13  C   UNL     1      48.136   4.253  17.972  0.00  0.00    +0.000 A 
ATOM     14  C   UNL     1      47.306   3.429  17.218  0.00  0.00    +0.000 A 
ATOM     15  C   UNL     1      47.027   3.744  15.884  0.00  0.00    +0.000 A 
ENDBRANCH   8  10
ENDBRANCH   1   4
BRANCH   1  16
ATOM     16  N   UNL     1      43.957   3.576  11.091  0.00  0.00    +0.000 N 
ATOM     17  H   UNL     1      44.097   2.796  11.732  0.00  0.00    +0.000 HD
BRANCH  16  22
ATOM     18  C   UNL     1      45.893   1.994   8.306  0.00  0.00    +0.000 A 
ATOM     19  C   UNL     1      46.091   3.124   7.529  0.00  0.00    +0.000 A 
ATOM     20  N   UNL     1      45.603   4.340   7.851  0.00  0.00    +0.000 NA
ATOM     21  C   UNL     1      44.899   4.422   9.008  0.00  0.00    +0.000 A 
ATOM     22  C   UNL     1      44.619   3.349   9.863  0.00  0.00    +0.000 A 
ATOM     23  C   UNL     1      45.145   2.115   9.480  0.00  0.00    +0.000 A 
BRANCH  18  25
ATOM     24  N   UNL     1      46.945  -0.267   7.599  0.00  0.00    +0.000 NA
ATOM     25  C   UNL     1      46.471   0.745   7.920  0.00  0.00    +0.000 C 
ENDBRANCH  18  25
ENDBRANCH  16  22
ENDBRANCH   1  16
TORSDOF 5
ENDMDL
MODEL 3
REMARK VINA RESULT:    -7.762      2.907      6.760
REMARK INTER + INTRA:         -10.973
REMARK INTER:                  -9.921
REMARK INTRA:                  -1.052
REMARK UNBOUND:                -0.942
REMARK  Name = 
REMARK  5 active torsions:
REMARK  status: ('A' for Active; 'I' for Inactive)
REMARK    1  A    between atoms: C_2  and  C_3
REMARK    2  A    between atoms: C_7  and  N_8
REMARK    3  A    between atoms: N_8  and  C_9
REMARK    4  A    between atoms: C_9  and  C_10
REMARK    5  A    between atoms: C_14  and  C_15
REMARK                            x       y       z     vdW  Elec       q    Type
REMARK                         _______ _______ _______ _____ _____    ______ ____
ROOT
ATOM      1  C   UNL     1      45.529   5.989  12.085  0.00  0.00    +0.000 C 
ATOM      2  C   UNL     1      44.940   7.229  11.406  0.00  0.00    +0.000 C 
ATOM      3  C   UNL     1      44.509   6.869  12.783  0.00  0.00    +0.000 C 
ENDROOT
BRANCH   1   4
ATOM      4  C   UNL     1      45.047   4.644  11.541  0.00  0.00    +0.000 A 
ATOM      5  C   UNL     1      43.870   4.037  11.995  0.00  0.00    +0.000 A 
ATOM      6  C   UNL     1      43.348   2.917  11.346  0.00  0.00    +0.000 A 
ATOM      7  C   UNL     1      43.983   2.404  10.211  0.00  0.00    +0.000 A 
ATOM      8  C   UNL     1      45.177   2.965   9.733  0.00  0.00    +0.000 A 
ATOM      9  C   UNL     1      45.721   4.031  10.466  0.00  0.00    +0.000 A 
BRANCH   8  10
ATOM     10  C   UNL     1      45.766   2.592   8.427  0.00  0.00    +0.000 A 
ATOM     11  C   UNL     1      45.944   3.563   7.425  0.00  0.00    +0.000 A 
ATOM     12  C   UNL     1      46.630   3.276   6.241  0.00  0.00    +0.000 A 
ATOM     13  C   UNL     1      47.160   2.008   6.035  0.00  0.00    +0.000 A 
ATOM     14  C   UNL     1      46.988   1.022   7.003  0.00  0.00    +0.000 A 
ATOM     15  C   UNL     1      46.290   1.309   8.181  0.00  0.00    +0.000 A 
ENDBRANCH   8  10
ENDBRANCH   1   4
BRANCH   1  16
ATOM     16  N   UNL     1      46.979   6.035  12.382  0.00  0.00    +0.000 N 
ATOM     17  H   UNL     1      47.525   5.535  11.682  0.00  0.00    +0.000 HD
BRANCH  16  22
ATOM     18  C   UNL     1      47.588   4.767  15.850  0.00  0.00    +0.000 A 
ATOM     19  C   UNL     1      48.488   5.736  16.265  0.00  0.00    +0.000 A 
ATOM     20  N   UNL     1      48.918   6.738  15.470  0.00  0.00    +0.000 NA
ATOM     21  C   UNL     1      48.411   6.771  14.212  0.00  0.00    +0.000 A 
ATOM     22  C   UNL     1      47.512   5.840  13.676  0.00  0.00    +0.000 A 
ATOM     23  C   UNL     1      47.104   4.824  14.541  0.00  0.00    +0.000 A 
BRANCH  18  25
ATOM     24  N   UNL     1      46.801   2.934  17.505  0.00  0.00    +0.000 NA
ATOM     25  C   UNL     1      47.150   3.755  16.759  0.00  0.00    +0.000 C 
ENDBRANCH  18  25
ENDBRANCH  16  22
ENDBRANCH   1  16
TORSDOF 5
ENDMDL
MODEL 4
REMARK VINA RESULT:    -7.160      1.307      2.186
REMARK INTER + INTRA:         -10.195
REMARK INTER:                  -9.913
REMARK INTRA:                  -0.282
REMARK UNBOUND:                -0.942
REMARK  Name = 
REMARK  5 active torsions:
REMARK  status: ('A' for Active; 'I' for Inactive)
REMARK    1  A    between atoms: C_2  and  C_3
REMARK    2  A    between atoms: C_7  and  N_8
REMARK    3  A    between atoms: N_8  and  C_9
REMARK    4  A    between atoms: C_9  and  C_10
REMARK    5  A    between atoms: C_14  and  C_15
REMARK                            x       y       z     vdW  Elec       q    Type
REMARK                         _______ _______ _______ _____ _____    ______ ____
ROOT
ATOM      1  C   UNL     1      44.453   4.378  11.489  0.00  0.00    +0.000 C 
ATOM      2  C   UNL     1      45.271   3.393  12.329  0.00  0.00    +0.000 C 
ATOM      3  C   UNL     1      43.928   3.825  12.801  0.00  0.00    +0.000 C 
ENDROOT
BRANCH   1   4
ATOM      4  C   UNL     1      44.957   5.821  11.482  0.00  0.00    +0.000 A 
ATOM      5  C   UNL     1      44.084   6.914  11.443  0.00  0.00    +0.000 A 
ATOM      6  C   UNL     1      44.556   8.212  11.640  0.00  0.00    +0.000 A 
ATOM      7  C   UNL     1      45.910   8.434  11.908  0.00  0.00    +0.000 A 
ATOM      8  C   UNL     1      46.826   7.372  11.934  0.00  0.00    +0.000 A 
ATOM      9  C   UNL     1      46.331   6.093  11.640  0.00  0.00    +0.000 A 
BRANCH   8  10
ATOM     10  C   UNL     1      48.217   7.531  12.417  0.00  0.00    +0.000 A 
ATOM     11  C   UNL     1      49.263   7.759  11.505  0.00  0.00    +0.000 A 
ATOM     12  C   UNL     1      50.558   8.060  11.937  0.00  0.00    +0.000 A 
ATOM     13  C   UNL     1      50.835   8.145  13.296  0.00  0.00    +0.000 A 
ATOM     14  C   UNL     1      49.823   7.910  14.223  0.00  0.00    +0.000 A 
ATOM     15  C   UNL     1      48.531   7.597  13.788  0.00  0.00    +0.000 A 
ENDBRANCH   8  10
ENDBRANCH   1   4
BRANCH   1  16
ATOM     16  N   UNL     1      44.004   3.889  10.166  0.00  0.00    +0.000 N 
ATOM     17  H   UNL     1      43.199   3.268  10.244  0.00  0.00    +0.000 HD
BRANCH  16  22
ATOM     18  C   UNL     1      46.206   1.753   8.022  0.00  0.00    +0.000 A 
ATOM     19  C   UNL     1      46.825   2.762   7.299  0.00  0.00    +0.000 A 
ATOM     20  N   UNL     1      46.536   4.070   7.455  0.00  0.00    +0.000 NA
ATOM     21  C   UNL     1      45.595   4.375   8.384  0.00  0.00    +0.000 A 
ATOM     22  C   UNL     1      44.892   3.445   9.160  0.00  0.00    +0.000 A 
ATOM     23  C   UNL     1      45.229   2.107   8.956  0.00  0.00    +0.000 A 
BRANCH  18  25
ATOM     24  N   UNL     1      46.901  -0.720   7.682  0.00  0.00    +0.000 NA
ATOM     25  C   UNL     1      46.589   0.390   7.829  0.00  0.00    +0.000 C 
ENDBRANCH  18  25
ENDBRANCH  16  22
ENDBRANCH   1  16
TORSDOF 5
ENDMDL
MODEL 5
REMARK VINA RESULT:    -7.118      3.162      6.997
REMARK INTER + INTRA:         -10.141
REMARK INTER:                  -9.132
REMARK INTRA:                  -1.009
REMARK UNBOUND:                -0.942
REMARK  Name = 
REMARK  5 active torsions:
REMARK  status: ('A' for Active; 'I' for Inactive)
REMARK    1  A    between atoms: C_2  and  C_3
REMARK    2  A    between atoms: C_7  and  N_8
REMARK    3  A    between atoms: N_8  and  C_9
REMARK    4  A    between atoms: C_9  and  C_10
REMARK    5  A    between atoms: C_14  and  C_15
REMARK                            x       y       z     vdW  Elec       q    Type
REMARK                         _______ _______ _______ _____ _____    ______ ____
ROOT
ATOM      1  C   UNL     1      45.946   7.097  12.446  0.00  0.00    +0.000 C 
ATOM      2  C   UNL     1      47.046   6.662  13.419  0.00  0.00    +0.000 C 
ATOM      3  C   UNL     1      47.410   7.109  12.048  0.00  0.00    +0.000 C 
ENDROOT
BRANCH   1   4
ATOM      4  C   UNL     1      45.071   5.974  11.889  0.00  0.00    +0.000 A 
ATOM      5  C   UNL     1      43.700   5.897  12.157  0.00  0.00    +0.000 A 
ATOM      6  C   UNL     1      42.890   4.985  11.478  0.00  0.00    +0.000 A 
ATOM      7  C   UNL     1      43.439   4.154  10.497  0.00  0.00    +0.000 A 
ATOM      8  C   UNL     1      44.812   4.180  10.210  0.00  0.00    +0.000 A 
ATOM      9  C   UNL     1      45.609   5.043  10.978  0.00  0.00    +0.000 A 
BRANCH   8  10
ATOM     10  C   UNL     1      45.396   3.476   9.046  0.00  0.00    +0.000 A 
ATOM     11  C   UNL     1      45.956   4.207   7.983  0.00  0.00    +0.000 A 
ATOM     12  C   UNL     1      46.645   3.575   6.943  0.00  0.00    +0.000 A 
ATOM     13  C   UNL     1      46.796   2.193   6.948  0.00  0.00    +0.000 A 
ATOM     14  C   UNL     1      46.240   1.442   7.980  0.00  0.00    +0.000 A 
ATOM     15  C   UNL     1      45.541   2.076   9.013  0.00  0.00    +0.000 A 
ENDBRANCH   8  10
ENDBRANCH   1   4
BRANCH   1  16
ATOM     16  N   UNL     1      45.196   8.320  12.814  0.00  0.00    +0.000 N 
ATOM     17  H   UNL     1      44.270   8.100  13.182  0.00  0.00    +0.000 HD
BRANCH  16  22
ATOM     18  C   UNL     1      44.330  10.806  10.155  0.00  0.00    +0.000 A 
ATOM     19  C   UNL     1      45.368  11.701  10.368  0.00  0.00    +0.000 A 
ATOM     20  N   UNL     1      46.292  11.546  11.339  0.00  0.00    +0.000 NA
ATOM     21  C   UNL     1      46.172  10.441  12.117  0.00  0.00    +0.000 A 
ATOM     22  C   UNL     1      45.160   9.480  12.008  0.00  0.00    +0.000 A 
ATOM     23  C   UNL     1      44.230   9.691  10.990  0.00  0.00    +0.000 A 
BRANCH  18  25
ATOM     24  N   UNL     1      42.663  11.179   8.206  0.00  0.00    +0.000 NA
ATOM     25  C   UNL     1      43.408  11.016   9.083  0.00  0.00    +0.000 C 
ENDBRANCH  18  25
ENDBRANCH  16  22
ENDBRANCH   1  16
TORSDOF 5
ENDMDL
MODEL 6
REMARK VINA RESULT:    -7.016      1.311      1.855
REMARK INTER + INTRA:         -10.009
REMARK INTER:                  -9.265
REMARK INTRA:                  -0.745
REMARK UNBOUND:                -0.942
REMARK  Name = 
REMARK  5 active torsions:
REMARK  status: ('A' for Active; 'I' for Inactive)
REMARK    1  A    between atoms: C_2  and  C_3
REMARK    2  A    between atoms: C_7  and  N_8
REMARK    3  A    between atoms: N_8  and  C_9
REMARK    4  A    between atoms: C_9  and  C_10
REMARK    5  A    between atoms: C_14  and  C_15
REMARK                            x       y       z     vdW  Elec       q    Type
REMARK                         _______ _______ _______ _____ _____    ______ ____
ROOT
ATOM      1  C   UNL     1      44.183   5.042  11.875  0.00  0.00    +0.000 C 
ATOM      2  C   UNL     1      42.831   5.028  12.595  0.00  0.00    +0.000 C 
ATOM      3  C   UNL     1      42.962   5.729  11.289  0.00  0.00    +0.000 C 
ENDROOT
BRANCH   1   4
ATOM      4  C   UNL     1      45.259   5.928  12.502  0.00  0.00    +0.000 A 
ATOM      5  C   UNL     1      46.367   5.393  13.169  0.00  0.00    +0.000 A 
ATOM      6  C   UNL     1      47.432   6.209  13.553  0.00  0.00    +0.000 A 
ATOM      7  C   UNL     1      47.415   7.573  13.250  0.00  0.00    +0.000 A 
ATOM      8  C   UNL     1      46.317   8.158  12.603  0.00  0.00    +0.000 A 
ATOM      9  C   UNL     1      45.226   7.324  12.315  0.00  0.00    +0.000 A 
BRANCH   8  10
ATOM     10  C   UNL     1      46.345   9.543  12.078  0.00  0.00    +0.000 A 
ATOM     11  C   UNL     1      45.155  10.172  11.672  0.00  0.00    +0.000 A 
ATOM     12  C   UNL     1      45.127  11.523  11.313  0.00  0.00    +0.000 A 
ATOM     13  C   UNL     1      46.293  12.278  11.359  0.00  0.00    +0.000 A 
ATOM     14  C   UNL     1      47.489  11.679  11.742  0.00  0.00    +0.000 A 
ATOM     15  C   UNL     1      47.516  10.324  12.089  0.00  0.00    +0.000 A 
ENDBRANCH   8  10
ENDBRANCH   1   4
BRANCH   1  16
ATOM     16  N   UNL     1      44.681   3.732  11.399  0.00  0.00    +0.000 N 
ATOM     17  H   UNL     1      45.317   3.302  12.071  0.00  0.00    +0.000 HD
BRANCH  16  22
ATOM     18  C   UNL     1      46.025   2.117   8.301  0.00  0.00    +0.000 A 
ATOM     19  C   UNL     1      46.149   3.254   7.518  0.00  0.00    +0.000 A 
ATOM     20  N   UNL     1      45.790   4.486   7.936  0.00  0.00    +0.000 NA
ATOM     21  C   UNL     1      45.299   4.576   9.198  0.00  0.00    +0.000 A 
ATOM     22  C   UNL     1      45.111   3.499  10.073  0.00  0.00    +0.000 A 
ATOM     23  C   UNL     1      45.496   2.249   9.588  0.00  0.00    +0.000 A 
BRANCH  18  25
ATOM     24  N   UNL     1      46.821  -0.180   7.404  0.00  0.00    +0.000 NA
ATOM     25  C   UNL     1      46.459   0.850   7.805  0.00  0.00    +0.000 C 
ENDBRANCH  18  25
ENDBRANCH  16  22
ENDBRANCH   1  16
TORSDOF 5
ENDMDL
MODEL 7
REMARK VINA RESULT:    -6.616      2.515      6.466
REMARK INTER + INTRA:          -9.492
REMARK INTER:                  -8.686
REMARK INTRA:                  -0.806
REMARK UNBOUND:                -0.942
REMARK  Name = 
REMARK  5 active torsions:
REMARK  status: ('A' for Active; 'I' for Inactive)
REMARK    1  A    between atoms: C_2  and  C_3
REMARK    2  A    between atoms: C_7  and  N_8
REMARK    3  A    between atoms: N_8  and  C_9
REMARK    4  A    between atoms: C_9  and  C_10
REMARK    5  A    between atoms: C_14  and  C_15
REMARK                            x       y       z     vdW  Elec       q    Type
REMARK                         _______ _______ _______ _____ _____    ______ ____
ROOT
ATOM      1  C   UNL     1      43.732   5.471  11.574  0.00  0.00    +0.000 C 
ATOM      2  C   UNL     1      42.246   5.807  11.737  0.00  0.00    +0.000 C 
ATOM      3  C   UNL     1      43.091   5.596  12.944  0.00  0.00    +0.000 C 
ENDROOT
BRANCH   1   4
ATOM      4  C   UNL     1      44.042   4.064  11.064  0.00  0.00    +0.000 A 
ATOM      5  C   UNL     1      43.271   2.954  11.431  0.00  0.00    +0.000 A 
ATOM      6  C   UNL     1      43.448   1.723  10.798  0.00  0.00    +0.000 A 
ATOM      7  C   UNL     1      44.382   1.591   9.767  0.00  0.00    +0.000 A 
ATOM      8  C   UNL     1      45.192   2.670   9.381  0.00  0.00    +0.000 A 
ATOM      9  C   UNL     1      45.051   3.865  10.102  0.00  0.00    +0.000 A 
BRANCH   8  10
ATOM     10  C   UNL     1      46.038   2.637   8.166  0.00  0.00    +0.000 A 
ATOM     11  C   UNL     1      46.671   1.444   7.773  0.00  0.00    +0.000 A 
ATOM     12  C   UNL     1      47.352   1.342   6.557  0.00  0.00    +0.000 A 
ATOM     13  C   UNL     1      47.410   2.435   5.700  0.00  0.00    +0.000 A 
ATOM     14  C   UNL     1      46.806   3.634   6.068  0.00  0.00    +0.000 A 
ATOM     15  C   UNL     1      46.136   3.736   7.292  0.00  0.00    +0.000 A 
ENDBRANCH   8  10
ENDBRANCH   1   4
BRANCH   1  16
ATOM     16  N   UNL     1      44.577   6.530  10.974  0.00  0.00    +0.000 N 
ATOM     17  H   UNL     1      44.964   6.242  10.076  0.00  0.00    +0.000 HD
BRANCH  16  22
ATOM     18  C   UNL     1      47.360   7.525  13.270  0.00  0.00    +0.000 A 
ATOM     19  C   UNL     1      47.127   8.891  13.290  0.00  0.00    +0.000 A 
ATOM     20  N   UNL     1      46.147   9.487  12.580  0.00  0.00    +0.000 NA
ATOM     21  C   UNL     1      45.365   8.672  11.828  0.00  0.00    +0.000 A 
ATOM     22  C   UNL     1      45.515   7.285  11.713  0.00  0.00    +0.000 A 
ATOM     23  C   UNL     1      46.545   6.722  12.467  0.00  0.00    +0.000 A 
BRANCH  18  25
ATOM     24  N   UNL     1      49.231   6.501  14.742  0.00  0.00    +0.000 NA
ATOM     25  C   UNL     1      48.394   6.959  14.077  0.00  0.00    +0.000 C 
ENDBRANCH  18  25
ENDBRANCH  16  22
ENDBRANCH   1  16
TORSDOF 5
ENDMDL
MODEL 8
REMARK VINA RESULT:    -6.415      3.334      7.199
REMARK INTER + INTRA:          -9.233
REMARK INTER:                  -8.140
REMARK INTRA:                  -1.093
REMARK UNBOUND:                -0.942
REMARK  Name = 
REMARK  5 active torsions:
REMARK  status: ('A' for Active; 'I' for Inactive)
REMARK    1  A    between atoms: C_2  and  C_3
REMARK    2  A    between atoms: C_7  and  N_8
REMARK    3  A    between atoms: N_8  and  C_9
REMARK    4  A    between atoms: C_9  and  C_10
REMARK    5  A    between atoms: C_14  and  C_15
REMARK                            x       y       z     vdW  Elec       q    Type
REMARK                         _______ _______ _______ _____ _____    ______ ____
ROOT
ATOM      1  C   UNL     1      48.667   7.953  12.778  0.00  0.00    +0.000 C 
ATOM      2  C   UNL     1      49.504   8.583  11.661  0.00  0.00    +0.000 C 
ATOM      3  C   UNL     1      49.149   9.390  12.860  0.00  0.00    +0.000 C 
ENDROOT
BRANCH   1   4
ATOM      4  C   UNL     1      47.192   7.721  12.451  0.00  0.00    +0.000 A 
ATOM      5  C   UNL     1      46.234   8.734  12.575  0.00  0.00    +0.000 A 
ATOM      6  C   UNL     1      44.941   8.558  12.081  0.00  0.00    +0.000 A 
ATOM      7  C   UNL     1      44.594   7.372  11.428  0.00  0.00    +0.000 A 
ATOM      8  C   UNL     1      45.514   6.320  11.299  0.00  0.00    +0.000 A 
ATOM      9  C   UNL     1      46.774   6.498  11.890  0.00  0.00    +0.000 A 
BRANCH   8  10
ATOM     10  C   UNL     1      45.262   5.141  10.441  0.00  0.00    +0.000 A 
ATOM     11  C   UNL     1      45.705   5.126   9.106  0.00  0.00    +0.000 A 
ATOM     12  C   UNL     1      45.614   3.976   8.317  0.00  0.00    +0.000 A 
ATOM     13  C   UNL     1      45.080   2.808   8.849  0.00  0.00    +0.000 A 
ATOM     14  C   UNL     1      44.619   2.796  10.162  0.00  0.00    +0.000 A 
ATOM     15  C   UNL     1      44.701   3.953  10.946  0.00  0.00    +0.000 A 
ENDBRANCH   8  10
ENDBRANCH   1   4
BRANCH   1  16
ATOM     16  N   UNL     1      49.302   6.841  13.521  0.00  0.00    +0.000 N 
ATOM     17  H   UNL     1      49.357   5.992  12.959  0.00  0.00    +0.000 HD
BRANCH  16  22
ATOM     18  C   UNL     1      47.960   5.217  16.615  0.00  0.00    +0.000 A 
ATOM     19  C   UNL     1      48.296   6.207  17.525  0.00  0.00    +0.000 A 
ATOM     20  N   UNL     1      48.954   7.335  17.185  0.00  0.00    +0.000 NA
ATOM     21  C   UNL     1      49.275   7.476  15.874  0.00  0.00    +0.000 A 
ATOM     22  C   UNL     1      49.005   6.539  14.870  0.00  0.00    +0.000 A 
ATOM     23  C   UNL     1      48.326   5.391  15.277  0.00  0.00    +0.000 A 
BRANCH  18  25
ATOM     24  N   UNL     1      46.631   3.133  17.393  0.00  0.00    +0.000 NA
ATOM     25  C   UNL     1      47.230   4.065  17.040  0.00  0.00    +0.000 C 
ENDBRANCH  18  25
ENDBRANCH  16  22
ENDBRANCH   1  16
TORSDOF 5
ENDMDL
MODEL 9
REMARK VINA RESULT:    -6.225      3.114      5.726
REMARK INTER + INTRA:          -8.987
REMARK INTER:                  -8.071
REMARK INTRA:                  -0.916
REMARK UNBOUND:                -0.942
REMARK  Name = 
REMARK  5 active torsions:
REMARK  status: ('A' for Active; 'I' for Inactive)
REMARK    1  A    between atoms: C_2  and  C_3
REMARK    2  A    between atoms: C_7  and  N_8
REMARK    3  A    between atoms: N_8  and  C_9
REMARK    4  A    between atoms: C_9  and  C_10
REMARK    5  A    between atoms: C_14  and  C_15
REMARK                            x       y       z     vdW  Elec       q    Type
REMARK                         _______ _______ _______ _____ _____    ______ ____
ROOT
ATOM      1  C   UNL     1      47.887   7.975  12.708  0.00  0.00    +0.000 C 
ATOM      2  C   UNL     1      48.445   9.095  11.825  0.00  0.00    +0.000 C 
ATOM      3  C   UNL     1      48.951   7.706  11.660  0.00  0.00    +0.000 C 
ENDROOT
BRANCH   1   4
ATOM      4  C   UNL     1      48.326   8.002  14.172  0.00  0.00    +0.000 A 
ATOM      5  C   UNL     1      48.172   9.139  14.974  0.00  0.00    +0.000 A 
ATOM      6  C   UNL     1      48.392   9.076  16.350  0.00  0.00    +0.000 A 
ATOM      7  C   UNL     1      48.743   7.864  16.950  0.00  0.00    +0.000 A 
ATOM      8  C   UNL     1      48.932   6.704  16.185  0.00  0.00    +0.000 A 
ATOM      9  C   UNL     1      48.792   6.827  14.794  0.00  0.00    +0.000 A 
BRANCH   8  10
ATOM     10  C   UNL     1      49.096   5.364  16.794  0.00  0.00    +0.000 A 
ATOM     11  C   UNL     1      48.058   4.418  16.718  0.00  0.00    +0.000 A 
ATOM     12  C   UNL     1      48.236   3.101  17.152  0.00  0.00    +0.000 A 
ATOM     13  C   UNL     1      49.463   2.698  17.666  0.00  0.00    +0.000 A 
ATOM     14  C   UNL     1      50.504   3.617  17.767  0.00  0.00    +0.000 A 
ATOM     15  C   UNL     1      50.319   4.937  17.344  0.00  0.00    +0.000 A 
ENDBRANCH   8  10
ENDBRANCH   1   4
BRANCH   1  16
ATOM     16  N   UNL     1      46.456   7.643  12.514  0.00  0.00    +0.000 N 
ATOM     17  H   UNL     1      45.866   8.088  13.215  0.00  0.00    +0.000 HD
BRANCH  16  22
ATOM     18  C   UNL     1      45.134   4.639  10.716  0.00  0.00    +0.000 A 
ATOM     19  C   UNL     1      44.879   3.839  11.819  0.00  0.00    +0.000 A 
ATOM     20  N   UNL     1      45.146   4.216  13.086  0.00  0.00    +0.000 NA
ATOM     21  C   UNL     1      45.678   5.454  13.249  0.00  0.00    +0.000 A 
ATOM     22  C   UNL     1      45.995   6.341  12.214  0.00  0.00    +0.000 A 
ATOM     23  C   UNL     1      45.702   5.899  10.924  0.00  0.00    +0.000 A 
BRANCH  18  25
ATOM     24  N   UNL     1      44.513   3.810   8.340  0.00  0.00    +0.000 NA
ATOM     25  C   UNL     1      44.793   4.187   9.404  0.00  0.00    +0.000 C 
ENDBRANCH  18  25
ENDBRANCH  16  22
ENDBRANCH   1  16
TORSDOF 5
ENDMDL
