MODEL 1
REMARK VINA RESULT:    -7.745      0.000      0.000
REMARK INTER + INTRA:         -11.537
REMARK INTER:                 -10.462
REMARK INTRA:                  -1.075
REMARK UNBOUND:                -1.075
REMARK  Name = 
REMARK  7 active torsions:
REMARK  status: ('A' for Active; 'I' for Inactive)
REMARK    1  A    between atoms: C_1  and  O_2
REMARK    2  A    between atoms: O_2  and  C_3
REMARK    3  A    between atoms: C_7  and  C_8
REMARK    4  A    between atoms: C_8  and  C_9
REMARK    5  A    between atoms: C_12  and  C_13
REMARK    6  A    between atoms: C_13  and  N_14
REMARK    7  A    between atoms: C_15  and  C_17
REMARK                            x       y       z     vdW  Elec       q    Type
REMARK                         _______ _______ _______ _____ _____    ______ ____
ROOT
ATOM      1  C   UNL     1      47.360   8.102  13.527  0.00  0.00    +0.000 C 
ENDROOT
BRANCH   1   5
ATOM      2  C   UNL     1      44.692   5.494  11.318  0.00  0.00    +0.000 A 
ATOM      3  C   UNL     1      44.447   6.872  11.386  0.00  0.00    +0.000 A 
ATOM      4  C   UNL     1      45.291   7.715  12.117  0.00  0.00    +0.000 A 
ATOM      5  C   UNL     1      46.402   7.198  12.796  0.00  0.00    +0.000 A 
ATOM      6  C   UNL     1      46.615   5.814  12.774  0.00  0.00    +0.000 A 
ATOM      7  C   UNL     1      45.777   4.971  12.036  0.00  0.00    +0.000 A 
BRANCH   2   8
ATOM      8  C   UNL     1      43.836   4.602  10.445  0.00  0.00    +0.000 C 
BRANCH   8  13
ATOM      9  C   UNL     1      45.987   3.463   7.506  0.00  0.00    +0.000 A 
ATOM     10  C   UNL     1      45.990   2.098   7.781  0.00  0.00    +0.000 A 
ATOM     11  N   UNL     1      45.378   1.529   8.843  0.00  0.00    +0.000 NA
ATOM     12  C   UNL     1      44.712   2.363   9.670  0.00  0.00    +0.000 A 
ATOM     13  C   UNL     1      44.638   3.743   9.499  0.00  0.00    +0.000 A 
ATOM     14  C   UNL     1      45.301   4.292   8.391  0.00  0.00    +0.000 A 
BRANCH   9  16
ATOM     15  C   UNL     1      47.011   2.826   5.464  0.00  0.00    +0.000 C 
ATOM     16  O   UNL     1      46.655   3.853   6.381  0.00  0.00    +0.000 OA
ENDBRANCH   9  16
ENDBRANCH   8  13
ENDBRANCH   2   8
ENDBRANCH   1   5
BRANCH   1  17
ATOM     17  N   UNL     1      47.735   7.574  14.815  0.00  0.00    +0.000 N 
ATOM     18  C   UNL     1      49.012   7.112  15.036  0.00  0.00    +0.000 C 
ATOM     19  O   UNL     1      49.881   7.168  14.170  0.00  0.00    +0.000 OA
ATOM     20  H   UNL     1      46.986   7.288  15.439  0.00  0.00    +0.000 HD
BRANCH  18  21
ATOM     21  C   UNL     1      49.304   6.596  16.378  0.00  0.00    +0.000 A 
ATOM     22  C   UNL     1      50.127   7.323  17.227  0.00  0.00    +0.000 A 
ATOM     23  S   UNL     1      50.352   6.594  18.753  0.00  0.00    +0.000 S 
ATOM     24  C   UNL     1      49.395   5.257  18.315  0.00  0.00    +0.000 A 
ATOM     25  N   UNL     1      49.207   4.220  19.176  0.00  0.00    +0.000 NA
ATOM     26  C   UNL     1      48.480   3.263  18.704  0.00  0.00    +0.000 A 
ATOM     27  N   UNL     1      47.916   3.252  17.454  0.00  0.00    +0.000 N 
ATOM     28  C   UNL     1      48.053   4.292  16.564  0.00  0.00    +0.000 A 
ATOM     29  O   UNL     1      47.492   4.275  15.473  0.00  0.00    +0.000 OA
ATOM     30  C   UNL     1      48.882   5.382  17.035  0.00  0.00    +0.000 A 
ATOM     31  H   UNL     1      47.344   2.478  17.153  0.00  0.00    +0.000 HD
ENDBRANCH  18  21
ENDBRANCH   1  17
TORSDOF 6
ENDMDL
MODEL 2
REMARK VINA RESULT:    -7.379      1.946      2.382
REMARK INTER + INTRA:         -11.043
REMARK INTER:                  -9.933
REMARK INTRA:                  -1.110
REMARK UNBOUND:                -1.075
REMARK  Name = 
REMARK  7 active torsions:
REMARK  status: ('A' for Active; 'I' for Inactive)
REMARK    1  A    between atoms: C_1  and  O_2
REMARK    2  A    between atoms: O_2  and  C_3
REMARK    3  A    between atoms: C_7  and  C_8
REMARK    4  A    between atoms: C_8  and  C_9
REMARK    5  A    between atoms: C_12  and  C_13
REMARK    6  A    between atoms: C_13  and  N_14
REMARK    7  A    between atoms: C_15  and  C_17
REMARK                            x       y       z     vdW  Elec       q    Type
REMARK                         _______ _______ _______ _____ _____    ______ ____
ROOT
ATOM      1  C   UNL     1      48.120   7.203  14.068  0.00  0.00    +0.000 C 
ENDROOT
BRANCH   1   5
ATOM      2  C   UNL     1      45.114   5.381  11.530  0.00  0.00    +0.000 A 
ATOM      3  C   UNL     1      45.461   6.729  11.368  0.00  0.00    +0.000 A 
ATOM      4  C   UNL     1      46.413   7.329  12.200  0.00  0.00    +0.000 A 
ATOM      5  C   UNL     1      47.042   6.591  13.212  0.00  0.00    +0.000 A 
ATOM      6  C   UNL     1      46.654   5.260  13.409  0.00  0.00    +0.000 A 
ATOM      7  C   UNL     1      45.709   4.657  12.572  0.00  0.00    +0.000 A 
BRANCH   2   8
ATOM      8  C   UNL     1      44.159   4.712  10.564  0.00  0.00    +0.000 C 
BRANCH   8  13
ATOM      9  C   UNL     1      46.085   3.541   7.485  0.00  0.00    +0.000 A 
ATOM     10  C   UNL     1      45.998   2.170   7.707  0.00  0.00    +0.000 A 
ATOM     11  N   UNL     1      45.393   1.603   8.775  0.00  0.00    +0.000 NA
ATOM     12  C   UNL     1      44.828   2.449   9.664  0.00  0.00    +0.000 A 
ATOM     13  C   UNL     1      44.851   3.837   9.549  0.00  0.00    +0.000 A 
ATOM     14  C   UNL     1      45.503   4.381   8.433  0.00  0.00    +0.000 A 
BRANCH   9  16
ATOM     15  C   UNL     1      46.942   2.922   5.362  0.00  0.00    +0.000 C 
ATOM     16  O   UNL     1      46.729   3.928   6.345  0.00  0.00    +0.000 OA
ENDBRANCH   9  16
ENDBRANCH   8  13
ENDBRANCH   2   8
ENDBRANCH   1   5
BRANCH   1  17
ATOM     17  N   UNL     1      47.981   6.847  15.458  0.00  0.00    +0.000 N 
ATOM     18  C   UNL     1      49.077   6.461  16.194  0.00  0.00    +0.000 C 
ATOM     19  O   UNL     1      50.207   6.443  15.714  0.00  0.00    +0.000 OA
ATOM     20  H   UNL     1      47.050   6.613  15.790  0.00  0.00    +0.000 HD
BRANCH  18  21
ATOM     21  C   UNL     1      48.841   6.122  17.601  0.00  0.00    +0.000 A 
ATOM     22  C   UNL     1      49.117   4.838  18.052  0.00  0.00    +0.000 A 
ATOM     23  S   UNL     1      48.803   4.613  19.714  0.00  0.00    +0.000 S 
ATOM     24  C   UNL     1      48.241   6.210  19.879  0.00  0.00    +0.000 A 
ATOM     25  N   UNL     1      47.773   6.666  21.072  0.00  0.00    +0.000 NA
ATOM     26  C   UNL     1      47.356   7.888  21.047  0.00  0.00    +0.000 A 
ATOM     27  N   UNL     1      47.374   8.699  19.941  0.00  0.00    +0.000 N 
ATOM     28  C   UNL     1      47.868   8.291  18.724  0.00  0.00    +0.000 A 
ATOM     29  O   UNL     1      47.919   9.056  17.767  0.00  0.00    +0.000 OA
ATOM     30  C   UNL     1      48.326   6.916  18.691  0.00  0.00    +0.000 A 
ATOM     31  H   UNL     1      47.048   9.652  19.994  0.00  0.00    +0.000 HD
ENDBRANCH  18  21
ENDBRANCH   1  17
TORSDOF 6
ENDMDL
MODEL 3
REMARK VINA RESULT:    -7.150      2.014      2.272
REMARK INTER + INTRA:         -10.732
REMARK INTER:                  -9.703
REMARK INTRA:                  -1.029
REMARK UNBOUND:                -1.075
REMARK  Name = 
REMARK  7 active torsions:
REMARK  status: ('A' for Active; 'I' for Inactive)
REMARK    1  A    between atoms: C_1  and  O_2
REMARK    2  A    between atoms: O_2  and  C_3
REMARK    3  A    between atoms: C_7  and  C_8
REMARK    4  A    between atoms: C_8  and  C_9
REMARK    5  A    between atoms: C_12  and  C_13
REMARK    6  A    between atoms: C_13  and  N_14
REMARK    7  A    between atoms: C_15  and  C_17
REMARK                            x       y       z     vdW  Elec       q    Type
REMARK                         _______ _______ _______ _____ _____    ______ ____
ROOT
ATOM      1  C   UNL     1      48.535   6.547  14.620  0.00  0.00    +0.000 C 
ENDROOT
BRANCH   1   5
ATOM      2  C   UNL     1      45.261   5.550  11.958  0.00  0.00    +0.000 A 
ATOM      3  C   UNL     1      45.774   6.854  11.999  0.00  0.00    +0.000 A 
ATOM      4  C   UNL     1      46.815   7.187  12.874  0.00  0.00    +0.000 A 
ATOM      5  C   UNL     1      47.367   6.222  13.726  0.00  0.00    +0.000 A 
ATOM      6  C   UNL     1      46.816   4.934  13.724  0.00  0.00    +0.000 A 
ATOM      7  C   UNL     1      45.781   4.597  12.844  0.00  0.00    +0.000 A 
BRANCH   2   8
ATOM      8  C   UNL     1      44.205   5.171  10.941  0.00  0.00    +0.000 C 
BRANCH   8  13
ATOM      9  C   UNL     1      45.836   3.693   7.824  0.00  0.00    +0.000 A 
ATOM     10  C   UNL     1      45.471   2.364   8.021  0.00  0.00    +0.000 A 
ATOM     11  N   UNL     1      44.768   1.913   9.083  0.00  0.00    +0.000 NA
ATOM     12  C   UNL     1      44.392   2.838   9.992  0.00  0.00    +0.000 A 
ATOM     13  C   UNL     1      44.698   4.193   9.904  0.00  0.00    +0.000 A 
ATOM     14  C   UNL     1      45.444   4.615   8.793  0.00  0.00    +0.000 A 
BRANCH   9  16
ATOM     15  C   UNL     1      46.880   2.848   5.869  0.00  0.00    +0.000 C 
ATOM     16  O   UNL     1      46.542   3.962   6.686  0.00  0.00    +0.000 OA
ENDBRANCH   9  16
ENDBRANCH   8  13
ENDBRANCH   2   8
ENDBRANCH   1   5
BRANCH   1  17
ATOM     17  N   UNL     1      48.121   6.859  15.966  0.00  0.00    +0.000 N 
ATOM     18  C   UNL     1      48.896   7.667  16.765  0.00  0.00    +0.000 C 
ATOM     19  O   UNL     1      49.935   8.179  16.357  0.00  0.00    +0.000 OA
ATOM     20  H   UNL     1      47.425   6.256  16.392  0.00  0.00    +0.000 HD
BRANCH  18  21
ATOM     21  C   UNL     1      48.394   7.933  18.117  0.00  0.00    +0.000 A 
ATOM     22  C   UNL     1      48.152   9.242  18.514  0.00  0.00    +0.000 A 
ATOM     23  S   UNL     1      47.557   9.377  20.107  0.00  0.00    +0.000 S 
ATOM     24  C   UNL     1      47.647   7.694  20.340  0.00  0.00    +0.000 A 
ATOM     25  N   UNL     1      47.311   7.135  21.534  0.00  0.00    +0.000 NA
ATOM     26  C   UNL     1      47.450   5.852  21.579  0.00  0.00    +0.000 A 
ATOM     27  N   UNL     1      47.886   5.076  20.535  0.00  0.00    +0.000 N 
ATOM     28  C   UNL     1      48.207   5.594  19.302  0.00  0.00    +0.000 A 
ATOM     29  O   UNL     1      48.543   4.868  18.373  0.00  0.00    +0.000 OA
ATOM     30  C   UNL     1      48.092   7.035  19.206  0.00  0.00    +0.000 A 
ATOM     31  H   UNL     1      47.957   4.074  20.632  0.00  0.00    +0.000 HD
ENDBRANCH  18  21
ENDBRANCH   1  17
TORSDOF 6
ENDMDL
MODEL 4
REMARK VINA RESULT:    -7.053      2.595      4.417
REMARK INTER + INTRA:         -10.602
REMARK INTER:                  -9.442
REMARK INTRA:                  -1.160
REMARK UNBOUND:                -1.075
REMARK  Name = 
REMARK  7 active torsions:
REMARK  status: ('A' for Active; 'I' for Inactive)
REMARK    1  A    between atoms: C_1  and  O_2
REMARK    2  A    between atoms: O_2  and  C_3
REMARK    3  A    between atoms: C_7  and  C_8
REMARK    4  A    between atoms: C_8  and  C_9
REMARK    5  A    between atoms: C_12  and  C_13
REMARK    6  A    between atoms: C_13  and  N_14
REMARK    7  A    between atoms: C_15  and  C_17
REMARK                            x       y       z     vdW  Elec       q    Type
REMARK                         _______ _______ _______ _____ _____    ______ ____
ROOT
ATOM      1  C   UNL     1      47.218   5.244  14.566  0.00  0.00    +0.000 C 
ENDROOT
BRANCH   1   5
ATOM      2  C   UNL     1      44.952   3.964  11.098  0.00  0.00    +0.000 A 
ATOM      3  C   UNL     1      45.338   5.304  11.242  0.00  0.00    +0.000 A 
ATOM      4  C   UNL     1      46.049   5.727  12.371  0.00  0.00    +0.000 A 
ATOM      5  C   UNL     1      46.391   4.818  13.380  0.00  0.00    +0.000 A 
ATOM      6  C   UNL     1      45.957   3.492  13.262  0.00  0.00    +0.000 A 
ATOM      7  C   UNL     1      45.255   3.065  12.130  0.00  0.00    +0.000 A 
BRANCH   2   8
ATOM      8  C   UNL     1      44.273   3.492   9.830  0.00  0.00    +0.000 C 
BRANCH   8  13
ATOM      9  C   UNL     1      46.724   1.696   7.522  0.00  0.00    +0.000 A 
ATOM     10  C   UNL     1      47.053   2.775   6.706  0.00  0.00    +0.000 A 
ATOM     11  N   UNL     1      46.531   4.015   6.829  0.00  0.00    +0.000 NA
ATOM     12  C   UNL     1      45.644   4.198   7.830  0.00  0.00    +0.000 A 
ATOM     13  C   UNL     1      45.238   3.197   8.709  0.00  0.00    +0.000 A 
ATOM     14  C   UNL     1      45.793   1.920   8.535  0.00  0.00    +0.000 A 
BRANCH   9  16
ATOM     15  C   UNL     1      46.681  -0.673   7.629  0.00  0.00    +0.000 C 
ATOM     16  O   UNL     1      47.360   0.519   7.251  0.00  0.00    +0.000 OA
ENDBRANCH   9  16
ENDBRANCH   8  13
ENDBRANCH   2   8
ENDBRANCH   1   5
BRANCH   1  17
ATOM     17  N   UNL     1      47.760   6.570  14.404  0.00  0.00    +0.000 N 
ATOM     18  C   UNL     1      48.953   6.915  14.998  0.00  0.00    +0.000 C 
ATOM     19  O   UNL     1      49.612   6.107  15.646  0.00  0.00    +0.000 OA
ATOM     20  H   UNL     1      47.124   7.302  14.102  0.00  0.00    +0.000 HD
BRANCH  18  21
ATOM     21  C   UNL     1      49.429   8.284  14.776  0.00  0.00    +0.000 A 
ATOM     22  C   UNL     1      49.758   9.081  15.864  0.00  0.00    +0.000 A 
ATOM     23  S   UNL     1      50.309  10.637  15.433  0.00  0.00    +0.000 S 
ATOM     24  C   UNL     1      50.081  10.317  13.778  0.00  0.00    +0.000 A 
ATOM     25  N   UNL     1      50.333  11.271  12.841  0.00  0.00    +0.000 NA
ATOM     26  C   UNL     1      50.094  10.901  11.628  0.00  0.00    +0.000 A 
ATOM     27  N   UNL     1      49.634   9.661  11.264  0.00  0.00    +0.000 N 
ATOM     28  C   UNL     1      49.395   8.657  12.174  0.00  0.00    +0.000 A 
ATOM     29  O   UNL     1      49.034   7.543  11.813  0.00  0.00    +0.000 OA
ATOM     30  C   UNL     1      49.625   9.030  13.555  0.00  0.00    +0.000 A 
ATOM     31  H   UNL     1      49.481   9.431  10.294  0.00  0.00    +0.000 HD
ENDBRANCH  18  21
ENDBRANCH   1  17
TORSDOF 6
ENDMDL
MODEL 5
REMARK VINA RESULT:    -6.813      3.682      8.607
REMARK INTER + INTRA:         -10.278
REMARK INTER:                  -9.373
REMARK INTRA:                  -0.905
REMARK UNBOUND:                -1.075
REMARK  Name = 
REMARK  7 active torsions:
REMARK  status: ('A' for Active; 'I' for Inactive)
REMARK    1  A    between atoms: C_1  and  O_2
REMARK    2  A    between atoms: O_2  and  C_3
REMARK    3  A    between atoms: C_7  and  C_8
REMARK    4  A    between atoms: C_8  and  C_9
REMARK    5  A    between atoms: C_12  and  C_13
REMARK    6  A    between atoms: C_13  and  N_14
REMARK    7  A    between atoms: C_15  and  C_17
REMARK                            x       y       z     vdW  Elec       q    Type
REMARK                         _______ _______ _______ _____ _____    ______ ____
ROOT
ATOM      1  C   UNL     1      48.426   7.343  13.345  0.00  0.00    +0.000 C 
ENDROOT
BRANCH   1   5
ATOM      2  C   UNL     1      49.670   5.593  17.112  0.00  0.00    +0.000 A 
ATOM      3  C   UNL     1      48.401   5.319  16.583  0.00  0.00    +0.000 A 
ATOM      4  C   UNL     1      47.985   5.900  15.380  0.00  0.00    +0.000 A 
ATOM      5  C   UNL     1      48.832   6.767  14.677  0.00  0.00    +0.000 A 
ATOM      6  C   UNL     1      50.077   7.083  15.233  0.00  0.00    +0.000 A 
ATOM      7  C   UNL     1      50.498   6.496  16.432  0.00  0.00    +0.000 A 
BRANCH   2   8
ATOM      8  C   UNL     1      50.152   4.884  18.360  0.00  0.00    +0.000 C 
BRANCH   8  13
ATOM      9  C   UNL     1      52.876   2.228  18.067  0.00  0.00    +0.000 A 
ATOM     10  C   UNL     1      52.126   1.245  17.428  0.00  0.00    +0.000 A 
ATOM     11  N   UNL     1      50.818   1.366  17.111  0.00  0.00    +0.000 NA
ATOM     12  C   UNL     1      50.227   2.536  17.433  0.00  0.00    +0.000 A 
ATOM     13  C   UNL     1      50.873   3.591  18.072  0.00  0.00    +0.000 A 
ATOM     14  C   UNL     1      52.226   3.416  18.397  0.00  0.00    +0.000 A 
BRANCH   9  16
ATOM     15  C   UNL     1      54.547   0.554  18.245  0.00  0.00    +0.000 C 
ATOM     16  O   UNL     1      54.188   1.929  18.300  0.00  0.00    +0.000 OA
ENDBRANCH   9  16
ENDBRANCH   8  13
ENDBRANCH   2   8
ENDBRANCH   1   5
BRANCH   1  17
ATOM     17  N   UNL     1      47.698   6.394  12.539  0.00  0.00    +0.000 N 
ATOM     18  C   UNL     1      46.506   6.747  11.950  0.00  0.00    +0.000 C 
ATOM     19  O   UNL     1      46.041   7.878  12.054  0.00  0.00    +0.000 OA
ATOM     20  H   UNL     1      47.927   5.412  12.654  0.00  0.00    +0.000 HD
BRANCH  18  21
ATOM     21  C   UNL     1      45.839   5.718  11.145  0.00  0.00    +0.000 A 
ATOM     22  C   UNL     1      45.956   5.748   9.762  0.00  0.00    +0.000 A 
ATOM     23  S   UNL     1      45.135   4.475   8.977  0.00  0.00    +0.000 S 
ATOM     24  C   UNL     1      44.555   3.867  10.456  0.00  0.00    +0.000 A 
ATOM     25  N   UNL     1      43.736   2.780  10.491  0.00  0.00    +0.000 NA
ATOM     26  C   UNL     1      43.352   2.442  11.676  0.00  0.00    +0.000 A 
ATOM     27  N   UNL     1      43.719   3.086  12.831  0.00  0.00    +0.000 N 
ATOM     28  C   UNL     1      44.569   4.167  12.845  0.00  0.00    +0.000 A 
ATOM     29  O   UNL     1      44.919   4.688  13.898  0.00  0.00    +0.000 OA
ATOM     30  C   UNL     1      45.009   4.603  11.536  0.00  0.00    +0.000 A 
ATOM     31  H   UNL     1      43.394   2.760  13.729  0.00  0.00    +0.000 HD
ENDBRANCH  18  21
ENDBRANCH   1  17
TORSDOF 6
ENDMDL
MODEL 6
REMARK VINA RESULT:    -6.757      2.901      8.656
REMARK INTER + INTRA:         -10.202
REMARK INTER:                  -8.986
REMARK INTRA:                  -1.216
REMARK UNBOUND:                -1.075
REMARK  Name = 
REMARK  7 active torsions:
REMARK  status: ('A' for Active; 'I' for Inactive)
REMARK    1  A    between atoms: C_1  and  O_2
REMARK    2  A    between atoms: O_2  and  C_3
REMARK    3  A    between atoms: C_7  and  C_8
REMARK    4  A    between atoms: C_8  and  C_9
REMARK    5  A    between atoms: C_12  and  C_13
REMARK    6  A    between atoms: C_13  and  N_14
REMARK    7  A    between atoms: C_15  and  C_17
REMARK                            x       y       z     vdW  Elec       q    Type
REMARK                         _______ _______ _______ _____ _____    ______ ____
ROOT
ATOM      1  C   UNL     1      47.873   7.905  11.767  0.00  0.00    +0.000 C 
ENDROOT
BRANCH   1   5
ATOM      2  C   UNL     1      49.419   8.252  15.803  0.00  0.00    +0.000 A 
ATOM      3  C   UNL     1      48.277   8.966  15.414  0.00  0.00    +0.000 A 
ATOM      4  C   UNL     1      47.788   8.876  14.105  0.00  0.00    +0.000 A 
ATOM      5  C   UNL     1      48.429   8.068  13.158  0.00  0.00    +0.000 A 
ATOM      6  C   UNL     1      49.601   7.399  13.533  0.00  0.00    +0.000 A 
ATOM      7  C   UNL     1      50.086   7.480  14.842  0.00  0.00    +0.000 A 
BRANCH   2   8
ATOM      8  C   UNL     1      49.885   8.274  17.243  0.00  0.00    +0.000 C 
BRANCH   8  13
ATOM      9  C   UNL     1      47.553   5.544  18.537  0.00  0.00    +0.000 A 
ATOM     10  C   UNL     1      47.472   5.965  19.862  0.00  0.00    +0.000 A 
ATOM     11  N   UNL     1      48.125   7.035  20.367  0.00  0.00    +0.000 NA
ATOM     12  C   UNL     1      48.888   7.737  19.501  0.00  0.00    +0.000 A 
ATOM     13  C   UNL     1      49.046   7.413  18.156  0.00  0.00    +0.000 A 
ATOM     14  C   UNL     1      48.363   6.285  17.679  0.00  0.00    +0.000 A 
BRANCH   9  16
ATOM     15  C   UNL     1      47.206   3.744  17.032  0.00  0.00    +0.000 C 
ATOM     16  O   UNL     1      46.816   4.443  18.208  0.00  0.00    +0.000 OA
ENDBRANCH   9  16
ENDBRANCH   8  13
ENDBRANCH   2   8
ENDBRANCH   1   5
BRANCH   1  17
ATOM     17  N   UNL     1      47.109   6.690  11.624  0.00  0.00    +0.000 N 
ATOM     18  C   UNL     1      45.743   6.700  11.784  0.00  0.00    +0.000 C 
ATOM     19  O   UNL     1      45.124   7.736  12.014  0.00  0.00    +0.000 OA
ATOM     20  H   UNL     1      47.613   5.811  11.690  0.00  0.00    +0.000 HD
BRANCH  18  21
ATOM     21  C   UNL     1      45.050   5.419  11.615  0.00  0.00    +0.000 A 
ATOM     22  C   UNL     1      44.334   4.882  12.677  0.00  0.00    +0.000 A 
ATOM     23  S   UNL     1      43.575   3.398  12.311  0.00  0.00    +0.000 S 
ATOM     24  C   UNL     1      44.217   3.398  10.735  0.00  0.00    +0.000 A 
ATOM     25  N   UNL     1      43.978   2.363   9.884  0.00  0.00    +0.000 NA
ATOM     26  C   UNL     1      44.546   2.482   8.731  0.00  0.00    +0.000 A 
ATOM     27  N   UNL     1      45.323   3.545   8.347  0.00  0.00    +0.000 N 
ATOM     28  C   UNL     1      45.565   4.626   9.163  0.00  0.00    +0.000 A 
ATOM     29  O   UNL     1      46.221   5.585   8.772  0.00  0.00    +0.000 OA
ATOM     30  C   UNL     1      44.970   4.531  10.480  0.00  0.00    +0.000 A 
ATOM     31  H   UNL     1      45.726   3.583   7.423  0.00  0.00    +0.000 HD
ENDBRANCH  18  21
ENDBRANCH   1  17
TORSDOF 6
ENDMDL
MODEL 7
REMARK VINA RESULT:    -6.718      4.911      7.634
REMARK INTER + INTRA:         -10.149
REMARK INTER:                  -9.172
REMARK INTRA:                  -0.977
REMARK UNBOUND:                -1.075
REMARK  Name = 
REMARK  7 active torsions:
REMARK  status: ('A' for Active; 'I' for Inactive)
REMARK    1  A    between atoms: C_1  and  O_2
REMARK    2  A    between atoms: O_2  and  C_3
REMARK    3  A    between atoms: C_7  and  C_8
REMARK    4  A    between atoms: C_8  and  C_9
REMARK    5  A    between atoms: C_12  and  C_13
REMARK    6  A    between atoms: C_13  and  N_14
REMARK    7  A    between atoms: C_15  and  C_17
REMARK                            x       y       z     vdW  Elec       q    Type
REMARK                         _______ _______ _______ _____ _____    ______ ____
ROOT
ATOM      1  C   UNL     1      46.842   8.203  12.890  0.00  0.00    +0.000 C 
ENDROOT
BRANCH   1   5
ATOM      2  C   UNL     1      50.861   8.542  11.298  0.00  0.00    +0.000 A 
ATOM      3  C   UNL     1      49.978   9.629  11.241  0.00  0.00    +0.000 A 
ATOM      4  C   UNL     1      48.672   9.517  11.732  0.00  0.00    +0.000 A 
ATOM      5  C   UNL     1      48.221   8.315  12.293  0.00  0.00    +0.000 A 
ATOM      6  C   UNL     1      49.085   7.213  12.298  0.00  0.00    +0.000 A 
ATOM      7  C   UNL     1      50.394   7.326  11.816  0.00  0.00    +0.000 A 
BRANCH   2   8
ATOM      8  C   UNL     1      52.301   8.697  10.858  0.00  0.00    +0.000 C 
BRANCH   8  13
ATOM      9  C   UNL     1      52.594   6.921   7.493  0.00  0.00    +0.000 A 
ATOM     10  C   UNL     1      53.002   8.012   6.729  0.00  0.00    +0.000 A 
ATOM     11  N   UNL     1      53.163   9.265   7.208  0.00  0.00    +0.000 NA
ATOM     12  C   UNL     1      52.922   9.441   8.525  0.00  0.00    +0.000 A 
ATOM     13  C   UNL     1      52.510   8.428   9.388  0.00  0.00    +0.000 A 
ATOM     14  C   UNL     1      52.340   7.146   8.844  0.00  0.00    +0.000 A 
BRANCH   9  16
ATOM     15  C   UNL     1      53.482   4.752   7.136  0.00  0.00    +0.000 C 
ATOM     16  O   UNL     1      52.494   5.729   6.835  0.00  0.00    +0.000 OA
ENDBRANCH   9  16
ENDBRANCH   8  13
ENDBRANCH   2   8
ENDBRANCH   1   5
BRANCH   1  17
ATOM     17  N   UNL     1      46.262   6.900  12.682  0.00  0.00    +0.000 N 
ATOM     18  C   UNL     1      45.242   6.726  11.775  0.00  0.00    +0.000 C 
ATOM     19  O   UNL     1      44.818   7.652  11.090  0.00  0.00    +0.000 OA
ATOM     20  H   UNL     1      46.415   6.200  13.401  0.00  0.00    +0.000 HD
BRANCH  18  21
ATOM     21  C   UNL     1      44.716   5.364  11.627  0.00  0.00    +0.000 A 
ATOM     22  C   UNL     1      44.026   4.778  12.679  0.00  0.00    +0.000 A 
ATOM     23  S   UNL     1      43.469   3.201  12.340  0.00  0.00    +0.000 S 
ATOM     24  C   UNL     1      44.172   3.230  10.791  0.00  0.00    +0.000 A 
ATOM     25  N   UNL     1      44.096   2.147   9.970  0.00  0.00    +0.000 NA
ATOM     26  C   UNL     1      44.693   2.298   8.835  0.00  0.00    +0.000 A 
ATOM     27  N   UNL     1      45.352   3.435   8.442  0.00  0.00    +0.000 N 
ATOM     28  C   UNL     1      45.427   4.563   9.226  0.00  0.00    +0.000 A 
ATOM     29  O   UNL     1      45.978   5.583   8.826  0.00  0.00    +0.000 OA
ATOM     30  C   UNL     1      44.793   4.438  10.523  0.00  0.00    +0.000 A 
ATOM     31  H   UNL     1      45.786   3.493   7.534  0.00  0.00    +0.000 HD
ENDBRANCH  18  21
ENDBRANCH   1  17
TORSDOF 6
ENDMDL
MODEL 8
REMARK VINA RESULT:    -6.647      3.726      4.946
REMARK INTER + INTRA:         -10.054
REMARK INTER:                  -9.196
REMARK INTRA:                  -0.858
REMARK UNBOUND:                -1.075
REMARK  Name = 
REMARK  7 active torsions:
REMARK  status: ('A' for Active; 'I' for Inactive)
REMARK    1  A    between atoms: C_1  and  O_2
REMARK    2  A    between atoms: O_2  and  C_3
REMARK    3  A    between atoms: C_7  and  C_8
REMARK    4  A    between atoms: C_8  and  C_9
REMARK    5  A    between atoms: C_12  and  C_13
REMARK    6  A    between atoms: C_13  and  N_14
REMARK    7  A    between atoms: C_15  and  C_17
REMARK                            x       y       z     vdW  Elec       q    Type
REMARK                         _______ _______ _______ _____ _____    ______ ____
ROOT
ATOM      1  C   UNL     1      48.889   4.557  17.665  0.00  0.00    +0.000 C 
ENDROOT
BRANCH   1   5
ATOM      2  C   UNL     1      47.181   5.660  13.836  0.00  0.00    +0.000 A 
ATOM      3  C   UNL     1      48.091   6.508  14.481  0.00  0.00    +0.000 A 
ATOM      4  C   UNL     1      48.627   6.169  15.729  0.00  0.00    +0.000 A 
ATOM      5  C   UNL     1      48.266   4.970  16.357  0.00  0.00    +0.000 A 
ATOM      6  C   UNL     1      47.315   4.149  15.738  0.00  0.00    +0.000 A 
ATOM      7  C   UNL     1      46.785   4.484  14.487  0.00  0.00    +0.000 A 
BRANCH   2   8
ATOM      8  C   UNL     1      46.682   5.984  12.444  0.00  0.00    +0.000 C 
BRANCH   8  13
ATOM      9  C   UNL     1      44.053   3.665  10.935  0.00  0.00    +0.000 A 
ATOM     10  C   UNL     1      42.924   4.258  11.492  0.00  0.00    +0.000 A 
ATOM     11  N   UNL     1      42.949   5.321  12.326  0.00  0.00    +0.000 NA
ATOM     12  C   UNL     1      44.166   5.833  12.609  0.00  0.00    +0.000 A 
ATOM     13  C   UNL     1      45.365   5.327  12.113  0.00  0.00    +0.000 A 
ATOM     14  C   UNL     1      45.292   4.213  11.264  0.00  0.00    +0.000 A 
BRANCH   9  16
ATOM     15  C   UNL     1      44.575   2.571   8.897  0.00  0.00    +0.000 C 
ATOM     16  O   UNL     1      43.830   2.602  10.108  0.00  0.00    +0.000 OA
ENDBRANCH   9  16
ENDBRANCH   8  13
ENDBRANCH   2   8
ENDBRANCH   1   5
BRANCH   1  17
ATOM     17  N   UNL     1      50.242   4.087  17.501  0.00  0.00    +0.000 N 
ATOM     18  C   UNL     1      51.151   4.200  18.527  0.00  0.00    +0.000 C 
ATOM     19  O   UNL     1      50.840   4.663  19.621  0.00  0.00    +0.000 OA
ATOM     20  H   UNL     1      50.575   3.946  16.552  0.00  0.00    +0.000 HD
BRANCH  18  21
ATOM     21  C   UNL     1      52.502   3.690  18.270  0.00  0.00    +0.000 A 
ATOM     22  C   UNL     1      53.596   4.524  18.459  0.00  0.00    +0.000 A 
ATOM     23  S   UNL     1      55.094   3.774  18.133  0.00  0.00    +0.000 S 
ATOM     24  C   UNL     1      54.329   2.323  17.682  0.00  0.00    +0.000 A 
ATOM     25  N   UNL     1      55.055   1.257  17.247  0.00  0.00    +0.000 NA
ATOM     26  C   UNL     1      54.345   0.231  16.915  0.00  0.00    +0.000 A 
ATOM     27  N   UNL     1      52.977   0.169  16.987  0.00  0.00    +0.000 N 
ATOM     28  C   UNL     1      52.205   1.211  17.450  0.00  0.00    +0.000 A 
ATOM     29  O   UNL     1      50.988   1.106  17.551  0.00  0.00    +0.000 OA
ATOM     30  C   UNL     1      52.953   2.398  17.812  0.00  0.00    +0.000 A 
ATOM     31  H   UNL     1      52.483  -0.671  16.726  0.00  0.00    +0.000 HD
ENDBRANCH  18  21
ENDBRANCH   1  17
TORSDOF 6
ENDMDL
MODEL 9
REMARK VINA RESULT:    -6.379      3.630      8.700
REMARK INTER + INTRA:          -9.691
REMARK INTER:                  -8.812
REMARK INTRA:                  -0.879
REMARK UNBOUND:                -1.075
REMARK  Name = 
REMARK  7 active torsions:
REMARK  status: ('A' for Active; 'I' for Inactive)
REMARK    1  A    between atoms: C_1  and  O_2
REMARK    2  A    between atoms: O_2  and  C_3
REMARK    3  A    between atoms: C_7  and  C_8
REMARK    4  A    between atoms: C_8  and  C_9
REMARK    5  A    between atoms: C_12  and  C_13
REMARK    6  A    between atoms: C_13  and  N_14
REMARK    7  A    between atoms: C_15  and  C_17
REMARK                            x       y       z     vdW  Elec       q    Type
REMARK                         _______ _______ _______ _____ _____    ______ ____
ROOT
ATOM      1  C   UNL     1      48.571   8.111  14.763  0.00  0.00    +0.000 C 
ENDROOT
BRANCH   1   5
ATOM      2  C   UNL     1      51.001   5.976  17.650  0.00  0.00    +0.000 A 
ATOM      3  C   UNL     1      49.632   6.174  17.878  0.00  0.00    +0.000 A 
ATOM      4  C   UNL     1      48.848   6.884  16.962  0.00  0.00    +0.000 A 
ATOM      5  C   UNL     1      49.416   7.408  15.793  0.00  0.00    +0.000 A 
ATOM      6  C   UNL     1      50.794   7.258  15.593  0.00  0.00    +0.000 A 
ATOM      7  C   UNL     1      51.577   6.541  16.504  0.00  0.00    +0.000 A 
BRANCH   2   8
ATOM      8  C   UNL     1      51.822   5.124  18.594  0.00  0.00    +0.000 C 
BRANCH   8  13
ATOM      9  C   UNL     1      52.884   1.482  18.179  0.00  0.00    +0.000 A 
ATOM     10  C   UNL     1      51.787   1.039  17.445  0.00  0.00    +0.000 A 
ATOM     11  N   UNL     1      50.734   1.812  17.099  0.00  0.00    +0.000 NA
ATOM     12  C   UNL     1      50.782   3.103  17.492  0.00  0.00    +0.000 A 
ATOM     13  C   UNL     1      51.824   3.660  18.229  0.00  0.00    +0.000 A 
ATOM     14  C   UNL     1      52.889   2.817  18.580  0.00  0.00    +0.000 A 
BRANCH   9  16
ATOM     15  C   UNL     1      54.333  -0.181  17.308  0.00  0.00    +0.000 C 
ATOM     16  O   UNL     1      53.857   0.557  18.427  0.00  0.00    +0.000 OA
ENDBRANCH   9  16
ENDBRANCH   8  13
ENDBRANCH   2   8
ENDBRANCH   1   5
BRANCH   1  17
ATOM     17  N   UNL     1      47.493   7.282  14.284  0.00  0.00    +0.000 N 
ATOM     18  C   UNL     1      47.720   6.327  13.320  0.00  0.00    +0.000 C 
ATOM     19  O   UNL     1      48.842   6.119  12.865  0.00  0.00    +0.000 OA
ATOM     20  H   UNL     1      46.545   7.605  14.452  0.00  0.00    +0.000 HD
BRANCH  18  21
ATOM     21  C   UNL     1      46.565   5.529  12.897  0.00  0.00    +0.000 A 
ATOM     22  C   UNL     1      46.599   4.148  13.037  0.00  0.00    +0.000 A 
ATOM     23  S   UNL     1      45.172   3.370  12.514  0.00  0.00    +0.000 S 
ATOM     24  C   UNL     1      44.479   4.849  12.038  0.00  0.00    +0.000 A 
ATOM     25  N   UNL     1      43.248   4.889  11.460  0.00  0.00    +0.000 NA
ATOM     26  C   UNL     1      42.855   6.073  11.127  0.00  0.00    +0.000 A 
ATOM     27  N   UNL     1      43.576   7.222  11.327  0.00  0.00    +0.000 N 
ATOM     28  C   UNL     1      44.810   7.233  11.935  0.00  0.00    +0.000 A 
ATOM     29  O   UNL     1      45.407   8.282  12.147  0.00  0.00    +0.000 OA
ATOM     30  C   UNL     1      45.309   5.924  12.307  0.00  0.00    +0.000 A 
ATOM     31  H   UNL     1      43.204   8.119  11.056  0.00  0.00    +0.000 HD
ENDBRANCH  18  21
ENDBRANCH   1  17
TORSDOF 6
ENDMDL
