MODEL 1
REMARK VINA RESULT:    -7.875      0.000      0.000
REMARK INTER + INTRA:         -11.677
REMARK INTER:                 -10.638
REMARK INTRA:                  -1.040
REMARK UNBOUND:                -1.040
REMARK  Name = 
REMARK  6 active torsions:
REMARK  status: ('A' for Active; 'I' for Inactive)
REMARK    1  A    between atoms: C_2  and  C_19
REMARK    2  A    between atoms: N_3  and  C_4
REMARK    3  A    between atoms: C_4  and  C_5
REMARK    4  A    between atoms: C_8  and  C_9
REMARK    5  A    between atoms: C_9  and  N_10
REMARK    6  A    between atoms: N_10  and  C_11
REMARK                            x       y       z     vdW  Elec       q    Type
REMARK                         _______ _______ _______ _____ _____    ______ ____
ROOT
ATOM      1  C   UNL     1      47.258   8.478  13.033  0.00  0.00    +0.000 C 
ENDROOT
BRANCH   1   2
ATOM      2  C   UNL     1      46.416   7.388  12.420  0.00  0.00    +0.000 A 
ATOM      3  C   UNL     1      46.903   6.588  11.372  0.00  0.00    +0.000 A 
ATOM      4  C   UNL     1      46.082   5.631  10.768  0.00  0.00    +0.000 A 
ATOM      5  C   UNL     1      44.752   5.465  11.183  0.00  0.00    +0.000 A 
ATOM      6  C   UNL     1      44.272   6.258  12.233  0.00  0.00    +0.000 A 
ATOM      7  C   UNL     1      45.090   7.216  12.837  0.00  0.00    +0.000 A 
BRANCH   5   8
ATOM      8  C   UNL     1      43.852   4.455  10.512  0.00  0.00    +0.000 C 
BRANCH   8   9
ATOM      9  N   UNL     1      44.072   4.475   9.070  0.00  0.00    +0.000 N 
ATOM     10  H   UNL     1      44.259   5.416   8.726  0.00  0.00    +0.000 HD
BRANCH   9  11
ATOM     11  C   UNL     1      44.926   3.518   8.518  0.00  0.00    +0.000 A 
ATOM     12  C   UNL     1      45.918   3.767   7.581  0.00  0.00    +0.000 A 
ATOM     13  N   UNL     1      46.796   2.850   7.111  0.00  0.00    +0.000 NA
ATOM     14  C   UNL     1      46.689   1.624   7.639  0.00  0.00    +0.000 A 
ATOM     15  N   UNL     1      45.806   1.249   8.575  0.00  0.00    +0.000 NA
ATOM     16  C   UNL     1      44.960   2.214   8.996  0.00  0.00    +0.000 A 
ENDBRANCH   9  11
ENDBRANCH   8   9
ENDBRANCH   5   8
ENDBRANCH   1   2
BRANCH   1  19
ATOM     17  O   UNL     1      49.594   7.018  13.862  0.00  0.00    +0.000 OA
ATOM     18  C   UNL     1      48.703   7.298  14.661  0.00  0.00    +0.000 C 
ATOM     19  N   UNL     1      47.623   8.103  14.375  0.00  0.00    +0.000 N 
ATOM     20  H   UNL     1      46.860   8.104  15.031  0.00  0.00    +0.000 HD
BRANCH  18  21
ATOM     21  C   UNL     1      48.556   6.647  15.954  0.00  0.00    +0.000 A 
ATOM     22  C   UNL     1      48.961   7.234  17.140  0.00  0.00    +0.000 A 
ATOM     23  S   UNL     1      49.154   6.075  18.391  0.00  0.00    +0.000 S 
ATOM     24  C   UNL     1      48.573   4.817  17.393  0.00  0.00    +0.000 A 
ATOM     25  N   UNL     1      48.598   3.512  17.775  0.00  0.00    +0.000 NA
ATOM     26  C   UNL     1      48.073   2.701  16.914  0.00  0.00    +0.000 A 
ATOM     27  N   UNL     1      47.483   3.078  15.734  0.00  0.00    +0.000 N 
ATOM     28  C   UNL     1      47.424   4.383  15.313  0.00  0.00    +0.000 A 
ATOM     29  O   UNL     1      46.844   4.706  14.282  0.00  0.00    +0.000 OA
ATOM     30  C   UNL     1      48.112   5.306  16.191  0.00  0.00    +0.000 A 
ATOM     31  H   UNL     1      47.019   2.402  15.143  0.00  0.00    +0.000 HD
ENDBRANCH  18  21
ENDBRANCH   1  19
TORSDOF 6
ENDMDL
MODEL 2
REMARK VINA RESULT:    -7.664      1.416      1.993
REMARK INTER + INTRA:         -11.392
REMARK INTER:                 -10.310
REMARK INTRA:                  -1.082
REMARK UNBOUND:                -1.040
REMARK  Name = 
REMARK  6 active torsions:
REMARK  status: ('A' for Active; 'I' for Inactive)
REMARK    1  A    between atoms: C_2  and  C_19
REMARK    2  A    between atoms: N_3  and  C_4
REMARK    3  A    between atoms: C_4  and  C_5
REMARK    4  A    between atoms: C_8  and  C_9
REMARK    5  A    between atoms: C_9  and  N_10
REMARK    6  A    between atoms: N_10  and  C_11
REMARK                            x       y       z     vdW  Elec       q    Type
REMARK                         _______ _______ _______ _____ _____    ______ ____
ROOT
ATOM      1  C   UNL     1      48.434   6.571  13.438  0.00  0.00    +0.000 C 
ENDROOT
BRANCH   1   2
ATOM      2  C   UNL     1      47.186   6.049  12.773  0.00  0.00    +0.000 A 
ATOM      3  C   UNL     1      46.595   4.837  13.171  0.00  0.00    +0.000 A 
ATOM      4  C   UNL     1      45.481   4.333  12.494  0.00  0.00    +0.000 A 
ATOM      5  C   UNL     1      44.944   5.017  11.392  0.00  0.00    +0.000 A 
ATOM      6  C   UNL     1      45.529   6.230  11.003  0.00  0.00    +0.000 A 
ATOM      7  C   UNL     1      46.643   6.734  11.678  0.00  0.00    +0.000 A 
BRANCH   5   8
ATOM      8  C   UNL     1      43.760   4.461  10.638  0.00  0.00    +0.000 C 
BRANCH   8   9
ATOM      9  N   UNL     1      44.053   4.426   9.210  0.00  0.00    +0.000 N 
ATOM     10  H   UNL     1      44.213   5.358   8.831  0.00  0.00    +0.000 HD
BRANCH   9  11
ATOM     11  C   UNL     1      44.980   3.489   8.747  0.00  0.00    +0.000 A 
ATOM     12  C   UNL     1      44.976   2.135   9.046  0.00  0.00    +0.000 A 
ATOM     13  N   UNL     1      45.828   1.218   8.530  0.00  0.00    +0.000 NA
ATOM     14  C   UNL     1      46.709   1.687   7.638  0.00  0.00    +0.000 A 
ATOM     15  N   UNL     1      46.806   2.958   7.227  0.00  0.00    +0.000 NA
ATOM     16  C   UNL     1      45.926   3.818   7.785  0.00  0.00    +0.000 A 
ENDBRANCH   9  11
ENDBRANCH   8   9
ENDBRANCH   5   8
ENDBRANCH   1   2
BRANCH   1  19
ATOM     17  O   UNL     1      50.280   7.397  15.484  0.00  0.00    +0.000 OA
ATOM     18  C   UNL     1      49.083   7.255  15.728  0.00  0.00    +0.000 C 
ATOM     19  N   UNL     1      48.120   6.993  14.780  0.00  0.00    +0.000 N 
ATOM     20  H   UNL     1      47.214   6.701  15.108  0.00  0.00    +0.000 HD
BRANCH  18  21
ATOM     21  C   UNL     1      48.551   7.136  17.076  0.00  0.00    +0.000 A 
ATOM     22  C   UNL     1      48.232   8.232  17.857  0.00  0.00    +0.000 A 
ATOM     23  S   UNL     1      48.138   7.824  19.522  0.00  0.00    +0.000 S 
ATOM     24  C   UNL     1      48.390   6.168  19.188  0.00  0.00    +0.000 A 
ATOM     25  N   UNL     1      48.570   5.245  20.170  0.00  0.00    +0.000 NA
ATOM     26  C   UNL     1      48.698   4.032  19.736  0.00  0.00    +0.000 A 
ATOM     27  N   UNL     1      48.613   3.653  18.421  0.00  0.00    +0.000 N 
ATOM     28  C   UNL     1      48.421   4.547  17.398  0.00  0.00    +0.000 A 
ATOM     29  O   UNL     1      48.293   4.183  16.234  0.00  0.00    +0.000 OA
ATOM     30  C   UNL     1      48.398   5.928  17.832  0.00  0.00    +0.000 A 
ATOM     31  H   UNL     1      48.641   2.678  18.156  0.00  0.00    +0.000 HD
ENDBRANCH  18  21
ENDBRANCH   1  19
TORSDOF 6
ENDMDL
MODEL 3
REMARK VINA RESULT:    -7.464      3.038      5.160
REMARK INTER + INTRA:         -11.121
REMARK INTER:                 -10.056
REMARK INTRA:                  -1.066
REMARK UNBOUND:                -1.040
REMARK  Name = 
REMARK  6 active torsions:
REMARK  status: ('A' for Active; 'I' for Inactive)
REMARK    1  A    between atoms: C_2  and  C_19
REMARK    2  A    between atoms: N_3  and  C_4
REMARK    3  A    between atoms: C_4  and  C_5
REMARK    4  A    between atoms: C_8  and  C_9
REMARK    5  A    between atoms: C_9  and  N_10
REMARK    6  A    between atoms: N_10  and  C_11
REMARK                            x       y       z     vdW  Elec       q    Type
REMARK                         _______ _______ _______ _____ _____    ______ ____
ROOT
ATOM      1  C   UNL     1      47.751   6.134  13.798  0.00  0.00    +0.000 C 
ENDROOT
BRANCH   1   2
ATOM      2  C   UNL     1      46.725   5.433  12.945  0.00  0.00    +0.000 A 
ATOM      3  C   UNL     1      46.285   4.132  13.248  0.00  0.00    +0.000 A 
ATOM      4  C   UNL     1      45.388   3.471  12.405  0.00  0.00    +0.000 A 
ATOM      5  C   UNL     1      44.927   4.083  11.230  0.00  0.00    +0.000 A 
ATOM      6  C   UNL     1      45.360   5.383  10.934  0.00  0.00    +0.000 A 
ATOM      7  C   UNL     1      46.257   6.045  11.775  0.00  0.00    +0.000 A 
BRANCH   5   8
ATOM      8  C   UNL     1      43.983   3.360  10.299  0.00  0.00    +0.000 C 
BRANCH   8   9
ATOM      9  N   UNL     1      44.303   3.686   8.915  0.00  0.00    +0.000 N 
ATOM     10  H   UNL     1      44.417   4.689   8.777  0.00  0.00    +0.000 HD
BRANCH   9  11
ATOM     11  C   UNL     1      45.289   2.937   8.270  0.00  0.00    +0.000 A 
ATOM     12  C   UNL     1      46.250   3.441   7.406  0.00  0.00    +0.000 A 
ATOM     13  N   UNL     1      47.253   2.723   6.847  0.00  0.00    +0.000 NA
ATOM     14  C   UNL     1      47.310   1.435   7.208  0.00  0.00    +0.000 A 
ATOM     15  N   UNL     1      46.476   0.821   8.057  0.00  0.00    +0.000 NA
ATOM     16  C   UNL     1      45.498   1.598   8.574  0.00  0.00    +0.000 A 
ENDBRANCH   9  11
ENDBRANCH   8   9
ENDBRANCH   5   8
ENDBRANCH   1   2
BRANCH   1  19
ATOM     17  O   UNL     1      47.730   8.851  14.746  0.00  0.00    +0.000 OA
ATOM     18  C   UNL     1      48.065   8.582  13.594  0.00  0.00    +0.000 C 
ATOM     19  N   UNL     1      48.228   7.305  13.106  0.00  0.00    +0.000 N 
ATOM     20  H   UNL     1      48.308   7.197  12.109  0.00  0.00    +0.000 HD
BRANCH  18  21
ATOM     21  C   UNL     1      48.131   9.572  12.530  0.00  0.00    +0.000 A 
ATOM     22  C   UNL     1      49.316   9.942  11.921  0.00  0.00    +0.000 A 
ATOM     23  S   UNL     1      49.174  11.450  11.112  0.00  0.00    +0.000 S 
ATOM     24  C   UNL     1      47.505  11.543  11.459  0.00  0.00    +0.000 A 
ATOM     25  N   UNL     1      46.763  12.649  11.185  0.00  0.00    +0.000 NA
ATOM     26  C   UNL     1      45.507  12.526  11.470  0.00  0.00    +0.000 A 
ATOM     27  N   UNL     1      44.918  11.386  11.956  0.00  0.00    +0.000 N 
ATOM     28  C   UNL     1      45.624  10.243  12.238  0.00  0.00    +0.000 A 
ATOM     29  O   UNL     1      45.071   9.218  12.620  0.00  0.00    +0.000 OA
ATOM     30  C   UNL     1      47.052  10.384  12.049  0.00  0.00    +0.000 A 
ATOM     31  H   UNL     1      43.917  11.330  12.082  0.00  0.00    +0.000 HD
ENDBRANCH  18  21
ENDBRANCH   1  19
TORSDOF 6
ENDMDL
MODEL 4
REMARK VINA RESULT:    -7.445      1.890      2.772
REMARK INTER + INTRA:         -11.096
REMARK INTER:                 -10.239
REMARK INTRA:                  -0.857
REMARK UNBOUND:                -1.040
REMARK  Name = 
REMARK  6 active torsions:
REMARK  status: ('A' for Active; 'I' for Inactive)
REMARK    1  A    between atoms: C_2  and  C_19
REMARK    2  A    between atoms: N_3  and  C_4
REMARK    3  A    between atoms: C_4  and  C_5
REMARK    4  A    between atoms: C_8  and  C_9
REMARK    5  A    between atoms: C_9  and  N_10
REMARK    6  A    between atoms: N_10  and  C_11
REMARK                            x       y       z     vdW  Elec       q    Type
REMARK                         _______ _______ _______ _____ _____    ______ ____
ROOT
ATOM      1  C   UNL     1      47.668   7.173  13.278  0.00  0.00    +0.000 C 
ENDROOT
BRANCH   1   2
ATOM      2  C   UNL     1      46.658   6.292  12.589  0.00  0.00    +0.000 A 
ATOM      3  C   UNL     1      46.210   5.095  13.173  0.00  0.00    +0.000 A 
ATOM      4  C   UNL     1      45.328   4.255  12.486  0.00  0.00    +0.000 A 
ATOM      5  C   UNL     1      44.892   4.581  11.193  0.00  0.00    +0.000 A 
ATOM      6  C   UNL     1      45.333   5.780  10.616  0.00  0.00    +0.000 A 
ATOM      7  C   UNL     1      46.214   6.619  11.301  0.00  0.00    +0.000 A 
BRANCH   5   8
ATOM      8  C   UNL     1      43.965   3.661  10.434  0.00  0.00    +0.000 C 
BRANCH   8   9
ATOM      9  N   UNL     1      44.245   3.743   9.005  0.00  0.00    +0.000 N 
ATOM     10  H   UNL     1      44.265   4.707   8.675  0.00  0.00    +0.000 HD
BRANCH   9  11
ATOM     11  C   UNL     1      45.292   2.975   8.492  0.00  0.00    +0.000 A 
ATOM     12  C   UNL     1      45.484   1.620   8.717  0.00  0.00    +0.000 A 
ATOM     13  N   UNL     1      46.454   0.863   8.151  0.00  0.00    +0.000 NA
ATOM     14  C   UNL     1      47.251   1.500   7.284  0.00  0.00    +0.000 A 
ATOM     15  N   UNL     1      47.162   2.793   6.943  0.00  0.00    +0.000 NA
ATOM     16  C   UNL     1      46.173   3.487   7.548  0.00  0.00    +0.000 A 
ENDBRANCH   9  11
ENDBRANCH   8   9
ENDBRANCH   5   8
ENDBRANCH   1   2
BRANCH   1  19
ATOM     17  O   UNL     1      50.001   6.839  14.929  0.00  0.00    +0.000 OA
ATOM     18  C   UNL     1      48.877   6.590  15.360  0.00  0.00    +0.000 C 
ATOM     19  N   UNL     1      47.707   6.848  14.682  0.00  0.00    +0.000 N 
ATOM     20  H   UNL     1      46.864   6.428  15.036  0.00  0.00    +0.000 HD
BRANCH  18  21
ATOM     21  C   UNL     1      48.637   5.796  16.555  0.00  0.00    +0.000 A 
ATOM     22  C   UNL     1      48.250   4.469  16.510  0.00  0.00    +0.000 A 
ATOM     23  S   UNL     1      47.548   3.959  17.991  0.00  0.00    +0.000 S 
ATOM     24  C   UNL     1      47.881   5.461  18.732  0.00  0.00    +0.000 A 
ATOM     25  N   UNL     1      47.424   5.780  19.972  0.00  0.00    +0.000 NA
ATOM     26  C   UNL     1      47.812   6.940  20.395  0.00  0.00    +0.000 A 
ATOM     27  N   UNL     1      48.653   7.785  19.716  0.00  0.00    +0.000 N 
ATOM     28  C   UNL     1      49.148   7.500  18.467  0.00  0.00    +0.000 A 
ATOM     29  O   UNL     1      49.941   8.243  17.900  0.00  0.00    +0.000 OA
ATOM     30  C   UNL     1      48.635   6.267  17.908  0.00  0.00    +0.000 A 
ATOM     31  H   UNL     1      48.983   8.642  20.137  0.00  0.00    +0.000 HD
ENDBRANCH  18  21
ENDBRANCH   1  19
TORSDOF 6
ENDMDL
MODEL 5
REMARK VINA RESULT:    -7.116      2.382      3.161
REMARK INTER + INTRA:         -10.652
REMARK INTER:                  -9.816
REMARK INTRA:                  -0.836
REMARK UNBOUND:                -1.040
REMARK  Name = 
REMARK  6 active torsions:
REMARK  status: ('A' for Active; 'I' for Inactive)
REMARK    1  A    between atoms: C_2  and  C_19
REMARK    2  A    between atoms: N_3  and  C_4
REMARK    3  A    between atoms: C_4  and  C_5
REMARK    4  A    between atoms: C_8  and  C_9
REMARK    5  A    between atoms: C_9  and  N_10
REMARK    6  A    between atoms: N_10  and  C_11
REMARK                            x       y       z     vdW  Elec       q    Type
REMARK                         _______ _______ _______ _____ _____    ______ ____
ROOT
ATOM      1  C   UNL     1      47.245   4.306  15.398  0.00  0.00    +0.000 C 
ENDROOT
BRANCH   1   2
ATOM      2  C   UNL     1      46.656   4.656  14.056  0.00  0.00    +0.000 A 
ATOM      3  C   UNL     1      45.801   3.771  13.377  0.00  0.00    +0.000 A 
ATOM      4  C   UNL     1      45.322   4.083  12.101  0.00  0.00    +0.000 A 
ATOM      5  C   UNL     1      45.704   5.274  11.466  0.00  0.00    +0.000 A 
ATOM      6  C   UNL     1      46.550   6.159  12.148  0.00  0.00    +0.000 A 
ATOM      7  C   UNL     1      47.029   5.849  13.422  0.00  0.00    +0.000 A 
BRANCH   5   8
ATOM      8  C   UNL     1      45.216   5.600  10.074  0.00  0.00    +0.000 C 
BRANCH   8   9
ATOM      9  N   UNL     1      44.517   4.450   9.512  0.00  0.00    +0.000 N 
ATOM     10  H   UNL     1      43.643   4.718   9.062  0.00  0.00    +0.000 HD
BRANCH   9  11
ATOM     11  C   UNL     1      45.253   3.533   8.758  0.00  0.00    +0.000 A 
ATOM     12  C   UNL     1      46.168   3.854   7.767  0.00  0.00    +0.000 A 
ATOM     13  N   UNL     1      46.939   2.965   7.096  0.00  0.00    +0.000 NA
ATOM     14  C   UNL     1      46.802   1.686   7.470  0.00  0.00    +0.000 A 
ATOM     15  N   UNL     1      45.986   1.235   8.432  0.00  0.00    +0.000 NA
ATOM     16  C   UNL     1      45.247   2.177   9.057  0.00  0.00    +0.000 A 
ENDBRANCH   9  11
ENDBRANCH   8   9
ENDBRANCH   5   8
ENDBRANCH   1   2
BRANCH   1  19
ATOM     17  O   UNL     1      49.737   4.569  16.812  0.00  0.00    +0.000 OA
ATOM     18  C   UNL     1      48.929   5.494  16.771  0.00  0.00    +0.000 C 
ATOM     19  N   UNL     1      47.781   5.495  16.011  0.00  0.00    +0.000 N 
ATOM     20  H   UNL     1      47.099   6.209  16.203  0.00  0.00    +0.000 HD
BRANCH  18  21
ATOM     21  C   UNL     1      48.967   6.628  17.681  0.00  0.00    +0.000 A 
ATOM     22  C   UNL     1      49.797   7.718  17.489  0.00  0.00    +0.000 A 
ATOM     23  S   UNL     1      50.016   8.616  18.936  0.00  0.00    +0.000 S 
ATOM     24  C   UNL     1      48.904   7.634  19.781  0.00  0.00    +0.000 A 
ATOM     25  N   UNL     1      48.704   7.744  21.121  0.00  0.00    +0.000 NA
ATOM     26  C   UNL     1      47.791   6.953  21.585  0.00  0.00    +0.000 A 
ATOM     27  N   UNL     1      47.027   6.102  20.828  0.00  0.00    +0.000 N 
ATOM     28  C   UNL     1      47.185   5.965  19.471  0.00  0.00    +0.000 A 
ATOM     29  O   UNL     1      46.456   5.239  18.804  0.00  0.00    +0.000 OA
ATOM     30  C   UNL     1      48.283   6.741  18.935  0.00  0.00    +0.000 A 
ATOM     31  H   UNL     1      46.274   5.570  21.241  0.00  0.00    +0.000 HD
ENDBRANCH  18  21
ENDBRANCH   1  19
TORSDOF 6
ENDMDL
MODEL 6
REMARK VINA RESULT:    -7.067      2.348      4.235
REMARK INTER + INTRA:         -10.586
REMARK INTER:                  -9.641
REMARK INTRA:                  -0.945
REMARK UNBOUND:                -1.040
REMARK  Name = 
REMARK  6 active torsions:
REMARK  status: ('A' for Active; 'I' for Inactive)
REMARK    1  A    between atoms: C_2  and  C_19
REMARK    2  A    between atoms: N_3  and  C_4
REMARK    3  A    between atoms: C_4  and  C_5
REMARK    4  A    between atoms: C_8  and  C_9
REMARK    5  A    between atoms: C_9  and  N_10
REMARK    6  A    between atoms: N_10  and  C_11
REMARK                            x       y       z     vdW  Elec       q    Type
REMARK                         _______ _______ _______ _____ _____    ______ ____
ROOT
ATOM      1  C   UNL     1      47.218   5.544  14.318  0.00  0.00    +0.000 C 
ENDROOT
BRANCH   1   2
ATOM      2  C   UNL     1      46.458   5.171  13.070  0.00  0.00    +0.000 A 
ATOM      3  C   UNL     1      46.321   6.071  11.999  0.00  0.00    +0.000 A 
ATOM      4  C   UNL     1      45.552   5.734  10.881  0.00  0.00    +0.000 A 
ATOM      5  C   UNL     1      44.885   4.501  10.818  0.00  0.00    +0.000 A 
ATOM      6  C   UNL     1      45.030   3.602  11.884  0.00  0.00    +0.000 A 
ATOM      7  C   UNL     1      45.797   3.938  13.001  0.00  0.00    +0.000 A 
BRANCH   5   8
ATOM      8  C   UNL     1      44.026   4.146   9.627  0.00  0.00    +0.000 C 
BRANCH   8   9
ATOM      9  N   UNL     1      44.801   4.278   8.399  0.00  0.00    +0.000 N 
ATOM     10  H   UNL     1      45.192   5.213   8.294  0.00  0.00    +0.000 HD
BRANCH   9  11
ATOM     11  C   UNL     1      45.716   3.271   8.083  0.00  0.00    +0.000 A 
ATOM     12  C   UNL     1      45.608   1.939   8.451  0.00  0.00    +0.000 A 
ATOM     13  N   UNL     1      46.455   0.952   8.073  0.00  0.00    +0.000 NA
ATOM     14  C   UNL     1      47.444   1.325   7.251  0.00  0.00    +0.000 A 
ATOM     15  N   UNL     1      47.651   2.564   6.786  0.00  0.00    +0.000 NA
ATOM     16  C   UNL     1      46.769   3.497   7.206  0.00  0.00    +0.000 A 
ENDBRANCH   9  11
ENDBRANCH   8   9
ENDBRANCH   5   8
ENDBRANCH   1   2
BRANCH   1  19
ATOM     17  O   UNL     1      49.748   6.305  15.457  0.00  0.00    +0.000 OA
ATOM     18  C   UNL     1      49.098   7.091  14.771  0.00  0.00    +0.000 C 
ATOM     19  N   UNL     1      47.949   6.764  14.085  0.00  0.00    +0.000 N 
ATOM     20  H   UNL     1      47.394   7.520  13.723  0.00  0.00    +0.000 HD
BRANCH  18  21
ATOM     21  C   UNL     1      49.334   8.527  14.760  0.00  0.00    +0.000 A 
ATOM     22  C   UNL     1      49.560   9.259  15.911  0.00  0.00    +0.000 A 
ATOM     23  S   UNL     1      49.285  10.936  15.664  0.00  0.00    +0.000 S 
ATOM     24  C   UNL     1      48.997  10.701  13.998  0.00  0.00    +0.000 A 
ATOM     25  N   UNL     1      48.559  11.699  13.185  0.00  0.00    +0.000 NA
ATOM     26  C   UNL     1      48.442  11.355  11.944  0.00  0.00    +0.000 A 
ATOM     27  N   UNL     1      48.767  10.124  11.433  0.00  0.00    +0.000 N 
ATOM     28  C   UNL     1      49.223   9.090  12.212  0.00  0.00    +0.000 A 
ATOM     29  O   UNL     1      49.561   8.015  11.729  0.00  0.00    +0.000 OA
ATOM     30  C   UNL     1      49.249   9.399  13.627  0.00  0.00    +0.000 A 
ATOM     31  H   UNL     1      48.729   9.945  10.439  0.00  0.00    +0.000 HD
ENDBRANCH  18  21
ENDBRANCH   1  19
TORSDOF 6
ENDMDL
MODEL 7
REMARK VINA RESULT:    -7.032      2.593      3.321
REMARK INTER + INTRA:         -10.538
REMARK INTER:                  -9.179
REMARK INTRA:                  -1.359
REMARK UNBOUND:                -1.040
REMARK  Name = 
REMARK  6 active torsions:
REMARK  status: ('A' for Active; 'I' for Inactive)
REMARK    1  A    between atoms: C_2  and  C_19
REMARK    2  A    between atoms: N_3  and  C_4
REMARK    3  A    between atoms: C_4  and  C_5
REMARK    4  A    between atoms: C_8  and  C_9
REMARK    5  A    between atoms: C_9  and  N_10
REMARK    6  A    between atoms: N_10  and  C_11
REMARK                            x       y       z     vdW  Elec       q    Type
REMARK                         _______ _______ _______ _____ _____    ______ ____
ROOT
ATOM      1  C   UNL     1      50.092   8.145  14.431  0.00  0.00    +0.000 C 
ENDROOT
BRANCH   1   2
ATOM      2  C   UNL     1      48.808   8.068  13.645  0.00  0.00    +0.000 A 
ATOM      3  C   UNL     1      47.645   8.733  14.072  0.00  0.00    +0.000 A 
ATOM      4  C   UNL     1      46.446   8.591  13.370  0.00  0.00    +0.000 A 
ATOM      5  C   UNL     1      46.374   7.765  12.237  0.00  0.00    +0.000 A 
ATOM      6  C   UNL     1      47.536   7.110  11.808  0.00  0.00    +0.000 A 
ATOM      7  C   UNL     1      48.735   7.251  12.509  0.00  0.00    +0.000 A 
BRANCH   5   8
ATOM      8  C   UNL     1      45.072   7.583  11.494  0.00  0.00    +0.000 C 
BRANCH   8   9
ATOM      9  N   UNL     1      44.081   6.969  12.371  0.00  0.00    +0.000 N 
ATOM     10  H   UNL     1      43.199   7.478  12.363  0.00  0.00    +0.000 HD
BRANCH   9  11
ATOM     11  C   UNL     1      43.908   5.585  12.306  0.00  0.00    +0.000 A 
ATOM     12  C   UNL     1      43.036   4.920  11.457  0.00  0.00    +0.000 A 
ATOM     13  N   UNL     1      42.930   3.575  11.341  0.00  0.00    +0.000 NA
ATOM     14  C   UNL     1      43.775   2.863  12.098  0.00  0.00    +0.000 A 
ATOM     15  N   UNL     1      44.692   3.368  12.935  0.00  0.00    +0.000 NA
ATOM     16  C   UNL     1      44.739   4.716  13.001  0.00  0.00    +0.000 A 
ENDBRANCH   9  11
ENDBRANCH   8   9
ENDBRANCH   5   8
ENDBRANCH   1   2
BRANCH   1  19
ATOM     17  O   UNL     1      51.605   6.216  15.936  0.00  0.00    +0.000 OA
ATOM     18  C   UNL     1      50.560   6.690  16.378  0.00  0.00    +0.000 C 
ATOM     19  N   UNL     1      49.851   7.709  15.783  0.00  0.00    +0.000 N 
ATOM     20  H   UNL     1      48.918   7.881  16.117  0.00  0.00    +0.000 HD
BRANCH  18  21
ATOM     21  C   UNL     1      49.817   6.096  17.479  0.00  0.00    +0.000 A 
ATOM     22  C   UNL     1      50.122   6.336  18.807  0.00  0.00    +0.000 A 
ATOM     23  S   UNL     1      49.457   5.138  19.841  0.00  0.00    +0.000 S 
ATOM     24  C   UNL     1      48.656   4.378  18.539  0.00  0.00    +0.000 A 
ATOM     25  N   UNL     1      48.004   3.193  18.675  0.00  0.00    +0.000 NA
ATOM     26  C   UNL     1      47.413   2.789  17.597  0.00  0.00    +0.000 A 
ATOM     27  N   UNL     1      47.372   3.482  16.414  0.00  0.00    +0.000 N 
ATOM     28  C   UNL     1      48.006   4.686  16.233  0.00  0.00    +0.000 A 
ATOM     29  O   UNL     1      47.912   5.316  15.186  0.00  0.00    +0.000 OA
ATOM     30  C   UNL     1      48.782   5.111  17.379  0.00  0.00    +0.000 A 
ATOM     31  H   UNL     1      46.825   3.149  15.633  0.00  0.00    +0.000 HD
ENDBRANCH  18  21
ENDBRANCH   1  19
TORSDOF 6
ENDMDL
MODEL 8
REMARK VINA RESULT:    -6.887      2.315      3.552
REMARK INTER + INTRA:         -10.342
REMARK INTER:                  -9.491
REMARK INTRA:                  -0.851
REMARK UNBOUND:                -1.040
REMARK  Name = 
REMARK  6 active torsions:
REMARK  status: ('A' for Active; 'I' for Inactive)
REMARK    1  A    between atoms: C_2  and  C_19
REMARK    2  A    between atoms: N_3  and  C_4
REMARK    3  A    between atoms: C_4  and  C_5
REMARK    4  A    between atoms: C_8  and  C_9
REMARK    5  A    between atoms: C_9  and  N_10
REMARK    6  A    between atoms: N_10  and  C_11
REMARK                            x       y       z     vdW  Elec       q    Type
REMARK                         _______ _______ _______ _____ _____    ______ ____
ROOT
ATOM      1  C   UNL     1      47.085   5.211  14.345  0.00  0.00    +0.000 C 
ENDROOT
BRANCH   1   2
ATOM      2  C   UNL     1      46.236   4.935  13.130  0.00  0.00    +0.000 A 
ATOM      3  C   UNL     1      45.629   3.683  12.928  0.00  0.00    +0.000 A 
ATOM      4  C   UNL     1      44.906   3.424  11.761  0.00  0.00    +0.000 A 
ATOM      5  C   UNL     1      44.789   4.400  10.760  0.00  0.00    +0.000 A 
ATOM      6  C   UNL     1      45.388   5.650  10.967  0.00  0.00    +0.000 A 
ATOM      7  C   UNL     1      46.112   5.911  12.132  0.00  0.00    +0.000 A 
BRANCH   5   8
ATOM      8  C   UNL     1      44.036   4.113   9.483  0.00  0.00    +0.000 C 
BRANCH   8   9
ATOM      9  N   UNL     1      44.917   4.297   8.335  0.00  0.00    +0.000 N 
ATOM     10  H   UNL     1      45.362   5.213   8.339  0.00  0.00    +0.000 HD
BRANCH   9  11
ATOM     11  C   UNL     1      45.804   3.267   8.010  0.00  0.00    +0.000 A 
ATOM     12  C   UNL     1      45.697   1.950   8.429  0.00  0.00    +0.000 A 
ATOM     13  N   UNL     1      46.513   0.939   8.045  0.00  0.00    +0.000 NA
ATOM     14  C   UNL     1      47.466   1.270   7.165  0.00  0.00    +0.000 A 
ATOM     15  N   UNL     1      47.666   2.490   6.648  0.00  0.00    +0.000 NA
ATOM     16  C   UNL     1      46.816   3.449   7.077  0.00  0.00    +0.000 A 
ENDBRANCH   9  11
ENDBRANCH   8   9
ENDBRANCH   5   8
ENDBRANCH   1   2
BRANCH   1  19
ATOM     17  O   UNL     1      49.377   6.680  13.415  0.00  0.00    +0.000 OA
ATOM     18  C   UNL     1      48.503   7.225  14.085  0.00  0.00    +0.000 C 
ATOM     19  N   UNL     1      47.317   6.629  14.454  0.00  0.00    +0.000 N 
ATOM     20  H   UNL     1      46.769   7.088  15.161  0.00  0.00    +0.000 HD
BRANCH  18  21
ATOM     21  C   UNL     1      48.691   8.500  14.759  0.00  0.00    +0.000 A 
ATOM     22  C   UNL     1      48.586   9.716  14.107  0.00  0.00    +0.000 A 
ATOM     23  S   UNL     1      49.353  10.978  14.985  0.00  0.00    +0.000 S 
ATOM     24  C   UNL     1      49.704   9.934  16.289  0.00  0.00    +0.000 A 
ATOM     25  N   UNL     1      50.480  10.314  17.340  0.00  0.00    +0.000 NA
ATOM     26  C   UNL     1      50.600   9.411  18.259  0.00  0.00    +0.000 A 
ATOM     27  N   UNL     1      49.980   8.188  18.250  0.00  0.00    +0.000 N 
ATOM     28  C   UNL     1      49.180   7.766  17.217  0.00  0.00    +0.000 A 
ATOM     29  O   UNL     1      48.591   6.691  17.252  0.00  0.00    +0.000 OA
ATOM     30  C   UNL     1      49.121   8.698  16.111  0.00  0.00    +0.000 A 
ATOM     31  H   UNL     1      50.051   7.561  19.038  0.00  0.00    +0.000 HD
ENDBRANCH  18  21
ENDBRANCH   1  19
TORSDOF 6
ENDMDL
MODEL 9
REMARK VINA RESULT:    -6.598      3.517      5.454
REMARK INTER + INTRA:          -9.952
REMARK INTER:                  -8.922
REMARK INTRA:                  -1.030
REMARK UNBOUND:                -1.040
REMARK  Name = 
REMARK  6 active torsions:
REMARK  status: ('A' for Active; 'I' for Inactive)
REMARK    1  A    between atoms: C_2  and  C_19
REMARK    2  A    between atoms: N_3  and  C_4
REMARK    3  A    between atoms: C_4  and  C_5
REMARK    4  A    between atoms: C_8  and  C_9
REMARK    5  A    between atoms: C_9  and  N_10
REMARK    6  A    between atoms: N_10  and  C_11
REMARK                            x       y       z     vdW  Elec       q    Type
REMARK                         _______ _______ _______ _____ _____    ______ ____
ROOT
ATOM      1  C   UNL     1      47.331   7.218  13.048  0.00  0.00    +0.000 C 
ENDROOT
BRANCH   1   2
ATOM      2  C   UNL     1      46.407   6.162  12.498  0.00  0.00    +0.000 A 
ATOM      3  C   UNL     1      46.430   4.843  12.985  0.00  0.00    +0.000 A 
ATOM      4  C   UNL     1      45.616   3.861  12.412  0.00  0.00    +0.000 A 
ATOM      5  C   UNL     1      44.779   4.167  11.329  0.00  0.00    +0.000 A 
ATOM      6  C   UNL     1      44.752   5.485  10.852  0.00  0.00    +0.000 A 
ATOM      7  C   UNL     1      45.564   6.467  11.422  0.00  0.00    +0.000 A 
BRANCH   5   8
ATOM      8  C   UNL     1      43.923   3.102  10.687  0.00  0.00    +0.000 C 
BRANCH   8   9
ATOM      9  N   UNL     1      44.019   3.196   9.235  0.00  0.00    +0.000 N 
ATOM     10  H   UNL     1      43.768   4.123   8.896  0.00  0.00    +0.000 HD
BRANCH   9  11
ATOM     11  C   UNL     1      45.160   2.684   8.613  0.00  0.00    +0.000 A 
ATOM     12  C   UNL     1      45.548   1.353   8.609  0.00  0.00    +0.000 A 
ATOM     13  N   UNL     1      46.610   0.850   7.936  0.00  0.00    +0.000 NA
ATOM     14  C   UNL     1      47.297   1.733   7.201  0.00  0.00    +0.000 A 
ATOM     15  N   UNL     1      47.019   3.038   7.081  0.00  0.00    +0.000 NA
ATOM     16  C   UNL     1      45.948   3.470   7.782  0.00  0.00    +0.000 A 
ENDBRANCH   9  11
ENDBRANCH   8   9
ENDBRANCH   5   8
ENDBRANCH   1   2
BRANCH   1  19
ATOM     17  O   UNL     1      50.083   7.642  13.772  0.00  0.00    +0.000 OA
ATOM     18  C   UNL     1      49.718   7.700  12.600  0.00  0.00    +0.000 C 
ATOM     19  N   UNL     1      48.453   7.382  12.159  0.00  0.00    +0.000 N 
ATOM     20  H   UNL     1      48.208   7.653  11.222  0.00  0.00    +0.000 HD
BRANCH  18  21
ATOM     21  C   UNL     1      50.511   8.316  11.546  0.00  0.00    +0.000 A 
ATOM     22  C   UNL     1      51.494   7.635  10.850  0.00  0.00    +0.000 A 
ATOM     23  S   UNL     1      52.586   8.709  10.074  0.00  0.00    +0.000 S 
ATOM     24  C   UNL     1      51.675  10.071  10.553  0.00  0.00    +0.000 A 
ATOM     25  N   UNL     1      52.107  11.345  10.351  0.00  0.00    +0.000 NA
ATOM     26  C   UNL     1      51.267  12.253  10.733  0.00  0.00    +0.000 A 
ATOM     27  N   UNL     1      50.020  12.006  11.250  0.00  0.00    +0.000 N 
ATOM     28  C   UNL     1      49.538  10.738  11.460  0.00  0.00    +0.000 A 
ATOM     29  O   UNL     1      48.401  10.538  11.872  0.00  0.00    +0.000 OA
ATOM     30  C   UNL     1      50.498   9.696  11.162  0.00  0.00    +0.000 A 
ATOM     31  H   UNL     1      49.381  12.762  11.453  0.00  0.00    +0.000 HD
ENDBRANCH  18  21
ENDBRANCH   1  19
TORSDOF 6
ENDMDL
