MODEL 1
REMARK VINA RESULT:    -8.033      0.000      0.000
REMARK INTER + INTRA:         -13.172
REMARK INTER:                 -11.789
REMARK INTRA:                  -1.382
REMARK UNBOUND:                -1.382
REMARK  Name = 
REMARK  10 active torsions:
REMARK  status: ('A' for Active; 'I' for Inactive)
REMARK    1  A    between atoms: C_1  and  C_2
REMARK    2  A    between atoms: C_2  and  N_3
REMARK    3  A    between atoms: C_9  and  C_10
REMARK    4  A    between atoms: N_12  and  C_13
REMARK    5  A    between atoms: C_13  and  C_14
REMARK    6  A    between atoms: C_17  and  C_18
REMARK    7  A    between atoms: C_18  and  N_19
REMARK    8  A    between atoms: N_19  and  C_20
REMARK    9  A    between atoms: N_19  and  C_21
REMARK   10  A    between atoms: C_21  and  C_22
REMARK                            x       y       z     vdW  Elec       q    Type
REMARK                         _______ _______ _______ _____ _____    ______ ____
ROOT
ATOM      1  C   UNL     1      47.637   9.083  13.388  0.00  0.00    +0.000 C 
ENDROOT
BRANCH   1   2
ATOM      2  C   UNL     1      46.757   8.124  12.633  0.00  0.00    +0.000 A 
ATOM      3  C   UNL     1      47.304   6.983  12.035  0.00  0.00    +0.000 A 
ATOM      4  C   UNL     1      46.479   6.061  11.390  0.00  0.00    +0.000 A 
ATOM      5  C   UNL     1      45.093   6.264  11.333  0.00  0.00    +0.000 A 
ATOM      6  C   UNL     1      44.555   7.439  11.868  0.00  0.00    +0.000 A 
ATOM      7  C   UNL     1      45.381   8.366  12.508  0.00  0.00    +0.000 A 
BRANCH   5   8
ATOM      8  C   UNL     1      44.193   5.193  10.753  0.00  0.00    +0.000 C 
BRANCH   8   9
ATOM      9  N   UNL     1      44.809   3.851  10.790  0.00  0.00    +0.000 NA
ATOM     10  C   UNL     1      44.484   3.160  12.047  0.00  0.00    +0.000 C 
BRANCH   9  11
ATOM     11  C   UNL     1      44.357   3.024   9.656  0.00  0.00    +0.000 C 
BRANCH  11  12
ATOM     12  C   UNL     1      45.417   2.770   8.602  0.00  0.00    +0.000 A 
ATOM     13  C   UNL     1      45.894   3.809   7.789  0.00  0.00    +0.000 A 
ATOM     14  C   UNL     1      46.904   3.569   6.856  0.00  0.00    +0.000 A 
ATOM     15  C   UNL     1      47.438   2.289   6.716  0.00  0.00    +0.000 A 
ATOM     16  C   UNL     1      46.956   1.245   7.503  0.00  0.00    +0.000 A 
ATOM     17  C   UNL     1      45.954   1.485   8.445  0.00  0.00    +0.000 A 
ENDBRANCH  11  12
ENDBRANCH   9  11
ENDBRANCH   8   9
ENDBRANCH   5   8
ENDBRANCH   1   2
BRANCH   1  20
ATOM     18  C   UNL     1      48.914   8.721  15.433  0.00  0.00    +0.000 C 
ATOM     19  O   UNL     1      49.949   9.132  14.915  0.00  0.00    +0.000 OA
ATOM     20  N   UNL     1      47.708   8.744  14.783  0.00  0.00    +0.000 N 
ATOM     21  H   UNL     1      46.946   8.187  15.144  0.00  0.00    +0.000 HD
BRANCH  18  28
ATOM     22  N   UNL     1      48.084   4.586  17.418  0.00  0.00    +0.000 N 
ATOM     23  C   UNL     1      48.139   4.680  18.796  0.00  0.00    +0.000 A 
ATOM     24  N   UNL     1      48.433   5.746  19.466  0.00  0.00    +0.000 NA
ATOM     25  C   UNL     1      48.670   6.843  18.701  0.00  0.00    +0.000 A 
ATOM     26  S   UNL     1      48.999   8.357  19.403  0.00  0.00    +0.000 S 
ATOM     27  C   UNL     1      49.119   9.103  17.872  0.00  0.00    +0.000 A 
ATOM     28  C   UNL     1      48.898   8.231  16.816  0.00  0.00    +0.000 A 
ATOM     29  C   UNL     1      48.669   6.898  17.323  0.00  0.00    +0.000 A 
ATOM     30  C   UNL     1      48.441   5.661  16.609  0.00  0.00    +0.000 A 
ATOM     31  O   UNL     1      48.538   5.574  15.388  0.00  0.00    +0.000 OA
BRANCH  22  33
ATOM     32  C   UNL     1      48.849   2.366  16.656  0.00  0.00    +0.000 C 
ATOM     33  C   UNL     1      47.688   3.341  16.778  0.00  0.00    +0.000 C 
ENDBRANCH  22  33
ENDBRANCH  18  28
ENDBRANCH   1  20
TORSDOF 8
ENDMDL
MODEL 2
REMARK VINA RESULT:    -7.533      1.926      3.276
REMARK INTER + INTRA:         -12.439
REMARK INTER:                 -11.447
REMARK INTRA:                  -0.992
REMARK UNBOUND:                -1.382
REMARK  Name = 
REMARK  10 active torsions:
REMARK  status: ('A' for Active; 'I' for Inactive)
REMARK    1  A    between atoms: C_1  and  C_2
REMARK    2  A    between atoms: C_2  and  N_3
REMARK    3  A    between atoms: C_9  and  C_10
REMARK    4  A    between atoms: N_12  and  C_13
REMARK    5  A    between atoms: C_13  and  C_14
REMARK    6  A    between atoms: C_17  and  C_18
REMARK    7  A    between atoms: C_18  and  N_19
REMARK    8  A    between atoms: N_19  and  C_20
REMARK    9  A    between atoms: N_19  and  C_21
REMARK   10  A    between atoms: C_21  and  C_22
REMARK                            x       y       z     vdW  Elec       q    Type
REMARK                         _______ _______ _______ _____ _____    ______ ____
ROOT
ATOM      1  C   UNL     1      48.441   7.246  14.177  0.00  0.00    +0.000 C 
ENDROOT
BRANCH   1   2
ATOM      2  C   UNL     1      47.287   6.740  13.354  0.00  0.00    +0.000 A 
ATOM      3  C   UNL     1      46.774   7.510  12.304  0.00  0.00    +0.000 A 
ATOM      4  C   UNL     1      45.747   7.013  11.502  0.00  0.00    +0.000 A 
ATOM      5  C   UNL     1      45.216   5.737  11.734  0.00  0.00    +0.000 A 
ATOM      6  C   UNL     1      45.678   4.996  12.827  0.00  0.00    +0.000 A 
ATOM      7  C   UNL     1      46.703   5.495  13.636  0.00  0.00    +0.000 A 
BRANCH   5   8
ATOM      8  C   UNL     1      44.199   5.152  10.776  0.00  0.00    +0.000 C 
BRANCH   8   9
ATOM      9  N   UNL     1      44.559   3.791  10.329  0.00  0.00    +0.000 NA
ATOM     10  C   UNL     1      43.704   2.784  10.977  0.00  0.00    +0.000 C 
BRANCH   9  11
ATOM     11  C   UNL     1      44.432   3.658   8.866  0.00  0.00    +0.000 C 
BRANCH  11  12
ATOM     12  C   UNL     1      45.598   2.958   8.196  0.00  0.00    +0.000 A 
ATOM     13  C   UNL     1      45.833   1.589   8.393  0.00  0.00    +0.000 A 
ATOM     14  C   UNL     1      46.883   0.950   7.732  0.00  0.00    +0.000 A 
ATOM     15  C   UNL     1      47.716   1.671   6.878  0.00  0.00    +0.000 A 
ATOM     16  C   UNL     1      47.505   3.036   6.692  0.00  0.00    +0.000 A 
ATOM     17  C   UNL     1      46.449   3.676   7.343  0.00  0.00    +0.000 A 
ENDBRANCH  11  12
ENDBRANCH   9  11
ENDBRANCH   8   9
ENDBRANCH   5   8
ENDBRANCH   1   2
BRANCH   1  20
ATOM     18  C   UNL     1      49.265   6.440  16.325  0.00  0.00    +0.000 C 
ATOM     19  O   UNL     1      50.410   6.324  15.895  0.00  0.00    +0.000 OA
ATOM     20  N   UNL     1      48.249   6.970  15.575  0.00  0.00    +0.000 N 
ATOM     21  H   UNL     1      47.294   6.827  15.873  0.00  0.00    +0.000 HD
BRANCH  18  28
ATOM     22  N   UNL     1      47.489   8.726  19.978  0.00  0.00    +0.000 N 
ATOM     23  C   UNL     1      47.429   7.908  21.091  0.00  0.00    +0.000 A 
ATOM     24  N   UNL     1      47.762   6.659  21.125  0.00  0.00    +0.000 NA
ATOM     25  C   UNL     1      48.232   6.170  19.948  0.00  0.00    +0.000 A 
ATOM     26  S   UNL     1      48.790   4.569  19.814  0.00  0.00    +0.000 S 
ATOM     27  C   UNL     1      49.193   4.788  18.170  0.00  0.00    +0.000 A 
ATOM     28  C   UNL     1      48.930   6.068  17.704  0.00  0.00    +0.000 A 
ATOM     29  C   UNL     1      48.332   6.857  18.756  0.00  0.00    +0.000 A 
ATOM     30  C   UNL     1      47.850   8.220  18.732  0.00  0.00    +0.000 A 
ATOM     31  O   UNL     1      47.782   8.880  17.700  0.00  0.00    +0.000 OA
BRANCH  22  33
ATOM     32  C   UNL     1      46.877  10.558  21.515  0.00  0.00    +0.000 C 
ATOM     33  C   UNL     1      47.136  10.133  20.077  0.00  0.00    +0.000 C 
ENDBRANCH  22  33
ENDBRANCH  18  28
ENDBRANCH   1  20
TORSDOF 8
ENDMDL
MODEL 3
REMARK VINA RESULT:    -7.442      3.057      8.413
REMARK INTER + INTRA:         -12.305
REMARK INTER:                 -10.626
REMARK INTRA:                  -1.679
REMARK UNBOUND:                -1.382
REMARK  Name = 
REMARK  10 active torsions:
REMARK  status: ('A' for Active; 'I' for Inactive)
REMARK    1  A    between atoms: C_1  and  C_2
REMARK    2  A    between atoms: C_2  and  N_3
REMARK    3  A    between atoms: C_9  and  C_10
REMARK    4  A    between atoms: N_12  and  C_13
REMARK    5  A    between atoms: C_13  and  C_14
REMARK    6  A    between atoms: C_17  and  C_18
REMARK    7  A    between atoms: C_18  and  N_19
REMARK    8  A    between atoms: N_19  and  C_20
REMARK    9  A    between atoms: N_19  and  C_21
REMARK   10  A    between atoms: C_21  and  C_22
REMARK                            x       y       z     vdW  Elec       q    Type
REMARK                         _______ _______ _______ _____ _____    ______ ____
ROOT
ATOM      1  C   UNL     1      46.860   8.271  12.046  0.00  0.00    +0.000 C 
ENDROOT
BRANCH   1   2
ATOM      2  C   UNL     1      47.956   8.278  13.077  0.00  0.00    +0.000 A 
ATOM      3  C   UNL     1      47.706   8.743  14.373  0.00  0.00    +0.000 A 
ATOM      4  C   UNL     1      48.704   8.691  15.346  0.00  0.00    +0.000 A 
ATOM      5  C   UNL     1      49.969   8.171  15.041  0.00  0.00    +0.000 A 
ATOM      6  C   UNL     1      50.242   7.772  13.727  0.00  0.00    +0.000 A 
ATOM      7  C   UNL     1      49.245   7.830  12.750  0.00  0.00    +0.000 A 
BRANCH   5   8
ATOM      8  C   UNL     1      51.001   7.991  16.135  0.00  0.00    +0.000 C 
BRANCH   8   9
ATOM      9  N   UNL     1      51.359   6.574  16.350  0.00  0.00    +0.000 NA
ATOM     10  C   UNL     1      52.816   6.416  16.475  0.00  0.00    +0.000 C 
BRANCH   9  11
ATOM     11  C   UNL     1      50.712   6.037  17.561  0.00  0.00    +0.000 C 
BRANCH  11  12
ATOM     12  C   UNL     1      49.732   4.910  17.302  0.00  0.00    +0.000 A 
ATOM     13  C   UNL     1      48.429   5.171  16.853  0.00  0.00    +0.000 A 
ATOM     14  C   UNL     1      47.554   4.119  16.574  0.00  0.00    +0.000 A 
ATOM     15  C   UNL     1      47.966   2.799  16.750  0.00  0.00    +0.000 A 
ATOM     16  C   UNL     1      49.252   2.530  17.215  0.00  0.00    +0.000 A 
ATOM     17  C   UNL     1      50.132   3.579  17.484  0.00  0.00    +0.000 A 
ENDBRANCH  11  12
ENDBRANCH   9  11
ENDBRANCH   8   9
ENDBRANCH   5   8
ENDBRANCH   1   2
BRANCH   1  20
ATOM     18  C   UNL     1      45.067   6.706  11.518  0.00  0.00    +0.000 C 
ATOM     19  O   UNL     1      44.266   7.617  11.325  0.00  0.00    +0.000 OA
ATOM     20  N   UNL     1      46.390   6.936  11.790  0.00  0.00    +0.000 N 
ATOM     21  H   UNL     1      46.950   6.187  12.172  0.00  0.00    +0.000 HD
BRANCH  18  28
ATOM     22  N   UNL     1      45.493   3.441   8.219  0.00  0.00    +0.000 N 
ATOM     23  C   UNL     1      44.868   2.269   8.600  0.00  0.00    +0.000 A 
ATOM     24  N   UNL     1      44.285   2.062   9.736  0.00  0.00    +0.000 NA
ATOM     25  C   UNL     1      44.292   3.132  10.573  0.00  0.00    +0.000 A 
ATOM     26  S   UNL     1      43.509   3.079  12.082  0.00  0.00    +0.000 S 
ATOM     27  C   UNL     1      43.939   4.695  12.425  0.00  0.00    +0.000 A 
ATOM     28  C   UNL     1      44.661   5.301  11.407  0.00  0.00    +0.000 A 
ATOM     29  C   UNL     1      44.888   4.354  10.340  0.00  0.00    +0.000 A 
ATOM     30  C   UNL     1      45.622   4.509   9.103  0.00  0.00    +0.000 A 
ATOM     31  O   UNL     1      46.288   5.508   8.849  0.00  0.00    +0.000 OA
BRANCH  22  33
ATOM     32  C   UNL     1      47.031   2.435   6.570  0.00  0.00    +0.000 C 
ATOM     33  C   UNL     1      46.071   3.571   6.890  0.00  0.00    +0.000 C 
ENDBRANCH  22  33
ENDBRANCH  18  28
ENDBRANCH   1  20
TORSDOF 8
ENDMDL
MODEL 4
REMARK VINA RESULT:    -7.426      2.226      2.674
REMARK INTER + INTRA:         -12.282
REMARK INTER:                 -10.888
REMARK INTRA:                  -1.394
REMARK UNBOUND:                -1.382
REMARK  Name = 
REMARK  10 active torsions:
REMARK  status: ('A' for Active; 'I' for Inactive)
REMARK    1  A    between atoms: C_1  and  C_2
REMARK    2  A    between atoms: C_2  and  N_3
REMARK    3  A    between atoms: C_9  and  C_10
REMARK    4  A    between atoms: N_12  and  C_13
REMARK    5  A    between atoms: C_13  and  C_14
REMARK    6  A    between atoms: C_17  and  C_18
REMARK    7  A    between atoms: C_18  and  N_19
REMARK    8  A    between atoms: N_19  and  C_20
REMARK    9  A    between atoms: N_19  and  C_21
REMARK   10  A    between atoms: C_21  and  C_22
REMARK                            x       y       z     vdW  Elec       q    Type
REMARK                         _______ _______ _______ _____ _____    ______ ____
ROOT
ATOM      1  C   UNL     1      49.158   7.987  12.966  0.00  0.00    +0.000 C 
ENDROOT
BRANCH   1   2
ATOM      2  C   UNL     1      47.817   7.328  12.785  0.00  0.00    +0.000 A 
ATOM      3  C   UNL     1      46.779   8.002  12.132  0.00  0.00    +0.000 A 
ATOM      4  C   UNL     1      45.558   7.367  11.909  0.00  0.00    +0.000 A 
ATOM      5  C   UNL     1      45.353   6.047  12.333  0.00  0.00    +0.000 A 
ATOM      6  C   UNL     1      46.365   5.398  13.049  0.00  0.00    +0.000 A 
ATOM      7  C   UNL     1      47.587   6.035  13.279  0.00  0.00    +0.000 A 
BRANCH   5   8
ATOM      8  C   UNL     1      44.076   5.321  11.966  0.00  0.00    +0.000 C 
BRANCH   8   9
ATOM      9  N   UNL     1      44.330   4.016  11.321  0.00  0.00    +0.000 NA
ATOM     10  C   UNL     1      43.543   2.953  11.965  0.00  0.00    +0.000 C 
BRANCH   9  11
ATOM     11  C   UNL     1      43.999   4.056   9.885  0.00  0.00    +0.000 C 
BRANCH  11  12
ATOM     12  C   UNL     1      45.045   3.431   8.983  0.00  0.00    +0.000 A 
ATOM     13  C   UNL     1      45.271   2.046   8.986  0.00  0.00    +0.000 A 
ATOM     14  C   UNL     1      46.204   1.481   8.116  0.00  0.00    +0.000 A 
ATOM     15  C   UNL     1      46.929   2.291   7.243  0.00  0.00    +0.000 A 
ATOM     16  C   UNL     1      46.727   3.670   7.246  0.00  0.00    +0.000 A 
ATOM     17  C   UNL     1      45.786   4.237   8.108  0.00  0.00    +0.000 A 
ENDBRANCH  11  12
ENDBRANCH   9  11
ENDBRANCH   8   9
ENDBRANCH   5   8
ENDBRANCH   1   2
BRANCH   1  20
ATOM     18  C   UNL     1      50.653   7.924  14.891  0.00  0.00    +0.000 C 
ATOM     19  O   UNL     1      50.474   9.116  15.127  0.00  0.00    +0.000 OA
ATOM     20  N   UNL     1      49.977   7.263  13.900  0.00  0.00    +0.000 N 
ATOM     21  H   UNL     1      50.321   6.366  13.585  0.00  0.00    +0.000 HD
BRANCH  18  28
ATOM     22  N   UNL     1      50.081   4.692  18.200  0.00  0.00    +0.000 N 
ATOM     23  C   UNL     1      51.300   4.277  18.701  0.00  0.00    +0.000 A 
ATOM     24  N   UNL     1      52.459   4.675  18.287  0.00  0.00    +0.000 NA
ATOM     25  C   UNL     1      52.412   5.601  17.294  0.00  0.00    +0.000 A 
ATOM     26  S   UNL     1      53.831   6.301  16.670  0.00  0.00    +0.000 S 
ATOM     27  C   UNL     1      52.940   7.287  15.598  0.00  0.00    +0.000 A 
ATOM     28  C   UNL     1      51.568   7.117  15.705  0.00  0.00    +0.000 A 
ATOM     29  C   UNL     1      51.278   6.096  16.685  0.00  0.00    +0.000 A 
ATOM     30  C   UNL     1      50.007   5.547  17.104  0.00  0.00    +0.000 A 
ATOM     31  O   UNL     1      48.949   5.826  16.546  0.00  0.00    +0.000 OA
BRANCH  22  33
ATOM     32  C   UNL     1      48.396   5.063  19.966  0.00  0.00    +0.000 C 
ATOM     33  C   UNL     1      48.840   4.211  18.786  0.00  0.00    +0.000 C 
ENDBRANCH  22  33
ENDBRANCH  18  28
ENDBRANCH   1  20
TORSDOF 8
ENDMDL
MODEL 5
REMARK VINA RESULT:    -7.112      3.138      8.745
REMARK INTER + INTRA:         -11.821
REMARK INTER:                 -10.084
REMARK INTRA:                  -1.737
REMARK UNBOUND:                -1.382
REMARK  Name = 
REMARK  10 active torsions:
REMARK  status: ('A' for Active; 'I' for Inactive)
REMARK    1  A    between atoms: C_1  and  C_2
REMARK    2  A    between atoms: C_2  and  N_3
REMARK    3  A    between atoms: C_9  and  C_10
REMARK    4  A    between atoms: N_12  and  C_13
REMARK    5  A    between atoms: C_13  and  C_14
REMARK    6  A    between atoms: C_17  and  C_18
REMARK    7  A    between atoms: C_18  and  N_19
REMARK    8  A    between atoms: N_19  and  C_20
REMARK    9  A    between atoms: N_19  and  C_21
REMARK   10  A    between atoms: C_21  and  C_22
REMARK                            x       y       z     vdW  Elec       q    Type
REMARK                         _______ _______ _______ _____ _____    ______ ____
ROOT
ATOM      1  C   UNL     1      47.266   3.328  17.328  0.00  0.00    +0.000 C 
ENDROOT
BRANCH   1   2
ATOM      2  C   UNL     1      48.650   3.582  17.860  0.00  0.00    +0.000 A 
ATOM      3  C   UNL     1      49.735   2.828  17.399  0.00  0.00    +0.000 A 
ATOM      4  C   UNL     1      51.027   3.106  17.845  0.00  0.00    +0.000 A 
ATOM      5  C   UNL     1      51.257   4.145  18.757  0.00  0.00    +0.000 A 
ATOM      6  C   UNL     1      50.166   4.853  19.272  0.00  0.00    +0.000 A 
ATOM      7  C   UNL     1      48.870   4.571  18.831  0.00  0.00    +0.000 A 
BRANCH   5   8
ATOM      8  C   UNL     1      52.674   4.529  19.129  0.00  0.00    +0.000 C 
BRANCH   8   9
ATOM      9  N   UNL     1      53.081   5.827  18.553  0.00  0.00    +0.000 NA
ATOM     10  C   UNL     1      54.214   6.398  19.298  0.00  0.00    +0.000 C 
BRANCH   9  11
ATOM     11  C   UNL     1      53.460   5.688  17.135  0.00  0.00    +0.000 C 
BRANCH  11  12
ATOM     12  C   UNL     1      52.701   6.599  16.191  0.00  0.00    +0.000 A 
ATOM     13  C   UNL     1      51.300   6.660  16.211  0.00  0.00    +0.000 A 
ATOM     14  C   UNL     1      50.618   7.538  15.368  0.00  0.00    +0.000 A 
ATOM     15  C   UNL     1      51.326   8.355  14.487  0.00  0.00    +0.000 A 
ATOM     16  C   UNL     1      52.717   8.287  14.444  0.00  0.00    +0.000 A 
ATOM     17  C   UNL     1      53.402   7.418  15.294  0.00  0.00    +0.000 A 
ENDBRANCH  11  12
ENDBRANCH   9  11
ENDBRANCH   8   9
ENDBRANCH   5   8
ENDBRANCH   1   2
BRANCH   1  20
ATOM     18  C   UNL     1      47.245   3.911  14.961  0.00  0.00    +0.000 C 
ATOM     19  O   UNL     1      47.655   2.800  14.636  0.00  0.00    +0.000 OA
ATOM     20  N   UNL     1      46.940   4.231  16.257  0.00  0.00    +0.000 N 
ATOM     21  H   UNL     1      46.841   5.204  16.512  0.00  0.00    +0.000 HD
BRANCH  18  28
ATOM     22  N   UNL     1      44.836   4.096  10.975  0.00  0.00    +0.000 N 
ATOM     23  C   UNL     1      44.981   5.329  10.367  0.00  0.00    +0.000 A 
ATOM     24  N   UNL     1      45.645   6.330  10.845  0.00  0.00    +0.000 NA
ATOM     25  C   UNL     1      46.255   6.083  12.034  0.00  0.00    +0.000 A 
ATOM     26  S   UNL     1      47.236   7.252  12.785  0.00  0.00    +0.000 S 
ATOM     27  C   UNL     1      47.595   6.200  14.080  0.00  0.00    +0.000 A 
ATOM     28  C   UNL     1      46.998   4.953  13.959  0.00  0.00    +0.000 A 
ATOM     29  C   UNL     1      46.186   4.916  12.765  0.00  0.00    +0.000 A 
ATOM     30  C   UNL     1      45.346   3.857  12.248  0.00  0.00    +0.000 A 
ATOM     31  O   UNL     1      45.119   2.827  12.875  0.00  0.00    +0.000 OA
BRANCH  22  33
ATOM     32  C   UNL     1      44.925   2.375   9.208  0.00  0.00    +0.000 C 
ATOM     33  C   UNL     1      44.106   3.027  10.311  0.00  0.00    +0.000 C 
ENDBRANCH  22  33
ENDBRANCH  18  28
ENDBRANCH   1  20
TORSDOF 8
ENDMDL
MODEL 6
REMARK VINA RESULT:    -7.076      2.709      9.325
REMARK INTER + INTRA:         -11.767
REMARK INTER:                  -9.683
REMARK INTRA:                  -2.084
REMARK UNBOUND:                -1.382
REMARK  Name = 
REMARK  10 active torsions:
REMARK  status: ('A' for Active; 'I' for Inactive)
REMARK    1  A    between atoms: C_1  and  C_2
REMARK    2  A    between atoms: C_2  and  N_3
REMARK    3  A    between atoms: C_9  and  C_10
REMARK    4  A    between atoms: N_12  and  C_13
REMARK    5  A    between atoms: C_13  and  C_14
REMARK    6  A    between atoms: C_17  and  C_18
REMARK    7  A    between atoms: C_18  and  N_19
REMARK    8  A    between atoms: N_19  and  C_20
REMARK    9  A    between atoms: N_19  and  C_21
REMARK   10  A    between atoms: C_21  and  C_22
REMARK                            x       y       z     vdW  Elec       q    Type
REMARK                         _______ _______ _______ _____ _____    ______ ____
ROOT
ATOM      1  C   UNL     1      47.240   3.552  17.396  0.00  0.00    +0.000 C 
ENDROOT
BRANCH   1   2
ATOM      2  C   UNL     1      48.512   3.959  18.090  0.00  0.00    +0.000 A 
ATOM      3  C   UNL     1      49.732   3.928  17.406  0.00  0.00    +0.000 A 
ATOM      4  C   UNL     1      50.901   4.365  18.029  0.00  0.00    +0.000 A 
ATOM      5  C   UNL     1      50.869   4.843  19.347  0.00  0.00    +0.000 A 
ATOM      6  C   UNL     1      49.663   4.806  20.055  0.00  0.00    +0.000 A 
ATOM      7  C   UNL     1      48.493   4.362  19.433  0.00  0.00    +0.000 A 
BRANCH   5   8
ATOM      8  C   UNL     1      52.114   5.442  19.967  0.00  0.00    +0.000 C 
BRANCH   8   9
ATOM      9  N   UNL     1      51.896   6.817  20.462  0.00  0.00    +0.000 NA
ATOM     10  C   UNL     1      52.994   7.235  21.347  0.00  0.00    +0.000 C 
BRANCH   9  11
ATOM     11  C   UNL     1      51.787   7.775  19.347  0.00  0.00    +0.000 C 
BRANCH  11  12
ATOM     12  C   UNL     1      50.364   8.102  18.938  0.00  0.00    +0.000 A 
ATOM     13  C   UNL     1      49.947   7.980  17.604  0.00  0.00    +0.000 A 
ATOM     14  C   UNL     1      48.622   8.240  17.251  0.00  0.00    +0.000 A 
ATOM     15  C   UNL     1      47.703   8.635  18.222  0.00  0.00    +0.000 A 
ATOM     16  C   UNL     1      48.112   8.780  19.546  0.00  0.00    +0.000 A 
ATOM     17  C   UNL     1      49.434   8.510  19.904  0.00  0.00    +0.000 A 
ENDBRANCH  11  12
ENDBRANCH   9  11
ENDBRANCH   8   9
ENDBRANCH   5   8
ENDBRANCH   1   2
BRANCH   1  20
ATOM     18  C   UNL     1      47.255   4.038  15.007  0.00  0.00    +0.000 C 
ATOM     19  O   UNL     1      47.640   2.904  14.732  0.00  0.00    +0.000 OA
ATOM     20  N   UNL     1      46.947   4.418  16.286  0.00  0.00    +0.000 N 
ATOM     21  H   UNL     1      46.870   5.403  16.500  0.00  0.00    +0.000 HD
BRANCH  18  28
ATOM     22  N   UNL     1      44.854   4.132  11.013  0.00  0.00    +0.000 N 
ATOM     23  C   UNL     1      45.041   5.332  10.353  0.00  0.00    +0.000 A 
ATOM     24  N   UNL     1      45.738   6.330  10.789  0.00  0.00    +0.000 NA
ATOM     25  C   UNL     1      46.338   6.114  11.988  0.00  0.00    +0.000 A 
ATOM     26  S   UNL     1      47.357   7.281  12.690  0.00  0.00    +0.000 S 
ATOM     27  C   UNL     1      47.682   6.274  14.030  0.00  0.00    +0.000 A 
ATOM     28  C   UNL     1      47.044   5.043  13.961  0.00  0.00    +0.000 A 
ATOM     29  C   UNL     1      46.230   4.982  12.769  0.00  0.00    +0.000 A 
ATOM     30  C   UNL     1      45.356   3.931  12.295  0.00  0.00    +0.000 A 
ATOM     31  O   UNL     1      45.095   2.936  12.966  0.00  0.00    +0.000 OA
BRANCH  22  33
ATOM     32  C   UNL     1      44.881   2.345   9.310  0.00  0.00    +0.000 C 
ATOM     33  C   UNL     1      44.089   3.061  10.394  0.00  0.00    +0.000 C 
ENDBRANCH  22  33
ENDBRANCH  18  28
ENDBRANCH   1  20
TORSDOF 8
ENDMDL
MODEL 7
REMARK VINA RESULT:    -7.045      2.010      3.974
REMARK INTER + INTRA:         -11.722
REMARK INTER:                 -10.558
REMARK INTRA:                  -1.163
REMARK UNBOUND:                -1.382
REMARK  Name = 
REMARK  10 active torsions:
REMARK  status: ('A' for Active; 'I' for Inactive)
REMARK    1  A    between atoms: C_1  and  C_2
REMARK    2  A    between atoms: C_2  and  N_3
REMARK    3  A    between atoms: C_9  and  C_10
REMARK    4  A    between atoms: N_12  and  C_13
REMARK    5  A    between atoms: C_13  and  C_14
REMARK    6  A    between atoms: C_17  and  C_18
REMARK    7  A    between atoms: C_18  and  N_19
REMARK    8  A    between atoms: N_19  and  C_20
REMARK    9  A    between atoms: N_19  and  C_21
REMARK   10  A    between atoms: C_21  and  C_22
REMARK                            x       y       z     vdW  Elec       q    Type
REMARK                         _______ _______ _______ _____ _____    ______ ____
ROOT
ATOM      1  C   UNL     1      47.924   4.457  15.934  0.00  0.00    +0.000 C 
ENDROOT
BRANCH   1   2
ATOM      2  C   UNL     1      47.246   4.760  14.625  0.00  0.00    +0.000 A 
ATOM      3  C   UNL     1      47.393   6.015  14.026  0.00  0.00    +0.000 A 
ATOM      4  C   UNL     1      46.817   6.274  12.782  0.00  0.00    +0.000 A 
ATOM      5  C   UNL     1      46.087   5.282  12.114  0.00  0.00    +0.000 A 
ATOM      6  C   UNL     1      45.880   4.050  12.745  0.00  0.00    +0.000 A 
ATOM      7  C   UNL     1      46.450   3.791  13.994  0.00  0.00    +0.000 A 
BRANCH   5   8
ATOM      8  C   UNL     1      45.583   5.526  10.707  0.00  0.00    +0.000 C 
BRANCH   8   9
ATOM      9  N   UNL     1      44.619   4.498  10.263  0.00  0.00    +0.000 NA
ATOM     10  C   UNL     1      43.261   4.818  10.730  0.00  0.00    +0.000 C 
BRANCH   9  11
ATOM     11  C   UNL     1      44.605   4.377   8.794  0.00  0.00    +0.000 C 
BRANCH  11  12
ATOM     12  C   UNL     1      45.579   3.356   8.239  0.00  0.00    +0.000 A 
ATOM     13  C   UNL     1      45.517   2.010   8.627  0.00  0.00    +0.000 A 
ATOM     14  C   UNL     1      46.390   1.073   8.071  0.00  0.00    +0.000 A 
ATOM     15  C   UNL     1      47.341   1.473   7.133  0.00  0.00    +0.000 A 
ATOM     16  C   UNL     1      47.425   2.812   6.756  0.00  0.00    +0.000 A 
ATOM     17  C   UNL     1      46.545   3.748   7.302  0.00  0.00    +0.000 A 
ENDBRANCH  11  12
ENDBRANCH   9  11
ENDBRANCH   8   9
ENDBRANCH   5   8
ENDBRANCH   1   2
BRANCH   1  20
ATOM     18  C   UNL     1      48.521   5.640  17.981  0.00  0.00    +0.000 C 
ATOM     19  O   UNL     1      49.566   5.006  18.097  0.00  0.00    +0.000 OA
ATOM     20  N   UNL     1      47.693   5.498  16.898  0.00  0.00    +0.000 N 
ATOM     21  H   UNL     1      46.746   5.848  16.955  0.00  0.00    +0.000 HD
BRANCH  18  28
ATOM     22  N   UNL     1      48.201  10.290  17.979  0.00  0.00    +0.000 N 
ATOM     23  C   UNL     1      47.825  10.759  19.224  0.00  0.00    +0.000 A 
ATOM     24  N   UNL     1      47.542  10.026  20.251  0.00  0.00    +0.000 NA
ATOM     25  C   UNL     1      47.670   8.690  20.039  0.00  0.00    +0.000 A 
ATOM     26  S   UNL     1      47.414   7.568  21.291  0.00  0.00    +0.000 S 
ATOM     27  C   UNL     1      47.786   6.254  20.265  0.00  0.00    +0.000 A 
ATOM     28  C   UNL     1      48.123   6.641  18.976  0.00  0.00    +0.000 A 
ATOM     29  C   UNL     1      48.016   8.076  18.853  0.00  0.00    +0.000 A 
ATOM     30  C   UNL     1      48.221   8.926  17.701  0.00  0.00    +0.000 A 
ATOM     31  O   UNL     1      48.413   8.478  16.574  0.00  0.00    +0.000 OA
BRANCH  22  33
ATOM     32  C   UNL     1      48.762  12.631  17.434  0.00  0.00    +0.000 C 
ATOM     33  C   UNL     1      48.546  11.218  16.914  0.00  0.00    +0.000 C 
ENDBRANCH  22  33
ENDBRANCH  18  28
ENDBRANCH   1  20
TORSDOF 8
ENDMDL
MODEL 8
REMARK VINA RESULT:    -6.959      2.366      3.796
REMARK INTER + INTRA:         -11.596
REMARK INTER:                 -10.135
REMARK INTRA:                  -1.461
REMARK UNBOUND:                -1.382
REMARK  Name = 
REMARK  10 active torsions:
REMARK  status: ('A' for Active; 'I' for Inactive)
REMARK    1  A    between atoms: C_1  and  C_2
REMARK    2  A    between atoms: C_2  and  N_3
REMARK    3  A    between atoms: C_9  and  C_10
REMARK    4  A    between atoms: N_12  and  C_13
REMARK    5  A    between atoms: C_13  and  C_14
REMARK    6  A    between atoms: C_17  and  C_18
REMARK    7  A    between atoms: C_18  and  N_19
REMARK    8  A    between atoms: N_19  and  C_20
REMARK    9  A    between atoms: N_19  and  C_21
REMARK   10  A    between atoms: C_21  and  C_22
REMARK                            x       y       z     vdW  Elec       q    Type
REMARK                         _______ _______ _______ _____ _____    ______ ____
ROOT
ATOM      1  C   UNL     1      47.343   4.406  16.034  0.00  0.00    +0.000 C 
ENDROOT
BRANCH   1   2
ATOM      2  C   UNL     1      46.968   4.643  14.596  0.00  0.00    +0.000 A 
ATOM      3  C   UNL     1      46.512   3.587  13.800  0.00  0.00    +0.000 A 
ATOM      4  C   UNL     1      46.105   3.820  12.486  0.00  0.00    +0.000 A 
ATOM      5  C   UNL     1      46.143   5.114  11.947  0.00  0.00    +0.000 A 
ATOM      6  C   UNL     1      46.666   6.157  12.719  0.00  0.00    +0.000 A 
ATOM      7  C   UNL     1      47.081   5.924  14.033  0.00  0.00    +0.000 A 
BRANCH   5   8
ATOM      8  C   UNL     1      45.572   5.380  10.570  0.00  0.00    +0.000 C 
BRANCH   8   9
ATOM      9  N   UNL     1      44.470   4.459  10.225  0.00  0.00    +0.000 NA
ATOM     10  C   UNL     1      43.184   4.970  10.726  0.00  0.00    +0.000 C 
BRANCH   9  11
ATOM     11  C   UNL     1      44.373   4.263   8.767  0.00  0.00    +0.000 C 
BRANCH  11  12
ATOM     12  C   UNL     1      45.406   3.315   8.191  0.00  0.00    +0.000 A 
ATOM     13  C   UNL     1      46.382   3.766   7.291  0.00  0.00    +0.000 A 
ATOM     14  C   UNL     1      47.355   2.891   6.806  0.00  0.00    +0.000 A 
ATOM     15  C   UNL     1      47.358   1.555   7.205  0.00  0.00    +0.000 A 
ATOM     16  C   UNL     1      46.380   1.092   8.083  0.00  0.00    +0.000 A 
ATOM     17  C   UNL     1      45.412   1.967   8.578  0.00  0.00    +0.000 A 
ENDBRANCH  11  12
ENDBRANCH   9  11
ENDBRANCH   8   9
ENDBRANCH   5   8
ENDBRANCH   1   2
BRANCH   1  20
ATOM     18  C   UNL     1      49.440   5.078  17.081  0.00  0.00    +0.000 C 
ATOM     19  O   UNL     1      49.874   3.929  17.057  0.00  0.00    +0.000 OA
ATOM     20  N   UNL     1      48.239   5.421  16.518  0.00  0.00    +0.000 N 
ATOM     21  H   UNL     1      47.816   6.305  16.765  0.00  0.00    +0.000 HD
BRANCH  18  28
ATOM     22  N   UNL     1      51.867   8.651  15.329  0.00  0.00    +0.000 N 
ATOM     23  C   UNL     1      52.479   9.374  16.336  0.00  0.00    +0.000 A 
ATOM     24  N   UNL     1      52.365   9.143  17.603  0.00  0.00    +0.000 NA
ATOM     25  C   UNL     1      51.590   8.071  17.911  0.00  0.00    +0.000 A 
ATOM     26  S   UNL     1      51.380   7.564  19.521  0.00  0.00    +0.000 S 
ATOM     27  C   UNL     1      50.392   6.257  19.040  0.00  0.00    +0.000 A 
ATOM     28  C   UNL     1      50.220   6.174  17.666  0.00  0.00    +0.000 A 
ATOM     29  C   UNL     1      50.904   7.270  17.021  0.00  0.00    +0.000 A 
ATOM     30  C   UNL     1      50.972   7.626  15.620  0.00  0.00    +0.000 A 
ATOM     31  O   UNL     1      50.306   7.056  14.761  0.00  0.00    +0.000 OA
BRANCH  22  33
ATOM     32  C   UNL     1      53.400   8.345  13.419  0.00  0.00    +0.000 C 
ATOM     33  C   UNL     1      52.115   8.976  13.933  0.00  0.00    +0.000 C 
ENDBRANCH  22  33
ENDBRANCH  18  28
ENDBRANCH   1  20
TORSDOF 8
ENDMDL
MODEL 9
REMARK VINA RESULT:    -6.730      3.815      5.647
REMARK INTER + INTRA:         -11.260
REMARK INTER:                 -10.373
REMARK INTRA:                  -0.887
REMARK UNBOUND:                -1.382
REMARK  Name = 
REMARK  10 active torsions:
REMARK  status: ('A' for Active; 'I' for Inactive)
REMARK    1  A    between atoms: C_1  and  C_2
REMARK    2  A    between atoms: C_2  and  N_3
REMARK    3  A    between atoms: C_9  and  C_10
REMARK    4  A    between atoms: N_12  and  C_13
REMARK    5  A    between atoms: C_13  and  C_14
REMARK    6  A    between atoms: C_17  and  C_18
REMARK    7  A    between atoms: C_18  and  N_19
REMARK    8  A    between atoms: N_19  and  C_20
REMARK    9  A    between atoms: N_19  and  C_21
REMARK   10  A    between atoms: C_21  and  C_22
REMARK                            x       y       z     vdW  Elec       q    Type
REMARK                         _______ _______ _______ _____ _____    ______ ____
ROOT
ATOM      1  C   UNL     1      47.362   8.312  13.639  0.00  0.00    +0.000 C 
ENDROOT
BRANCH   1   2
ATOM      2  C   UNL     1      46.485   7.361  12.870  0.00  0.00    +0.000 A 
ATOM      3  C   UNL     1      45.316   7.818  12.253  0.00  0.00    +0.000 A 
ATOM      4  C   UNL     1      44.537   6.950  11.487  0.00  0.00    +0.000 A 
ATOM      5  C   UNL     1      44.916   5.611  11.324  0.00  0.00    +0.000 A 
ATOM      6  C   UNL     1      46.045   5.135  12.000  0.00  0.00    +0.000 A 
ATOM      7  C   UNL     1      46.822   6.002  12.772  0.00  0.00    +0.000 A 
BRANCH   5   8
ATOM      8  C   UNL     1      44.141   4.712  10.383  0.00  0.00    +0.000 C 
BRANCH   8   9
ATOM      9  N   UNL     1      44.399   3.278  10.627  0.00  0.00    +0.000 NA
ATOM     10  C   UNL     1      43.495   2.752  11.661  0.00  0.00    +0.000 C 
BRANCH   9  11
ATOM     11  C   UNL     1      44.230   2.487   9.394  0.00  0.00    +0.000 C 
BRANCH  11  12
ATOM     12  C   UNL     1      45.422   2.523   8.457  0.00  0.00    +0.000 A 
ATOM     13  C   UNL     1      45.835   3.721   7.855  0.00  0.00    +0.000 A 
ATOM     14  C   UNL     1      46.962   3.747   7.032  0.00  0.00    +0.000 A 
ATOM     15  C   UNL     1      47.681   2.577   6.792  0.00  0.00    +0.000 A 
ATOM     16  C   UNL     1      47.267   1.377   7.368  0.00  0.00    +0.000 A 
ATOM     17  C   UNL     1      46.146   1.351   8.200  0.00  0.00    +0.000 A 
ENDBRANCH  11  12
ENDBRANCH   9  11
ENDBRANCH   8   9
ENDBRANCH   5   8
ENDBRANCH   1   2
BRANCH   1  20
ATOM     18  C   UNL     1      49.600   9.045  13.004  0.00  0.00    +0.000 C 
ATOM     19  O   UNL     1      50.125   8.334  13.857  0.00  0.00    +0.000 OA
ATOM     20  N   UNL     1      48.250   9.030  12.766  0.00  0.00    +0.000 N 
ATOM     21  H   UNL     1      47.837   9.787  12.238  0.00  0.00    +0.000 HD
BRANCH  18  28
ATOM     22  N   UNL     1      52.651   8.300   9.560  0.00  0.00    +0.000 N 
ATOM     23  C   UNL     1      53.184   9.491   9.107  0.00  0.00    +0.000 A 
ATOM     24  N   UNL     1      52.857  10.670   9.527  0.00  0.00    +0.000 NA
ATOM     25  C   UNL     1      51.928  10.675  10.518  0.00  0.00    +0.000 A 
ATOM     26  S   UNL     1      51.425  12.125  11.251  0.00  0.00    +0.000 S 
ATOM     27  C   UNL     1      50.378  11.292  12.310  0.00  0.00    +0.000 A 
ATOM     28  C   UNL     1      50.403   9.915  12.139  0.00  0.00    +0.000 A 
ATOM     29  C   UNL     1      51.296   9.574  11.057  0.00  0.00    +0.000 A 
ATOM     30  C   UNL     1      51.612   8.283  10.486  0.00  0.00    +0.000 A 
ATOM     31  O   UNL     1      51.021   7.256  10.807  0.00  0.00    +0.000 OA
BRANCH  22  33
ATOM     32  C   UNL     1      52.534   6.690   7.692  0.00  0.00    +0.000 C 
ATOM     33  C   UNL     1      53.139   7.030   9.046  0.00  0.00    +0.000 C 
ENDBRANCH  22  33
ENDBRANCH  18  28
ENDBRANCH   1  20
TORSDOF 8
ENDMDL
