MODEL 1
REMARK VINA RESULT:    -8.109      0.000      0.000
REMARK INTER + INTRA:         -12.760
REMARK INTER:                 -11.428
REMARK INTRA:                  -1.332
REMARK UNBOUND:                -1.332
REMARK  Name = 
REMARK  7 active torsions:
REMARK  status: ('A' for Active; 'I' for Inactive)
REMARK    1  A    between atoms: C_2  and  C_20
REMARK    2  A    between atoms: N_3  and  C_4
REMARK    3  A    between atoms: C_4  and  C_5
REMARK    4  A    between atoms: C_8  and  C_9
REMARK    5  A    between atoms: C_9  and  C_10
REMARK    6  A    between atoms: C_10  and  O_11
REMARK    7  A    between atoms: O_11  and  C_12
REMARK                            x       y       z     vdW  Elec       q    Type
REMARK                         _______ _______ _______ _____ _____    ______ ____
ROOT
ATOM      1  C   UNL     1      48.184   7.356  12.873  0.00  0.00    +0.000 C 
ENDROOT
BRANCH   1   2
ATOM      2  C   UNL     1      47.132   6.358  12.498  0.00  0.00    +0.000 A 
ATOM      3  C   UNL     1      46.861   5.261  13.309  0.00  0.00    +0.000 A 
ATOM      4  C   UNL     1      45.894   4.304  12.931  0.00  0.00    +0.000 A 
ATOM      5  C   UNL     1      45.193   4.434  11.720  0.00  0.00    +0.000 A 
ATOM      6  C   UNL     1      45.479   5.533  10.899  0.00  0.00    +0.000 A 
ATOM      7  C   UNL     1      46.437   6.483  11.284  0.00  0.00    +0.000 A 
BRANCH   5   8
ATOM      8  C   UNL     1      44.150   3.443  11.252  0.00  0.00    +0.000 C 
BRANCH   8   9
ATOM      9  C   UNL     1      44.122   3.182   9.745  0.00  0.00    +0.000 C 
BRANCH   9  10
ATOM     10  O   UNL     1      44.850   1.996   9.431  0.00  0.00    +0.000 OA
BRANCH  10  11
ATOM     11  C   UNL     1      45.745   2.109   8.393  0.00  0.00    +0.000 A 
ATOM     12  C   UNL     1      46.579   1.086   7.928  0.00  0.00    +0.000 A 
ATOM     13  C   UNL     1      47.446   1.308   6.856  0.00  0.00    +0.000 A 
ATOM     14  C   UNL     1      47.489   2.559   6.249  0.00  0.00    +0.000 A 
ATOM     15  C   UNL     1      46.665   3.586   6.706  0.00  0.00    +0.000 A 
ATOM     16  C   UNL     1      45.799   3.359   7.781  0.00  0.00    +0.000 A 
ENDBRANCH  10  11
ENDBRANCH   9  10
ENDBRANCH   8   9
ENDBRANCH   5   8
ENDBRANCH   1   2
BRANCH   1  19
ATOM     17  O   UNL     1      48.457   8.481  15.470  0.00  0.00    +0.000 OA
ATOM     18  C   UNL     1      48.967   7.400  15.211  0.00  0.00    +0.000 C 
ATOM     19  N   UNL     1      49.003   6.855  13.943  0.00  0.00    +0.000 N 
ATOM     20  H   UNL     1      49.360   5.903  13.904  0.00  0.00    +0.000 HD
BRANCH  18  21
ATOM     21  C   UNL     1      49.502   6.480  16.231  0.00  0.00    +0.000 A 
ATOM     22  N   UNL     1      50.788   6.569  16.639  0.00  0.00    +0.000 NA
ATOM     23  N   UNL     1      50.980   5.438  17.337  0.00  0.00    +0.000 N 
ATOM     24  C   UNL     1      49.899   4.603  17.355  0.00  0.00    +0.000 A 
ATOM     25  C   UNL     1      49.754   3.282  17.794  0.00  0.00    +0.000 A 
ATOM     26  C   UNL     1      48.475   2.725  17.711  0.00  0.00    +0.000 A 
ATOM     27  C   UNL     1      47.389   3.473  17.257  0.00  0.00    +0.000 A 
ATOM     28  C   UNL     1      47.568   4.777  16.778  0.00  0.00    +0.000 A 
ATOM     29  C   UNL     1      48.862   5.331  16.786  0.00  0.00    +0.000 A 
ATOM     30  H   UNL     1      51.891   5.275  17.747  0.00  0.00    +0.000 HD
ENDBRANCH  18  21
ENDBRANCH   1  19
TORSDOF 7
ENDMDL
MODEL 2
REMARK VINA RESULT:    -8.102      2.776      8.366
REMARK INTER + INTRA:         -12.750
REMARK INTER:                 -11.499
REMARK INTRA:                  -1.251
REMARK UNBOUND:                -1.332
REMARK  Name = 
REMARK  7 active torsions:
REMARK  status: ('A' for Active; 'I' for Inactive)
REMARK    1  A    between atoms: C_2  and  C_20
REMARK    2  A    between atoms: N_3  and  C_4
REMARK    3  A    between atoms: C_4  and  C_5
REMARK    4  A    between atoms: C_8  and  C_9
REMARK    5  A    between atoms: C_9  and  C_10
REMARK    6  A    between atoms: C_10  and  O_11
REMARK    7  A    between atoms: O_11  and  C_12
REMARK                            x       y       z     vdW  Elec       q    Type
REMARK                         _______ _______ _______ _____ _____    ______ ____
ROOT
ATOM      1  C   UNL     1      45.210   7.035  11.417  0.00  0.00    +0.000 C 
ENDROOT
BRANCH   1   2
ATOM      2  C   UNL     1      46.387   7.330  12.296  0.00  0.00    +0.000 A 
ATOM      3  C   UNL     1      46.366   8.396  13.190  0.00  0.00    +0.000 A 
ATOM      4  C   UNL     1      47.492   8.691  13.989  0.00  0.00    +0.000 A 
ATOM      5  C   UNL     1      48.663   7.922  13.889  0.00  0.00    +0.000 A 
ATOM      6  C   UNL     1      48.685   6.857  12.977  0.00  0.00    +0.000 A 
ATOM      7  C   UNL     1      47.561   6.567  12.190  0.00  0.00    +0.000 A 
BRANCH   5   8
ATOM      8  C   UNL     1      49.906   8.186  14.710  0.00  0.00    +0.000 C 
BRANCH   8   9
ATOM      9  C   UNL     1      50.271   7.097  15.720  0.00  0.00    +0.000 C 
BRANCH   9  10
ATOM     10  O   UNL     1      49.142   6.767  16.528  0.00  0.00    +0.000 OA
BRANCH  10  11
ATOM     11  C   UNL     1      48.915   5.423  16.705  0.00  0.00    +0.000 A 
ATOM     12  C   UNL     1      49.707   4.563  17.473  0.00  0.00    +0.000 A 
ATOM     13  C   UNL     1      49.378   3.211  17.594  0.00  0.00    +0.000 A 
ATOM     14  C   UNL     1      48.256   2.711  16.938  0.00  0.00    +0.000 A 
ATOM     15  C   UNL     1      47.462   3.559  16.168  0.00  0.00    +0.000 A 
ATOM     16  C   UNL     1      47.797   4.912  16.050  0.00  0.00    +0.000 A 
ENDBRANCH  10  11
ENDBRANCH   9  10
ENDBRANCH   8   9
ENDBRANCH   5   8
ENDBRANCH   1   2
BRANCH   1  19
ATOM     17  O   UNL     1      42.876   5.536  10.799  0.00  0.00    +0.000 OA
ATOM     18  C   UNL     1      43.982   5.026  10.687  0.00  0.00    +0.000 C 
ATOM     19  N   UNL     1      45.150   5.635  11.100  0.00  0.00    +0.000 N 
ATOM     20  H   UNL     1      45.999   5.137  10.840  0.00  0.00    +0.000 HD
BRANCH  18  21
ATOM     21  C   UNL     1      44.232   3.752   9.987  0.00  0.00    +0.000 A 
ATOM     22  N   UNL     1      43.737   2.590  10.468  0.00  0.00    +0.000 NA
ATOM     23  N   UNL     1      44.378   1.651   9.752  0.00  0.00    +0.000 N 
ATOM     24  C   UNL     1      45.297   2.150   8.874  0.00  0.00    +0.000 A 
ATOM     25  C   UNL     1      46.282   1.521   8.104  0.00  0.00    +0.000 A 
ATOM     26  C   UNL     1      47.039   2.335   7.257  0.00  0.00    +0.000 A 
ATOM     27  C   UNL     1      46.786   3.703   7.153  0.00  0.00    +0.000 A 
ATOM     28  C   UNL     1      45.827   4.318   7.969  0.00  0.00    +0.000 A 
ATOM     29  C   UNL     1      45.104   3.526   8.881  0.00  0.00    +0.000 A 
ATOM     30  H   UNL     1      44.170   0.678   9.941  0.00  0.00    +0.000 HD
ENDBRANCH  18  21
ENDBRANCH   1  19
TORSDOF 7
ENDMDL
MODEL 3
REMARK VINA RESULT:    -7.720      2.321      2.781
REMARK INTER + INTRA:         -12.211
REMARK INTER:                 -11.316
REMARK INTRA:                  -0.895
REMARK UNBOUND:                -1.332
REMARK  Name = 
REMARK  7 active torsions:
REMARK  status: ('A' for Active; 'I' for Inactive)
REMARK    1  A    between atoms: C_2  and  C_20
REMARK    2  A    between atoms: N_3  and  C_4
REMARK    3  A    between atoms: C_4  and  C_5
REMARK    4  A    between atoms: C_8  and  C_9
REMARK    5  A    between atoms: C_9  and  C_10
REMARK    6  A    between atoms: C_10  and  O_11
REMARK    7  A    between atoms: O_11  and  C_12
REMARK                            x       y       z     vdW  Elec       q    Type
REMARK                         _______ _______ _______ _____ _____    ______ ____
ROOT
ATOM      1  C   UNL     1      47.989   5.685  14.488  0.00  0.00    +0.000 C 
ENDROOT
BRANCH   1   2
ATOM      2  C   UNL     1      46.856   5.333  13.573  0.00  0.00    +0.000 A 
ATOM      3  C   UNL     1      46.553   4.005  13.283  0.00  0.00    +0.000 A 
ATOM      4  C   UNL     1      45.508   3.681  12.392  0.00  0.00    +0.000 A 
ATOM      5  C   UNL     1      44.758   4.693  11.768  0.00  0.00    +0.000 A 
ATOM      6  C   UNL     1      45.075   6.028  12.052  0.00  0.00    +0.000 A 
ATOM      7  C   UNL     1      46.112   6.343  12.943  0.00  0.00    +0.000 A 
BRANCH   5   8
ATOM      8  C   UNL     1      43.630   4.416  10.799  0.00  0.00    +0.000 C 
BRANCH   8   9
ATOM      9  C   UNL     1      44.056   4.135   9.357  0.00  0.00    +0.000 C 
BRANCH   9  10
ATOM     10  O   UNL     1      44.398   2.759   9.196  0.00  0.00    +0.000 OA
BRANCH  10  11
ATOM     11  C   UNL     1      45.467   2.509   8.369  0.00  0.00    +0.000 A 
ATOM     12  C   UNL     1      46.075   1.261   8.188  0.00  0.00    +0.000 A 
ATOM     13  C   UNL     1      47.153   1.116   7.312  0.00  0.00    +0.000 A 
ATOM     14  C   UNL     1      47.634   2.223   6.618  0.00  0.00    +0.000 A 
ATOM     15  C   UNL     1      47.038   3.471   6.795  0.00  0.00    +0.000 A 
ATOM     16  C   UNL     1      45.959   3.611   7.674  0.00  0.00    +0.000 A 
ENDBRANCH  10  11
ENDBRANCH   9  10
ENDBRANCH   8   9
ENDBRANCH   5   8
ENDBRANCH   1   2
BRANCH   1  19
ATOM     17  O   UNL     1      48.404   3.458  16.204  0.00  0.00    +0.000 OA
ATOM     18  C   UNL     1      47.949   4.502  16.650  0.00  0.00    +0.000 C 
ATOM     19  N   UNL     1      47.586   5.576  15.863  0.00  0.00    +0.000 N 
ATOM     20  H   UNL     1      47.330   6.412  16.383  0.00  0.00    +0.000 HD
BRANCH  18  21
ATOM     21  C   UNL     1      47.841   4.801  18.090  0.00  0.00    +0.000 A 
ATOM     22  N   UNL     1      46.667   5.201  18.628  0.00  0.00    +0.000 NA
ATOM     23  N   UNL     1      47.009   5.631  19.853  0.00  0.00    +0.000 N 
ATOM     24  C   UNL     1      48.350   5.578  20.110  0.00  0.00    +0.000 A 
ATOM     25  C   UNL     1      49.115   6.095  21.161  0.00  0.00    +0.000 A 
ATOM     26  C   UNL     1      50.484   5.815  21.144  0.00  0.00    +0.000 A 
ATOM     27  C   UNL     1      51.046   5.015  20.149  0.00  0.00    +0.000 A 
ATOM     28  C   UNL     1      50.268   4.549  19.081  0.00  0.00    +0.000 A 
ATOM     29  C   UNL     1      48.901   4.881  19.042  0.00  0.00    +0.000 A 
ATOM     30  H   UNL     1      46.280   5.991  20.458  0.00  0.00    +0.000 HD
ENDBRANCH  18  21
ENDBRANCH   1  19
TORSDOF 7
ENDMDL
MODEL 4
REMARK VINA RESULT:    -7.542      2.330      3.260
REMARK INTER + INTRA:         -11.960
REMARK INTER:                 -11.116
REMARK INTRA:                  -0.844
REMARK UNBOUND:                -1.332
REMARK  Name = 
REMARK  7 active torsions:
REMARK  status: ('A' for Active; 'I' for Inactive)
REMARK    1  A    between atoms: C_2  and  C_20
REMARK    2  A    between atoms: N_3  and  C_4
REMARK    3  A    between atoms: C_4  and  C_5
REMARK    4  A    between atoms: C_8  and  C_9
REMARK    5  A    between atoms: C_9  and  C_10
REMARK    6  A    between atoms: C_10  and  O_11
REMARK    7  A    between atoms: O_11  and  C_12
REMARK                            x       y       z     vdW  Elec       q    Type
REMARK                         _______ _______ _______ _____ _____    ______ ____
ROOT
ATOM      1  C   UNL     1      48.302   6.488  13.790  0.00  0.00    +0.000 C 
ENDROOT
BRANCH   1   2
ATOM      2  C   UNL     1      47.118   5.906  13.082  0.00  0.00    +0.000 A 
ATOM      3  C   UNL     1      46.577   4.684  13.471  0.00  0.00    +0.000 A 
ATOM      4  C   UNL     1      45.484   4.124  12.776  0.00  0.00    +0.000 A 
ATOM      5  C   UNL     1      44.925   4.783  11.668  0.00  0.00    +0.000 A 
ATOM      6  C   UNL     1      45.480   6.007  11.271  0.00  0.00    +0.000 A 
ATOM      7  C   UNL     1      46.564   6.560  11.970  0.00  0.00    +0.000 A 
BRANCH   5   8
ATOM      8  C   UNL     1      43.758   4.237  10.875  0.00  0.00    +0.000 C 
BRANCH   8   9
ATOM      9  C   UNL     1      44.056   3.901   9.413  0.00  0.00    +0.000 C 
BRANCH   9  10
ATOM     10  O   UNL     1      44.711   2.638   9.314  0.00  0.00    +0.000 OA
BRANCH  10  11
ATOM     11  C   UNL     1      45.603   2.514   8.276  0.00  0.00    +0.000 A 
ATOM     12  C   UNL     1      45.871   3.497   7.317  0.00  0.00    +0.000 A 
ATOM     13  C   UNL     1      46.808   3.269   6.307  0.00  0.00    +0.000 A 
ATOM     14  C   UNL     1      47.477   2.050   6.247  0.00  0.00    +0.000 A 
ATOM     15  C   UNL     1      47.215   1.062   7.194  0.00  0.00    +0.000 A 
ATOM     16  C   UNL     1      46.274   1.295   8.204  0.00  0.00    +0.000 A 
ENDBRANCH  10  11
ENDBRANCH   9  10
ENDBRANCH   8   9
ENDBRANCH   5   8
ENDBRANCH   1   2
BRANCH   1  19
ATOM     17  O   UNL     1      50.299   6.443  15.813  0.00  0.00    +0.000 OA
ATOM     18  C   UNL     1      49.126   6.619  16.110  0.00  0.00    +0.000 C 
ATOM     19  N   UNL     1      48.084   6.513  15.211  0.00  0.00    +0.000 N 
ATOM     20  H   UNL     1      47.179   6.797  15.579  0.00  0.00    +0.000 HD
BRANCH  18  21
ATOM     21  C   UNL     1      48.676   7.087  17.435  0.00  0.00    +0.000 A 
ATOM     22  N   UNL     1      48.271   6.209  18.379  0.00  0.00    +0.000 NA
ATOM     23  N   UNL     1      47.695   6.986  19.310  0.00  0.00    +0.000 N 
ATOM     24  C   UNL     1      47.662   8.313  18.988  0.00  0.00    +0.000 A 
ATOM     25  C   UNL     1      47.001   9.395  19.579  0.00  0.00    +0.000 A 
ATOM     26  C   UNL     1      47.222  10.655  19.015  0.00  0.00    +0.000 A 
ATOM     27  C   UNL     1      48.100  10.824  17.944  0.00  0.00    +0.000 A 
ATOM     28  C   UNL     1      48.713   9.719  17.340  0.00  0.00    +0.000 A 
ATOM     29  C   UNL     1      48.447   8.433  17.848  0.00  0.00    +0.000 A 
ATOM     30  H   UNL     1      47.304   6.541  20.132  0.00  0.00    +0.000 HD
ENDBRANCH  18  21
ENDBRANCH   1  19
TORSDOF 7
ENDMDL
MODEL 5
REMARK VINA RESULT:    -7.509      3.050      8.889
REMARK INTER + INTRA:         -11.913
REMARK INTER:                 -10.657
REMARK INTRA:                  -1.256
REMARK UNBOUND:                -1.332
REMARK  Name = 
REMARK  7 active torsions:
REMARK  status: ('A' for Active; 'I' for Inactive)
REMARK    1  A    between atoms: C_2  and  C_20
REMARK    2  A    between atoms: N_3  and  C_4
REMARK    3  A    between atoms: C_4  and  C_5
REMARK    4  A    between atoms: C_8  and  C_9
REMARK    5  A    between atoms: C_9  and  C_10
REMARK    6  A    between atoms: C_10  and  O_11
REMARK    7  A    between atoms: O_11  and  C_12
REMARK                            x       y       z     vdW  Elec       q    Type
REMARK                         _______ _______ _______ _____ _____    ______ ____
ROOT
ATOM      1  C   UNL     1      43.858   5.023  12.874  0.00  0.00    +0.000 C 
ENDROOT
BRANCH   1   2
ATOM      2  C   UNL     1      45.241   5.557  13.086  0.00  0.00    +0.000 A 
ATOM      3  C   UNL     1      46.216   4.795  13.723  0.00  0.00    +0.000 A 
ATOM      4  C   UNL     1      47.507   5.319  13.952  0.00  0.00    +0.000 A 
ATOM      5  C   UNL     1      47.831   6.626  13.552  0.00  0.00    +0.000 A 
ATOM      6  C   UNL     1      46.843   7.395  12.923  0.00  0.00    +0.000 A 
ATOM      7  C   UNL     1      45.564   6.867  12.694  0.00  0.00    +0.000 A 
BRANCH   5   8
ATOM      8  C   UNL     1      49.192   7.251  13.772  0.00  0.00    +0.000 C 
BRANCH   8   9
ATOM      9  C   UNL     1      49.408   7.890  15.144  0.00  0.00    +0.000 C 
BRANCH   9  10
ATOM     10  O   UNL     1      49.876   6.919  16.079  0.00  0.00    +0.000 OA
BRANCH  10  11
ATOM     11  C   UNL     1      49.007   6.614  17.099  0.00  0.00    +0.000 A 
ATOM     12  C   UNL     1      48.519   5.335  17.390  0.00  0.00    +0.000 A 
ATOM     13  C   UNL     1      47.645   5.135  18.461  0.00  0.00    +0.000 A 
ATOM     14  C   UNL     1      47.248   6.217  19.242  0.00  0.00    +0.000 A 
ATOM     15  C   UNL     1      47.726   7.495  18.958  0.00  0.00    +0.000 A 
ATOM     16  C   UNL     1      48.601   7.690  17.884  0.00  0.00    +0.000 A 
ENDBRANCH  10  11
ENDBRANCH   9  10
ENDBRANCH   8   9
ENDBRANCH   5   8
ENDBRANCH   1   2
BRANCH   1  19
ATOM     17  O   UNL     1      43.406   5.365  10.089  0.00  0.00    +0.000 OA
ATOM     18  C   UNL     1      43.757   4.278  10.527  0.00  0.00    +0.000 C 
ATOM     19  N   UNL     1      43.858   3.992  11.873  0.00  0.00    +0.000 N 
ATOM     20  H   UNL     1      44.268   3.084  12.081  0.00  0.00    +0.000 HD
BRANCH  18  21
ATOM     21  C   UNL     1      44.234   3.168   9.681  0.00  0.00    +0.000 A 
ATOM     22  N   UNL     1      43.882   1.891   9.950  0.00  0.00    +0.000 NA
ATOM     23  N   UNL     1      44.698   1.165   9.169  0.00  0.00    +0.000 N 
ATOM     24  C   UNL     1      45.592   1.908   8.451  0.00  0.00    +0.000 A 
ATOM     25  C   UNL     1      46.705   1.539   7.689  0.00  0.00    +0.000 A 
ATOM     26  C   UNL     1      47.392   2.565   7.033  0.00  0.00    +0.000 A 
ATOM     27  C   UNL     1      46.950   3.887   7.100  0.00  0.00    +0.000 A 
ATOM     28  C   UNL     1      45.861   4.238   7.907  0.00  0.00    +0.000 A 
ATOM     29  C   UNL     1      45.201   3.229   8.633  0.00  0.00    +0.000 A 
ATOM     30  H   UNL     1      44.621   0.155   9.201  0.00  0.00    +0.000 HD
ENDBRANCH  18  21
ENDBRANCH   1  19
TORSDOF 7
ENDMDL
MODEL 6
REMARK VINA RESULT:    -7.504      2.455      3.173
REMARK INTER + INTRA:         -11.907
REMARK INTER:                 -10.933
REMARK INTRA:                  -0.973
REMARK UNBOUND:                -1.332
REMARK  Name = 
REMARK  7 active torsions:
REMARK  status: ('A' for Active; 'I' for Inactive)
REMARK    1  A    between atoms: C_2  and  C_20
REMARK    2  A    between atoms: N_3  and  C_4
REMARK    3  A    between atoms: C_4  and  C_5
REMARK    4  A    between atoms: C_8  and  C_9
REMARK    5  A    between atoms: C_9  and  C_10
REMARK    6  A    between atoms: C_10  and  O_11
REMARK    7  A    between atoms: O_11  and  C_12
REMARK                            x       y       z     vdW  Elec       q    Type
REMARK                         _______ _______ _______ _____ _____    ______ ____
ROOT
ATOM      1  C   UNL     1      47.412   3.774  15.047  0.00  0.00    +0.000 C 
ENDROOT
BRANCH   1   2
ATOM      2  C   UNL     1      46.618   4.181  13.844  0.00  0.00    +0.000 A 
ATOM      3  C   UNL     1      46.487   5.521  13.490  0.00  0.00    +0.000 A 
ATOM      4  C   UNL     1      45.708   5.900  12.376  0.00  0.00    +0.000 A 
ATOM      5  C   UNL     1      45.036   4.934  11.609  0.00  0.00    +0.000 A 
ATOM      6  C   UNL     1      45.159   3.587  11.977  0.00  0.00    +0.000 A 
ATOM      7  C   UNL     1      45.939   3.217  13.082  0.00  0.00    +0.000 A 
BRANCH   5   8
ATOM      8  C   UNL     1      44.179   5.271  10.408  0.00  0.00    +0.000 C 
BRANCH   8   9
ATOM      9  C   UNL     1      44.225   4.259   9.262  0.00  0.00    +0.000 C 
BRANCH   9  10
ATOM     10  O   UNL     1      45.282   4.575   8.358  0.00  0.00    +0.000 OA
BRANCH  10  11
ATOM     11  C   UNL     1      45.938   3.495   7.816  0.00  0.00    +0.000 A 
ATOM     12  C   UNL     1      46.767   3.534   6.689  0.00  0.00    +0.000 A 
ATOM     13  C   UNL     1      47.395   2.375   6.228  0.00  0.00    +0.000 A 
ATOM     14  C   UNL     1      47.189   1.168   6.888  0.00  0.00    +0.000 A 
ATOM     15  C   UNL     1      46.363   1.117   8.009  0.00  0.00    +0.000 A 
ATOM     16  C   UNL     1      45.735   2.281   8.467  0.00  0.00    +0.000 A 
ENDBRANCH  10  11
ENDBRANCH   9  10
ENDBRANCH   8   9
ENDBRANCH   5   8
ENDBRANCH   1   2
BRANCH   1  19
ATOM     17  O   UNL     1      49.523   4.502  16.806  0.00  0.00    +0.000 OA
ATOM     18  C   UNL     1      48.495   5.165  16.770  0.00  0.00    +0.000 C 
ATOM     19  N   UNL     1      47.374   4.800  16.054  0.00  0.00    +0.000 N 
ATOM     20  H   UNL     1      46.640   5.505  16.031  0.00  0.00    +0.000 HD
BRANCH  18  21
ATOM     21  C   UNL     1      48.357   6.499  17.385  0.00  0.00    +0.000 A 
ATOM     22  N   UNL     1      48.781   7.607  16.738  0.00  0.00    +0.000 NA
ATOM     23  N   UNL     1      48.748   8.560  17.684  0.00  0.00    +0.000 N 
ATOM     24  C   UNL     1      48.374   8.108  18.918  0.00  0.00    +0.000 A 
ATOM     25  C   UNL     1      48.398   8.720  20.176  0.00  0.00    +0.000 A 
ATOM     26  C   UNL     1      47.891   7.981  21.249  0.00  0.00    +0.000 A 
ATOM     27  C   UNL     1      47.344   6.712  21.057  0.00  0.00    +0.000 A 
ATOM     28  C   UNL     1      47.375   6.102  19.797  0.00  0.00    +0.000 A 
ATOM     29  C   UNL     1      47.947   6.801  18.718  0.00  0.00    +0.000 A 
ATOM     30  H   UNL     1      49.033   9.498  17.431  0.00  0.00    +0.000 HD
ENDBRANCH  18  21
ENDBRANCH   1  19
TORSDOF 7
ENDMDL
MODEL 7
REMARK VINA RESULT:    -7.329      1.972      3.541
REMARK INTER + INTRA:         -11.660
REMARK INTER:                 -10.514
REMARK INTRA:                  -1.145
REMARK UNBOUND:                -1.332
REMARK  Name = 
REMARK  7 active torsions:
REMARK  status: ('A' for Active; 'I' for Inactive)
REMARK    1  A    between atoms: C_2  and  C_20
REMARK    2  A    between atoms: N_3  and  C_4
REMARK    3  A    between atoms: C_4  and  C_5
REMARK    4  A    between atoms: C_8  and  C_9
REMARK    5  A    between atoms: C_9  and  C_10
REMARK    6  A    between atoms: C_10  and  O_11
REMARK    7  A    between atoms: O_11  and  C_12
REMARK                            x       y       z     vdW  Elec       q    Type
REMARK                         _______ _______ _______ _____ _____    ______ ____
ROOT
ATOM      1  C   UNL     1      47.362   3.833  15.114  0.00  0.00    +0.000 C 
ENDROOT
BRANCH   1   2
ATOM      2  C   UNL     1      46.626   4.259  13.880  0.00  0.00    +0.000 A 
ATOM      3  C   UNL     1      46.562   5.598  13.508  0.00  0.00    +0.000 A 
ATOM      4  C   UNL     1      45.837   5.996  12.365  0.00  0.00    +0.000 A 
ATOM      5  C   UNL     1      45.154   5.049  11.583  0.00  0.00    +0.000 A 
ATOM      6  C   UNL     1      45.210   3.702  11.969  0.00  0.00    +0.000 A 
ATOM      7  C   UNL     1      45.937   3.313  13.103  0.00  0.00    +0.000 A 
BRANCH   5   8
ATOM      8  C   UNL     1      44.354   5.407  10.350  0.00  0.00    +0.000 C 
BRANCH   8   9
ATOM      9  C   UNL     1      44.273   4.317   9.280  0.00  0.00    +0.000 C 
BRANCH   9  10
ATOM     10  O   UNL     1      45.209   4.574   8.234  0.00  0.00    +0.000 OA
BRANCH  10  11
ATOM     11  C   UNL     1      45.889   3.475   7.767  0.00  0.00    +0.000 A 
ATOM     12  C   UNL     1      46.749   3.464   6.663  0.00  0.00    +0.000 A 
ATOM     13  C   UNL     1      47.400   2.289   6.280  0.00  0.00    +0.000 A 
ATOM     14  C   UNL     1      47.185   1.115   6.996  0.00  0.00    +0.000 A 
ATOM     15  C   UNL     1      46.328   1.114   8.094  0.00  0.00    +0.000 A 
ATOM     16  C   UNL     1      45.678   2.293   8.474  0.00  0.00    +0.000 A 
ENDBRANCH  10  11
ENDBRANCH   9  10
ENDBRANCH   8   9
ENDBRANCH   5   8
ENDBRANCH   1   2
BRANCH   1  19
ATOM     17  O   UNL     1      49.561   4.388  16.827  0.00  0.00    +0.000 OA
ATOM     18  C   UNL     1      48.635   5.183  16.737  0.00  0.00    +0.000 C 
ATOM     19  N   UNL     1      47.471   4.925  16.043  0.00  0.00    +0.000 N 
ATOM     20  H   UNL     1      46.842   5.721  15.966  0.00  0.00    +0.000 HD
BRANCH  18  21
ATOM     21  C   UNL     1      48.685   6.563  17.253  0.00  0.00    +0.000 A 
ATOM     22  N   UNL     1      48.220   6.859  18.487  0.00  0.00    +0.000 NA
ATOM     23  N   UNL     1      48.176   8.201  18.497  0.00  0.00    +0.000 N 
ATOM     24  C   UNL     1      48.539   8.781  17.315  0.00  0.00    +0.000 A 
ATOM     25  C   UNL     1      48.449  10.102  16.862  0.00  0.00    +0.000 A 
ATOM     26  C   UNL     1      48.965  10.372  15.592  0.00  0.00    +0.000 A 
ATOM     27  C   UNL     1      49.585   9.376  14.837  0.00  0.00    +0.000 A 
ATOM     28  C   UNL     1      49.620   8.051  15.291  0.00  0.00    +0.000 A 
ATOM     29  C   UNL     1      49.041   7.745  16.537  0.00  0.00    +0.000 A 
ATOM     30  H   UNL     1      47.848   8.665  19.336  0.00  0.00    +0.000 HD
ENDBRANCH  18  21
ENDBRANCH   1  19
TORSDOF 7
ENDMDL
MODEL 8
REMARK VINA RESULT:    -7.301      2.971      8.535
REMARK INTER + INTRA:         -11.621
REMARK INTER:                 -10.293
REMARK INTRA:                  -1.329
REMARK UNBOUND:                -1.332
REMARK  Name = 
REMARK  7 active torsions:
REMARK  status: ('A' for Active; 'I' for Inactive)
REMARK    1  A    between atoms: C_2  and  C_20
REMARK    2  A    between atoms: N_3  and  C_4
REMARK    3  A    between atoms: C_4  and  C_5
REMARK    4  A    between atoms: C_8  and  C_9
REMARK    5  A    between atoms: C_9  and  C_10
REMARK    6  A    between atoms: C_10  and  O_11
REMARK    7  A    between atoms: O_11  and  C_12
REMARK                            x       y       z     vdW  Elec       q    Type
REMARK                         _______ _______ _______ _____ _____    ______ ____
ROOT
ATOM      1  C   UNL     1      44.788   6.960  11.932  0.00  0.00    +0.000 C 
ENDROOT
BRANCH   1   2
ATOM      2  C   UNL     1      46.182   7.500  12.017  0.00  0.00    +0.000 A 
ATOM      3  C   UNL     1      46.416   8.849  12.271  0.00  0.00    +0.000 A 
ATOM      4  C   UNL     1      47.731   9.358  12.313  0.00  0.00    +0.000 A 
ATOM      5  C   UNL     1      48.834   8.517  12.087  0.00  0.00    +0.000 A 
ATOM      6  C   UNL     1      48.594   7.163  11.818  0.00  0.00    +0.000 A 
ATOM      7  C   UNL     1      47.284   6.662  11.782  0.00  0.00    +0.000 A 
BRANCH   5   8
ATOM      8  C   UNL     1      50.268   8.998  12.112  0.00  0.00    +0.000 C 
BRANCH   8   9
ATOM      9  C   UNL     1      51.090   8.553  13.322  0.00  0.00    +0.000 C 
BRANCH   9  10
ATOM     10  O   UNL     1      50.383   8.821  14.532  0.00  0.00    +0.000 OA
BRANCH  10  11
ATOM     11  C   UNL     1      50.143   7.728  15.331  0.00  0.00    +0.000 A 
ATOM     12  C   UNL     1      48.892   7.138  15.542  0.00  0.00    +0.000 A 
ATOM     13  C   UNL     1      48.763   6.020  16.369  0.00  0.00    +0.000 A 
ATOM     14  C   UNL     1      49.888   5.491  16.996  0.00  0.00    +0.000 A 
ATOM     15  C   UNL     1      51.138   6.072  16.795  0.00  0.00    +0.000 A 
ATOM     16  C   UNL     1      51.261   7.193  15.967  0.00  0.00    +0.000 A 
ENDBRANCH  10  11
ENDBRANCH   9  10
ENDBRANCH   8   9
ENDBRANCH   5   8
ENDBRANCH   1   2
BRANCH   1  19
ATOM     17  O   UNL     1      42.528   5.368  11.270  0.00  0.00    +0.000 OA
ATOM     18  C   UNL     1      43.658   4.933  11.099  0.00  0.00    +0.000 C 
ATOM     19  N   UNL     1      44.800   5.581  11.524  0.00  0.00    +0.000 N 
ATOM     20  H   UNL     1      45.668   5.153  11.212  0.00  0.00    +0.000 HD
BRANCH  18  21
ATOM     21  C   UNL     1      43.962   3.724  10.311  0.00  0.00    +0.000 A 
ATOM     22  N   UNL     1      43.525   2.509  10.711  0.00  0.00    +0.000 NA
ATOM     23  N   UNL     1      44.203   1.654   9.930  0.00  0.00    +0.000 N 
ATOM     24  C   UNL     1      45.093   2.255   9.084  0.00  0.00    +0.000 A 
ATOM     25  C   UNL     1      46.099   1.727   8.269  0.00  0.00    +0.000 A 
ATOM     26  C   UNL     1      46.813   2.633   7.478  0.00  0.00    +0.000 A 
ATOM     27  C   UNL     1      46.495   3.992   7.471  0.00  0.00    +0.000 A 
ATOM     28  C   UNL     1      45.515   4.502   8.332  0.00  0.00    +0.000 A 
ATOM     29  C   UNL     1      44.836   3.616   9.189  0.00  0.00    +0.000 A 
ATOM     30  H   UNL     1      44.043   0.661  10.050  0.00  0.00    +0.000 HD
ENDBRANCH  18  21
ENDBRANCH   1  19
TORSDOF 7
ENDMDL
MODEL 9
REMARK VINA RESULT:    -6.986      1.734      2.219
REMARK INTER + INTRA:         -11.176
REMARK INTER:                 -10.092
REMARK INTRA:                  -1.085
REMARK UNBOUND:                -1.332
REMARK  Name = 
REMARK  7 active torsions:
REMARK  status: ('A' for Active; 'I' for Inactive)
REMARK    1  A    between atoms: C_2  and  C_20
REMARK    2  A    between atoms: N_3  and  C_4
REMARK    3  A    between atoms: C_4  and  C_5
REMARK    4  A    between atoms: C_8  and  C_9
REMARK    5  A    between atoms: C_9  and  C_10
REMARK    6  A    between atoms: C_10  and  O_11
REMARK    7  A    between atoms: O_11  and  C_12
REMARK                            x       y       z     vdW  Elec       q    Type
REMARK                         _______ _______ _______ _____ _____    ______ ____
ROOT
ATOM      1  C   UNL     1      48.342   7.751  13.373  0.00  0.00    +0.000 C 
ENDROOT
BRANCH   1   2
ATOM      2  C   UNL     1      47.071   6.983  13.177  0.00  0.00    +0.000 A 
ATOM      3  C   UNL     1      45.962   7.572  12.577  0.00  0.00    +0.000 A 
ATOM      4  C   UNL     1      44.755   6.855  12.429  0.00  0.00    +0.000 A 
ATOM      5  C   UNL     1      44.644   5.534  12.895  0.00  0.00    +0.000 A 
ATOM      6  C   UNL     1      45.759   4.949  13.511  0.00  0.00    +0.000 A 
ATOM      7  C   UNL     1      46.957   5.666  13.651  0.00  0.00    +0.000 A 
BRANCH   5   8
ATOM      8  C   UNL     1      43.381   4.711  12.775  0.00  0.00    +0.000 C 
BRANCH   8   9
ATOM      9  C   UNL     1      43.091   4.151  11.381  0.00  0.00    +0.000 C 
BRANCH   9  10
ATOM     10  O   UNL     1      43.932   3.030  11.109  0.00  0.00    +0.000 OA
BRANCH  10  11
ATOM     11  C   UNL     1      44.690   3.124   9.966  0.00  0.00    +0.000 A 
ATOM     12  C   UNL     1      45.124   2.042   9.191  0.00  0.00    +0.000 A 
ATOM     13  C   UNL     1      45.884   2.253   8.039  0.00  0.00    +0.000 A 
ATOM     14  C   UNL     1      46.221   3.549   7.659  0.00  0.00    +0.000 A 
ATOM     15  C   UNL     1      45.796   4.633   8.425  0.00  0.00    +0.000 A 
ATOM     16  C   UNL     1      45.036   4.417   9.580  0.00  0.00    +0.000 A 
ENDBRANCH  10  11
ENDBRANCH   9  10
ENDBRANCH   8   9
ENDBRANCH   5   8
ENDBRANCH   1   2
BRANCH   1  19
ATOM     17  O   UNL     1      48.275   8.731  16.040  0.00  0.00    +0.000 OA
ATOM     18  C   UNL     1      48.880   7.701  15.778  0.00  0.00    +0.000 C 
ATOM     19  N   UNL     1      49.080   7.237  14.494  0.00  0.00    +0.000 N 
ATOM     20  H   UNL     1      49.503   6.313  14.441  0.00  0.00    +0.000 HD
BRANCH  18  21
ATOM     21  C   UNL     1      49.370   6.755  16.798  0.00  0.00    +0.000 A 
ATOM     22  N   UNL     1      50.236   5.771  16.470  0.00  0.00    +0.000 NA
ATOM     23  N   UNL     1      50.237   4.974  17.551  0.00  0.00    +0.000 N 
ATOM     24  C   UNL     1      49.375   5.369  18.536  0.00  0.00    +0.000 A 
ATOM     25  C   UNL     1      48.947   4.731  19.705  0.00  0.00    +0.000 A 
ATOM     26  C   UNL     1      48.079   5.446  20.535  0.00  0.00    +0.000 A 
ATOM     27  C   UNL     1      47.701   6.754  20.229  0.00  0.00    +0.000 A 
ATOM     28  C   UNL     1      48.105   7.354  19.029  0.00  0.00    +0.000 A 
ATOM     29  C   UNL     1      48.921   6.623  18.146  0.00  0.00    +0.000 A 
ATOM     30  H   UNL     1      50.822   4.147  17.539  0.00  0.00    +0.000 HD
ENDBRANCH  18  21
ENDBRANCH   1  19
TORSDOF 7
ENDMDL
