MODEL 1
REMARK VINA RESULT:    -8.395      0.000      0.000
REMARK INTER + INTRA:         -12.311
REMARK INTER:                 -11.340
REMARK INTRA:                  -0.971
REMARK UNBOUND:                -0.971
REMARK  Name = 
REMARK  6 active torsions:
REMARK  status: ('A' for Active; 'I' for Inactive)
REMARK    1  A    between atoms: C_2  and  C_4
REMARK    2  A    between atoms: C_7  and  C_8
REMARK    3  A    between atoms: C_8  and  C_9
REMARK    4  A    between atoms: C_9  and  O_10
REMARK    5  A    between atoms: O_10  and  C_11
REMARK    6  A    between atoms: C_15  and  C_16
REMARK                            x       y       z     vdW  Elec       q    Type
REMARK                         _______ _______ _______ _____ _____    ______ ____
ROOT
ATOM      1  C   UNL     1      43.231   4.009  11.378  0.00  0.00    +0.000 C 
ENDROOT
BRANCH   1   2
ATOM      2  C   UNL     1      43.609   4.693  10.070  0.00  0.00    +0.000 C 
BRANCH   2   6
ATOM      3  C   UNL     1      46.384   2.453   7.747  0.00  0.00    +0.000 A 
ATOM      4  C   UNL     1      45.600   1.781   8.683  0.00  0.00    +0.000 A 
ATOM      5  C   UNL     1      44.687   2.504   9.449  0.00  0.00    +0.000 A 
ATOM      6  C   UNL     1      44.579   3.880   9.256  0.00  0.00    +0.000 A 
ATOM      7  N   UNL     1      45.340   4.551   8.356  0.00  0.00    +0.000 NA
ATOM      8  C   UNL     1      46.232   3.827   7.632  0.00  0.00    +0.000 A 
BRANCH   3  10
ATOM      9  N   UNL     1      48.446   2.504   6.469  0.00  0.00    +0.000 N 
ATOM     10  C   UNL     1      47.381   1.763   6.904  0.00  0.00    +0.000 C 
ATOM     11  O   UNL     1      47.278   0.575   6.629  0.00  0.00    +0.000 OA
ATOM     12  H   UNL     1      49.171   2.003   5.970  0.00  0.00    +0.000 HD
ATOM     13  H   UNL     1      48.686   3.399   6.871  0.00  0.00    +0.000 HD
ENDBRANCH   3  10
ENDBRANCH   2   6
ENDBRANCH   1   2
BRANCH   1  14
ATOM     14  O   UNL     1      43.426   4.890  12.485  0.00  0.00    +0.000 OA
BRANCH  14  15
ATOM     15  C   UNL     1      44.733   5.127  12.828  0.00  0.00    +0.000 A 
ATOM     16  C   UNL     1      45.623   4.183  13.341  0.00  0.00    +0.000 A 
ATOM     17  C   UNL     1      46.945   4.536  13.599  0.00  0.00    +0.000 A 
ATOM     18  C   UNL     1      47.387   5.826  13.318  0.00  0.00    +0.000 A 
ATOM     19  C   UNL     1      46.525   6.789  12.765  0.00  0.00    +0.000 A 
ATOM     20  C   UNL     1      45.180   6.424  12.573  0.00  0.00    +0.000 A 
BRANCH  19  21
ATOM     21  C   UNL     1      47.036   8.086  12.276  0.00  0.00    +0.000 A 
ATOM     22  C   UNL     1      46.169   9.193  12.170  0.00  0.00    +0.000 A 
ATOM     23  C   UNL     1      46.637  10.456  11.837  0.00  0.00    +0.000 A 
ATOM     24  C   UNL     1      47.993  10.658  11.607  0.00  0.00    +0.000 A 
ATOM     25  C   UNL     1      48.871   9.580  11.687  0.00  0.00    +0.000 A 
ATOM     26  C   UNL     1      48.401   8.308  12.007  0.00  0.00    +0.000 A 
ENDBRANCH  19  21
ENDBRANCH  14  15
ENDBRANCH   1  14
TORSDOF 6
ENDMDL
MODEL 2
REMARK VINA RESULT:    -8.153      1.976      3.872
REMARK INTER + INTRA:         -11.984
REMARK INTER:                 -10.894
REMARK INTRA:                  -1.090
REMARK UNBOUND:                -0.971
REMARK  Name = 
REMARK  6 active torsions:
REMARK  status: ('A' for Active; 'I' for Inactive)
REMARK    1  A    between atoms: C_2  and  C_4
REMARK    2  A    between atoms: C_7  and  C_8
REMARK    3  A    between atoms: C_8  and  C_9
REMARK    4  A    between atoms: C_9  and  O_10
REMARK    5  A    between atoms: O_10  and  C_11
REMARK    6  A    between atoms: C_15  and  C_16
REMARK                            x       y       z     vdW  Elec       q    Type
REMARK                         _______ _______ _______ _____ _____    ______ ____
ROOT
ATOM      1  C   UNL     1      43.429   4.960  11.046  0.00  0.00    +0.000 C 
ENDROOT
BRANCH   1   2
ATOM      2  C   UNL     1      43.650   3.476  10.774  0.00  0.00    +0.000 C 
BRANCH   2   6
ATOM      3  C   UNL     1      46.398   2.732   7.611  0.00  0.00    +0.000 A 
ATOM      4  C   UNL     1      46.024   4.048   7.875  0.00  0.00    +0.000 A 
ATOM      5  C   UNL     1      45.125   4.304   8.909  0.00  0.00    +0.000 A 
ATOM      6  C   UNL     1      44.627   3.237   9.655  0.00  0.00    +0.000 A 
ATOM      7  N   UNL     1      44.974   1.950   9.407  0.00  0.00    +0.000 NA
ATOM      8  C   UNL     1      45.840   1.725   8.385  0.00  0.00    +0.000 A 
BRANCH   3  10
ATOM      9  N   UNL     1      47.298   3.140   5.395  0.00  0.00    +0.000 N 
ATOM     10  C   UNL     1      47.337   2.374   6.528  0.00  0.00    +0.000 C 
ATOM     11  O   UNL     1      48.135   1.455   6.648  0.00  0.00    +0.000 OA
ATOM     12  H   UNL     1      48.005   2.949   4.696  0.00  0.00    +0.000 HD
ATOM     13  H   UNL     1      46.836   4.038   5.360  0.00  0.00    +0.000 HD
ENDBRANCH   3  10
ENDBRANCH   2   6
ENDBRANCH   1   2
BRANCH   1  14
ATOM     14  O   UNL     1      43.835   5.297  12.373  0.00  0.00    +0.000 OA
BRANCH  14  15
ATOM     15  C   UNL     1      45.166   5.589  12.526  0.00  0.00    +0.000 A 
ATOM     16  C   UNL     1      45.909   6.448  11.716  0.00  0.00    +0.000 A 
ATOM     17  C   UNL     1      47.246   6.705  12.009  0.00  0.00    +0.000 A 
ATOM     18  C   UNL     1      47.836   6.125  13.129  0.00  0.00    +0.000 A 
ATOM     19  C   UNL     1      47.103   5.285  13.987  0.00  0.00    +0.000 A 
ATOM     20  C   UNL     1      45.774   4.994  13.632  0.00  0.00    +0.000 A 
BRANCH  19  21
ATOM     21  C   UNL     1      47.660   4.837  15.280  0.00  0.00    +0.000 A 
ATOM     22  C   UNL     1      48.484   5.698  16.031  0.00  0.00    +0.000 A 
ATOM     23  C   UNL     1      48.921   5.362  17.305  0.00  0.00    +0.000 A 
ATOM     24  C   UNL     1      48.540   4.153  17.875  0.00  0.00    +0.000 A 
ATOM     25  C   UNL     1      47.742   3.273  17.149  0.00  0.00    +0.000 A 
ATOM     26  C   UNL     1      47.314   3.603  15.864  0.00  0.00    +0.000 A 
ENDBRANCH  19  21
ENDBRANCH  14  15
ENDBRANCH   1  14
TORSDOF 6
ENDMDL
MODEL 3
REMARK VINA RESULT:    -7.841      4.332      8.225
REMARK INTER + INTRA:         -11.562
REMARK INTER:                 -10.790
REMARK INTRA:                  -0.772
REMARK UNBOUND:                -0.971
REMARK  Name = 
REMARK  6 active torsions:
REMARK  status: ('A' for Active; 'I' for Inactive)
REMARK    1  A    between atoms: C_2  and  C_4
REMARK    2  A    between atoms: C_7  and  C_8
REMARK    3  A    between atoms: C_8  and  C_9
REMARK    4  A    between atoms: C_9  and  O_10
REMARK    5  A    between atoms: O_10  and  C_11
REMARK    6  A    between atoms: C_15  and  C_16
REMARK                            x       y       z     vdW  Elec       q    Type
REMARK                         _______ _______ _______ _____ _____    ______ ____
ROOT
ATOM      1  C   UNL     1      46.743   3.624  13.408  0.00  0.00    +0.000 C 
ENDROOT
BRANCH   1   2
ATOM      2  C   UNL     1      46.969   4.948  14.131  0.00  0.00    +0.000 C 
BRANCH   2   6
ATOM      3  C   UNL     1      48.617   4.475  18.027  0.00  0.00    +0.000 A 
ATOM      4  C   UNL     1      47.590   3.622  17.628  0.00  0.00    +0.000 A 
ATOM      5  C   UNL     1      47.042   3.766  16.354  0.00  0.00    +0.000 A 
ATOM      6  C   UNL     1      47.541   4.758  15.510  0.00  0.00    +0.000 A 
ATOM      7  N   UNL     1      48.533   5.602  15.885  0.00  0.00    +0.000 NA
ATOM      8  C   UNL     1      49.040   5.450  17.136  0.00  0.00    +0.000 A 
BRANCH   3  10
ATOM      9  N   UNL     1      48.535   3.756  20.343  0.00  0.00    +0.000 N 
ATOM     10  C   UNL     1      49.244   4.394  19.361  0.00  0.00    +0.000 C 
ATOM     11  O   UNL     1      50.359   4.850  19.576  0.00  0.00    +0.000 OA
ATOM     12  H   UNL     1      49.008   3.623  21.228  0.00  0.00    +0.000 HD
ATOM     13  H   UNL     1      47.740   3.165  20.143  0.00  0.00    +0.000 HD
ENDBRANCH   3  10
ENDBRANCH   2   6
ENDBRANCH   1   2
BRANCH   1  14
ATOM     14  O   UNL     1      45.348   3.360  13.261  0.00  0.00    +0.000 OA
BRANCH  14  15
ATOM     15  C   UNL     1      44.799   3.733  12.061  0.00  0.00    +0.000 A 
ATOM     16  C   UNL     1      43.857   4.745  11.877  0.00  0.00    +0.000 A 
ATOM     17  C   UNL     1      43.417   5.068  10.597  0.00  0.00    +0.000 A 
ATOM     18  C   UNL     1      43.938   4.396   9.493  0.00  0.00    +0.000 A 
ATOM     19  C   UNL     1      44.917   3.398   9.642  0.00  0.00    +0.000 A 
ATOM     20  C   UNL     1      45.298   3.051  10.951  0.00  0.00    +0.000 A 
BRANCH  19  21
ATOM     21  C   UNL     1      45.620   2.832   8.472  0.00  0.00    +0.000 A 
ATOM     22  C   UNL     1      45.983   3.666   7.395  0.00  0.00    +0.000 A 
ATOM     23  C   UNL     1      46.754   3.198   6.339  0.00  0.00    +0.000 A 
ATOM     24  C   UNL     1      47.194   1.879   6.330  0.00  0.00    +0.000 A 
ATOM     25  C   UNL     1      46.835   1.028   7.370  0.00  0.00    +0.000 A 
ATOM     26  C   UNL     1      46.049   1.492   8.424  0.00  0.00    +0.000 A 
ENDBRANCH  19  21
ENDBRANCH  14  15
ENDBRANCH   1  14
TORSDOF 6
ENDMDL
MODEL 4
REMARK VINA RESULT:    -7.816      3.144      7.131
REMARK INTER + INTRA:         -11.528
REMARK INTER:                 -10.660
REMARK INTRA:                  -0.868
REMARK UNBOUND:                -0.971
REMARK  Name = 
REMARK  6 active torsions:
REMARK  status: ('A' for Active; 'I' for Inactive)
REMARK    1  A    between atoms: C_2  and  C_4
REMARK    2  A    between atoms: C_7  and  C_8
REMARK    3  A    between atoms: C_8  and  C_9
REMARK    4  A    between atoms: C_9  and  O_10
REMARK    5  A    between atoms: O_10  and  C_11
REMARK    6  A    between atoms: C_15  and  C_16
REMARK                            x       y       z     vdW  Elec       q    Type
REMARK                         _______ _______ _______ _____ _____    ______ ____
ROOT
ATOM      1  C   UNL     1      44.798   7.014  12.153  0.00  0.00    +0.000 C 
ENDROOT
BRANCH   1   2
ATOM      2  C   UNL     1      46.302   6.764  12.125  0.00  0.00    +0.000 C 
BRANCH   2   6
ATOM      3  C   UNL     1      47.634   4.639  15.563  0.00  0.00    +0.000 A 
ATOM      4  C   UNL     1      48.265   5.836  15.232  0.00  0.00    +0.000 A 
ATOM      5  C   UNL     1      47.837   6.542  14.108  0.00  0.00    +0.000 A 
ATOM      6  C   UNL     1      46.785   6.033  13.348  0.00  0.00    +0.000 A 
ATOM      7  N   UNL     1      46.166   4.866  13.651  0.00  0.00    +0.000 NA
ATOM      8  C   UNL     1      46.611   4.190  14.742  0.00  0.00    +0.000 A 
BRANCH   3  10
ATOM      9  N   UNL     1      47.035   3.176  17.404  0.00  0.00    +0.000 N 
ATOM     10  C   UNL     1      48.033   3.827  16.730  0.00  0.00    +0.000 C 
ATOM     11  O   UNL     1      49.205   3.715  17.065  0.00  0.00    +0.000 OA
ATOM     12  H   UNL     1      47.325   2.549  18.144  0.00  0.00    +0.000 HD
ATOM     13  H   UNL     1      46.111   3.049  17.017  0.00  0.00    +0.000 HD
ENDBRANCH   3  10
ENDBRANCH   2   6
ENDBRANCH   1   2
BRANCH   1  14
ATOM     14  O   UNL     1      44.180   6.520  10.964  0.00  0.00    +0.000 OA
BRANCH  14  15
ATOM     15  C   UNL     1      44.144   5.155  10.840  0.00  0.00    +0.000 A 
ATOM     16  C   UNL     1      43.320   4.295  11.565  0.00  0.00    +0.000 A 
ATOM     17  C   UNL     1      43.337   2.926  11.309  0.00  0.00    +0.000 A 
ATOM     18  C   UNL     1      44.160   2.418  10.306  0.00  0.00    +0.000 A 
ATOM     19  C   UNL     1      44.974   3.264   9.532  0.00  0.00    +0.000 A 
ATOM     20  C   UNL     1      44.982   4.633   9.855  0.00  0.00    +0.000 A 
BRANCH  19  21
ATOM     21  C   UNL     1      45.687   2.761   8.340  0.00  0.00    +0.000 A 
ATOM     22  C   UNL     1      45.955   3.626   7.260  0.00  0.00    +0.000 A 
ATOM     23  C   UNL     1      46.732   3.226   6.180  0.00  0.00    +0.000 A 
ATOM     24  C   UNL     1      47.274   1.946   6.150  0.00  0.00    +0.000 A 
ATOM     25  C   UNL     1      47.010   1.063   7.193  0.00  0.00    +0.000 A 
ATOM     26  C   UNL     1      46.220   1.458   8.271  0.00  0.00    +0.000 A 
ENDBRANCH  19  21
ENDBRANCH  14  15
ENDBRANCH   1  14
TORSDOF 6
ENDMDL
MODEL 5
REMARK VINA RESULT:    -7.450      3.176      6.701
REMARK INTER + INTRA:         -11.033
REMARK INTER:                  -9.870
REMARK INTRA:                  -1.163
REMARK UNBOUND:                -0.971
REMARK  Name = 
REMARK  6 active torsions:
REMARK  status: ('A' for Active; 'I' for Inactive)
REMARK    1  A    between atoms: C_2  and  C_4
REMARK    2  A    between atoms: C_7  and  C_8
REMARK    3  A    between atoms: C_8  and  C_9
REMARK    4  A    between atoms: C_9  and  O_10
REMARK    5  A    between atoms: O_10  and  C_11
REMARK    6  A    between atoms: C_15  and  C_16
REMARK                            x       y       z     vdW  Elec       q    Type
REMARK                         _______ _______ _______ _____ _____    ______ ____
ROOT
ATOM      1  C   UNL     1      46.742   4.140  13.866  0.00  0.00    +0.000 C 
ENDROOT
BRANCH   1   2
ATOM      2  C   UNL     1      47.453   5.229  14.661  0.00  0.00    +0.000 C 
BRANCH   2   6
ATOM      3  C   UNL     1      49.220   8.211  12.192  0.00  0.00    +0.000 A 
ATOM      4  C   UNL     1      48.018   7.635  11.787  0.00  0.00    +0.000 A 
ATOM      5  C   UNL     1      47.429   6.658  12.588  0.00  0.00    +0.000 A 
ATOM      6  C   UNL     1      48.057   6.285  13.775  0.00  0.00    +0.000 A 
ATOM      7  N   UNL     1      49.231   6.829  14.180  0.00  0.00    +0.000 NA
ATOM      8  C   UNL     1      49.792   7.768  13.376  0.00  0.00    +0.000 A 
BRANCH   3  10
ATOM      9  N   UNL     1      51.214   8.995  11.053  0.00  0.00    +0.000 N 
ATOM     10  C   UNL     1      49.914   9.245  11.397  0.00  0.00    +0.000 C 
ATOM     11  O   UNL     1      49.345  10.266  11.035  0.00  0.00    +0.000 OA
ATOM     12  H   UNL     1      51.653   9.663  10.432  0.00  0.00    +0.000 HD
ATOM     13  H   UNL     1      51.629   8.076  11.120  0.00  0.00    +0.000 HD
ENDBRANCH   3  10
ENDBRANCH   2   6
ENDBRANCH   1   2
BRANCH   1  14
ATOM     14  O   UNL     1      45.327   4.227  14.041  0.00  0.00    +0.000 OA
BRANCH  14  15
ATOM     15  C   UNL     1      44.600   4.403  12.892  0.00  0.00    +0.000 A 
ATOM     16  C   UNL     1      43.467   5.206  12.761  0.00  0.00    +0.000 A 
ATOM     17  C   UNL     1      42.846   5.345  11.522  0.00  0.00    +0.000 A 
ATOM     18  C   UNL     1      43.374   4.702  10.405  0.00  0.00    +0.000 A 
ATOM     19  C   UNL     1      44.537   3.917  10.496  0.00  0.00    +0.000 A 
ATOM     20  C   UNL     1      45.106   3.744  11.771  0.00  0.00    +0.000 A 
BRANCH  19  21
ATOM     21  C   UNL     1      45.214   3.406   9.287  0.00  0.00    +0.000 A 
ATOM     22  C   UNL     1      45.779   4.306   8.360  0.00  0.00    +0.000 A 
ATOM     23  C   UNL     1      46.532   3.864   7.281  0.00  0.00    +0.000 A 
ATOM     24  C   UNL     1      46.752   2.503   7.097  0.00  0.00    +0.000 A 
ATOM     25  C   UNL     1      46.191   1.590   7.985  0.00  0.00    +0.000 A 
ATOM     26  C   UNL     1      45.423   2.031   9.061  0.00  0.00    +0.000 A 
ENDBRANCH  19  21
ENDBRANCH  14  15
ENDBRANCH   1  14
TORSDOF 6
ENDMDL
MODEL 6
REMARK VINA RESULT:    -7.270      3.041      6.868
REMARK INTER + INTRA:         -10.790
REMARK INTER:                  -9.976
REMARK INTRA:                  -0.815
REMARK UNBOUND:                -0.971
REMARK  Name = 
REMARK  6 active torsions:
REMARK  status: ('A' for Active; 'I' for Inactive)
REMARK    1  A    between atoms: C_2  and  C_4
REMARK    2  A    between atoms: C_7  and  C_8
REMARK    3  A    between atoms: C_8  and  C_9
REMARK    4  A    between atoms: C_9  and  O_10
REMARK    5  A    between atoms: O_10  and  C_11
REMARK    6  A    between atoms: C_15  and  C_16
REMARK                            x       y       z     vdW  Elec       q    Type
REMARK                         _______ _______ _______ _____ _____    ______ ____
ROOT
ATOM      1  C   UNL     1      44.941   7.187  12.491  0.00  0.00    +0.000 C 
ENDROOT
BRANCH   1   2
ATOM      2  C   UNL     1      45.680   8.516  12.597  0.00  0.00    +0.000 C 
BRANCH   2   6
ATOM      3  C   UNL     1      49.850   8.197  11.807  0.00  0.00    +0.000 A 
ATOM      4  C   UNL     1      49.173   7.078  12.289  0.00  0.00    +0.000 A 
ATOM      5  C   UNL     1      47.807   7.170  12.550  0.00  0.00    +0.000 A 
ATOM      6  C   UNL     1      47.152   8.379  12.319  0.00  0.00    +0.000 A 
ATOM      7  N   UNL     1      47.796   9.480  11.859  0.00  0.00    +0.000 NA
ATOM      8  C   UNL     1      49.129   9.369  11.625  0.00  0.00    +0.000 A 
BRANCH   3  10
ATOM      9  N   UNL     1      51.789   7.092  10.855  0.00  0.00    +0.000 N 
ATOM     10  C   UNL     1      51.297   8.186  11.514  0.00  0.00    +0.000 C 
ATOM     11  O   UNL     1      52.022   9.124  11.818  0.00  0.00    +0.000 OA
ATOM     12  H   UNL     1      52.761   7.132  10.576  0.00  0.00    +0.000 HD
ATOM     13  H   UNL     1      51.192   6.429  10.381  0.00  0.00    +0.000 HD
ENDBRANCH   3  10
ENDBRANCH   2   6
ENDBRANCH   1   2
BRANCH   1  14
ATOM     14  O   UNL     1      44.865   6.756  11.132  0.00  0.00    +0.000 OA
BRANCH  14  15
ATOM     15  C   UNL     1      44.572   5.429  10.949  0.00  0.00    +0.000 A 
ATOM     16  C   UNL     1      43.573   4.718  11.614  0.00  0.00    +0.000 A 
ATOM     17  C   UNL     1      43.336   3.383  11.299  0.00  0.00    +0.000 A 
ATOM     18  C   UNL     1      44.080   2.763  10.298  0.00  0.00    +0.000 A 
ATOM     19  C   UNL     1      45.068   3.463   9.583  0.00  0.00    +0.000 A 
ATOM     20  C   UNL     1      45.328   4.792   9.965  0.00  0.00    +0.000 A 
BRANCH  19  21
ATOM     21  C   UNL     1      45.711   2.876   8.389  0.00  0.00    +0.000 A 
ATOM     22  C   UNL     1      46.004   3.687   7.274  0.00  0.00    +0.000 A 
ATOM     23  C   UNL     1      46.721   3.203   6.188  0.00  0.00    +0.000 A 
ATOM     24  C   UNL     1      47.177   1.889   6.186  0.00  0.00    +0.000 A 
ATOM     25  C   UNL     1      46.887   1.059   7.265  0.00  0.00    +0.000 A 
ATOM     26  C   UNL     1      46.155   1.540   8.350  0.00  0.00    +0.000 A 
ENDBRANCH  19  21
ENDBRANCH  14  15
ENDBRANCH   1  14
TORSDOF 6
ENDMDL
MODEL 7
REMARK VINA RESULT:    -6.995      3.856      7.566
REMARK INTER + INTRA:         -10.419
REMARK INTER:                  -9.349
REMARK INTRA:                  -1.070
REMARK UNBOUND:                -0.971
REMARK  Name = 
REMARK  6 active torsions:
REMARK  status: ('A' for Active; 'I' for Inactive)
REMARK    1  A    between atoms: C_2  and  C_4
REMARK    2  A    between atoms: C_7  and  C_8
REMARK    3  A    between atoms: C_8  and  C_9
REMARK    4  A    between atoms: C_9  and  O_10
REMARK    5  A    between atoms: O_10  and  C_11
REMARK    6  A    between atoms: C_15  and  C_16
REMARK                            x       y       z     vdW  Elec       q    Type
REMARK                         _______ _______ _______ _____ _____    ______ ____
ROOT
ATOM      1  C   UNL     1      49.464   7.225  12.923  0.00  0.00    +0.000 C 
ENDROOT
BRANCH   1   2
ATOM      2  C   UNL     1      49.337   7.711  14.363  0.00  0.00    +0.000 C 
BRANCH   2   6
ATOM      3  C   UNL     1      48.063   4.589  16.960  0.00  0.00    +0.000 A 
ATOM      4  C   UNL     1      48.961   5.538  17.446  0.00  0.00    +0.000 A 
ATOM      5  C   UNL     1      49.384   6.566  16.605  0.00  0.00    +0.000 A 
ATOM      6  C   UNL     1      48.896   6.620  15.300  0.00  0.00    +0.000 A 
ATOM      7  N   UNL     1      48.029   5.701  14.808  0.00  0.00    +0.000 NA
ATOM      8  C   UNL     1      47.642   4.701  15.643  0.00  0.00    +0.000 A 
BRANCH   3  10
ATOM      9  N   UNL     1      48.266   3.186  18.929  0.00  0.00    +0.000 N 
ATOM     10  C   UNL     1      47.573   3.465  17.782  0.00  0.00    +0.000 C 
ATOM     11  O   UNL     1      46.575   2.829  17.471  0.00  0.00    +0.000 OA
ATOM     12  H   UNL     1      47.871   2.477  19.534  0.00  0.00    +0.000 HD
ATOM     13  H   UNL     1      48.929   3.831  19.335  0.00  0.00    +0.000 HD
ENDBRANCH   3  10
ENDBRANCH   2   6
ENDBRANCH   1   2
BRANCH   1  14
ATOM     14  O   UNL     1      48.768   8.096  12.031  0.00  0.00    +0.000 OA
BRANCH  14  15
ATOM     15  C   UNL     1      47.412   7.905  11.959  0.00  0.00    +0.000 A 
ATOM     16  C   UNL     1      46.439   8.842  12.309  0.00  0.00    +0.000 A 
ATOM     17  C   UNL     1      45.089   8.547  12.138  0.00  0.00    +0.000 A 
ATOM     18  C   UNL     1      44.709   7.323  11.590  0.00  0.00    +0.000 A 
ATOM     19  C   UNL     1      45.667   6.373  11.192  0.00  0.00    +0.000 A 
ATOM     20  C   UNL     1      47.020   6.673  11.434  0.00  0.00    +0.000 A 
BRANCH  19  21
ATOM     21  C   UNL     1      45.281   5.171  10.426  0.00  0.00    +0.000 A 
ATOM     22  C   UNL     1      45.664   5.040   9.076  0.00  0.00    +0.000 A 
ATOM     23  C   UNL     1      45.431   3.873   8.361  0.00  0.00    +0.000 A 
ATOM     24  C   UNL     1      44.813   2.791   8.979  0.00  0.00    +0.000 A 
ATOM     25  C   UNL     1      44.407   2.897  10.306  0.00  0.00    +0.000 A 
ATOM     26  C   UNL     1      44.627   4.074  11.020  0.00  0.00    +0.000 A 
ENDBRANCH  19  21
ENDBRANCH  14  15
ENDBRANCH   1  14
TORSDOF 6
ENDMDL
MODEL 8
REMARK VINA RESULT:    -6.791      5.204      7.978
REMARK INTER + INTRA:         -10.144
REMARK INTER:                  -9.357
REMARK INTRA:                  -0.787
REMARK UNBOUND:                -0.971
REMARK  Name = 
REMARK  6 active torsions:
REMARK  status: ('A' for Active; 'I' for Inactive)
REMARK    1  A    between atoms: C_2  and  C_4
REMARK    2  A    between atoms: C_7  and  C_8
REMARK    3  A    between atoms: C_8  and  C_9
REMARK    4  A    between atoms: C_9  and  O_10
REMARK    5  A    between atoms: O_10  and  C_11
REMARK    6  A    between atoms: C_15  and  C_16
REMARK                            x       y       z     vdW  Elec       q    Type
REMARK                         _______ _______ _______ _____ _____    ______ ____
ROOT
ATOM      1  C   UNL     1      49.025   6.813  15.563  0.00  0.00    +0.000 C 
ENDROOT
BRANCH   1   2
ATOM      2  C   UNL     1      48.638   6.037  16.817  0.00  0.00    +0.000 C 
BRANCH   2   6
ATOM      3  C   UNL     1      51.136   2.649  17.447  0.00  0.00    +0.000 A 
ATOM      4  C   UNL     1      49.772   2.445  17.241  0.00  0.00    +0.000 A 
ATOM      5  C   UNL     1      48.944   3.547  17.033  0.00  0.00    +0.000 A 
ATOM      6  C   UNL     1      49.503   4.824  17.031  0.00  0.00    +0.000 A 
ATOM      7  N   UNL     1      50.825   5.042  17.238  0.00  0.00    +0.000 NA
ATOM      8  C   UNL     1      51.608   3.953  17.453  0.00  0.00    +0.000 A 
BRANCH   3  10
ATOM      9  N   UNL     1      51.543   0.343  18.082  0.00  0.00    +0.000 N 
ATOM     10  C   UNL     1      52.079   1.537  17.684  0.00  0.00    +0.000 C 
ATOM     11  O   UNL     1      53.282   1.666  17.504  0.00  0.00    +0.000 OA
ATOM     12  H   UNL     1      52.183  -0.438  18.152  0.00  0.00    +0.000 HD
ATOM     13  H   UNL     1      50.557   0.134  18.002  0.00  0.00    +0.000 HD
ENDBRANCH   3  10
ENDBRANCH   2   6
ENDBRANCH   1   2
BRANCH   1  14
ATOM     14  O   UNL     1      48.675   6.081  14.387  0.00  0.00    +0.000 OA
BRANCH  14  15
ATOM     15  C   UNL     1      47.617   6.583  13.673  0.00  0.00    +0.000 A 
ATOM     16  C   UNL     1      47.226   7.921  13.630  0.00  0.00    +0.000 A 
ATOM     17  C   UNL     1      46.163   8.315  12.821  0.00  0.00    +0.000 A 
ATOM     18  C   UNL     1      45.506   7.374  12.031  0.00  0.00    +0.000 A 
ATOM     19  C   UNL     1      45.901   6.025  12.023  0.00  0.00    +0.000 A 
ATOM     20  C   UNL     1      46.937   5.645  12.896  0.00  0.00    +0.000 A 
BRANCH  19  21
ATOM     21  C   UNL     1      45.348   5.070  11.040  0.00  0.00    +0.000 A 
ATOM     22  C   UNL     1      45.594   5.251   9.664  0.00  0.00    +0.000 A 
ATOM     23  C   UNL     1      45.201   4.310   8.723  0.00  0.00    +0.000 A 
ATOM     24  C   UNL     1      44.554   3.148   9.130  0.00  0.00    +0.000 A 
ATOM     25  C   UNL     1      44.281   2.950  10.480  0.00  0.00    +0.000 A 
ATOM     26  C   UNL     1      44.663   3.902  11.425  0.00  0.00    +0.000 A 
ENDBRANCH  19  21
ENDBRANCH  14  15
ENDBRANCH   1  14
TORSDOF 6
ENDMDL
MODEL 9
REMARK VINA RESULT:    -6.537      4.718      7.329
REMARK INTER + INTRA:          -9.800
REMARK INTER:                  -8.749
REMARK INTRA:                  -1.051
REMARK UNBOUND:                -0.971
REMARK  Name = 
REMARK  6 active torsions:
REMARK  status: ('A' for Active; 'I' for Inactive)
REMARK    1  A    between atoms: C_2  and  C_4
REMARK    2  A    between atoms: C_7  and  C_8
REMARK    3  A    between atoms: C_8  and  C_9
REMARK    4  A    between atoms: C_9  and  O_10
REMARK    5  A    between atoms: O_10  and  C_11
REMARK    6  A    between atoms: C_15  and  C_16
REMARK                            x       y       z     vdW  Elec       q    Type
REMARK                         _______ _______ _______ _____ _____    ______ ____
ROOT
ATOM      1  C   UNL     1      48.813   6.616  14.664  0.00  0.00    +0.000 C 
ENDROOT
BRANCH   1   2
ATOM      2  C   UNL     1      47.682   7.261  13.870  0.00  0.00    +0.000 C 
BRANCH   2   6
ATOM      3  C   UNL     1      44.802   4.463  12.459  0.00  0.00    +0.000 A 
ATOM      4  C   UNL     1      46.036   3.988  12.898  0.00  0.00    +0.000 A 
ATOM      5  C   UNL     1      46.987   4.894  13.363  0.00  0.00    +0.000 A 
ATOM      6  C   UNL     1      46.677   6.253  13.381  0.00  0.00    +0.000 A 
ATOM      7  N   UNL     1      45.485   6.735  12.950  0.00  0.00    +0.000 NA
ATOM      8  C   UNL     1      44.581   5.833  12.488  0.00  0.00    +0.000 A 
BRANCH   3  10
ATOM      9  N   UNL     1      43.653   2.327  12.504  0.00  0.00    +0.000 N 
ATOM     10  C   UNL     1      43.744   3.572  11.943  0.00  0.00    +0.000 C 
ATOM     11  O   UNL     1      42.963   3.936  11.074  0.00  0.00    +0.000 OA
ATOM     12  H   UNL     1      42.869   1.756  12.212  0.00  0.00    +0.000 HD
ATOM     13  H   UNL     1      44.109   2.087  13.373  0.00  0.00    +0.000 HD
ENDBRANCH   3  10
ENDBRANCH   2   6
ENDBRANCH   1   2
BRANCH   1  14
ATOM     14  O   UNL     1      48.517   6.622  16.061  0.00  0.00    +0.000 OA
BRANCH  14  15
ATOM     15  C   UNL     1      48.444   5.388  16.654  0.00  0.00    +0.000 A 
ATOM     16  C   UNL     1      47.277   4.648  16.849  0.00  0.00    +0.000 A 
ATOM     17  C   UNL     1      47.340   3.378  17.416  0.00  0.00    +0.000 A 
ATOM     18  C   UNL     1      48.574   2.833  17.765  0.00  0.00    +0.000 A 
ATOM     19  C   UNL     1      49.771   3.538  17.545  0.00  0.00    +0.000 A 
ATOM     20  C   UNL     1      49.672   4.843  17.029  0.00  0.00    +0.000 A 
BRANCH  19  21
ATOM     21  C   UNL     1      51.086   2.888  17.719  0.00  0.00    +0.000 A 
ATOM     22  C   UNL     1      51.244   1.521  17.417  0.00  0.00    +0.000 A 
ATOM     23  C   UNL     1      52.488   0.906  17.446  0.00  0.00    +0.000 A 
ATOM     24  C   UNL     1      53.621   1.644  17.771  0.00  0.00    +0.000 A 
ATOM     25  C   UNL     1      53.494   2.993  18.092  0.00  0.00    +0.000 A 
ATOM     26  C   UNL     1      52.243   3.608  18.077  0.00  0.00    +0.000 A 
ENDBRANCH  19  21
ENDBRANCH  14  15
ENDBRANCH   1  14
TORSDOF 6
ENDMDL
