MODEL 1
REMARK VINA RESULT:    -7.235      0.000      0.000
REMARK INTER + INTRA:          -9.373
REMARK INTER:                  -8.926
REMARK INTRA:                  -0.447
REMARK UNBOUND:                -0.447
REMARK  Name = 
REMARK  4 active torsions:
REMARK  status: ('A' for Active; 'I' for Inactive)
REMARK    1  A    between atoms: C_2  and  C_4
REMARK    2  A    between atoms: C_8  and  C_9
REMARK    3  A    between atoms: C_10  and  C_11
REMARK    4  A    between atoms: C_15  and  N_16
REMARK                            x       y       z     vdW  Elec       q    Type
REMARK                         _______ _______ _______ _____ _____    ______ ____
ROOT
ATOM      1  C   UNL     1      46.861   3.890  14.766  0.00  0.00    +0.000 C 
ATOM      2  C   UNL     1      46.102   4.153  13.874  0.00  0.00    +0.000 C 
ENDROOT
BRANCH   1   7
ATOM      3  C   UNL     1      48.599   3.898  18.027  0.00  0.00    +0.000 A 
ATOM      4  C   UNL     1      49.420   2.785  17.843  0.00  0.00    +0.000 A 
ATOM      5  C   UNL     1      49.336   2.109  16.640  0.00  0.00    +0.000 A 
ATOM      6  N   UNL     1      48.505   2.469  15.638  0.00  0.00    +0.000 NA
ATOM      7  C   UNL     1      47.740   3.563  15.842  0.00  0.00    +0.000 A 
ATOM      8  C   UNL     1      47.752   4.314  17.002  0.00  0.00    +0.000 A 
BRANCH   3  10
ATOM      9  N   UNL     1      48.482   3.864  20.455  0.00  0.00    +0.000 N 
ATOM     10  C   UNL     1      48.658   4.612  19.322  0.00  0.00    +0.000 C 
ATOM     11  O   UNL     1      48.897   5.810  19.382  0.00  0.00    +0.000 OA
ATOM     12  H   UNL     1      48.640   4.341  21.332  0.00  0.00    +0.000 HD
ATOM     13  H   UNL     1      48.543   2.856  20.457  0.00  0.00    +0.000 HD
ENDBRANCH   3  10
ENDBRANCH   1   7
BRANCH   2  14
ATOM     14  C   UNL     1      45.197   4.457  12.812  0.00  0.00    +0.000 A 
ATOM     15  C   UNL     1      44.165   5.368  13.012  0.00  0.00    +0.000 A 
ATOM     16  C   UNL     1      43.297   5.658  11.964  0.00  0.00    +0.000 A 
ATOM     17  C   UNL     1      43.468   5.040  10.721  0.00  0.00    +0.000 A 
ATOM     18  C   UNL     1      44.495   4.113  10.490  0.00  0.00    +0.000 A 
ATOM     19  C   UNL     1      45.355   3.837  11.566  0.00  0.00    +0.000 A 
BRANCH  18  20
ATOM     20  N   UNL     1      44.670   3.499   9.269  0.00  0.00    +0.000 N 
ATOM     21  C   UNL     1      44.602   2.046   9.075  0.00  0.00    +0.000 C 
ATOM     22  C   UNL     1      45.927   1.526   8.499  0.00  0.00    +0.000 C 
ATOM     23  O   UNL     1      46.292   2.226   7.297  0.00  0.00    +0.000 OA
ATOM     24  C   UNL     1      46.437   3.631   7.565  0.00  0.00    +0.000 C 
ATOM     25  C   UNL     1      45.130   4.251   8.090  0.00  0.00    +0.000 C 
ENDBRANCH  18  20
ENDBRANCH   2  14
TORSDOF 4
ENDMDL
MODEL 2
REMARK VINA RESULT:    -6.428      1.822      9.391
REMARK INTER + INTRA:          -8.379
REMARK INTER:                  -7.940
REMARK INTRA:                  -0.438
REMARK UNBOUND:                -0.447
REMARK  Name = 
REMARK  4 active torsions:
REMARK  status: ('A' for Active; 'I' for Inactive)
REMARK    1  A    between atoms: C_2  and  C_4
REMARK    2  A    between atoms: C_8  and  C_9
REMARK    3  A    between atoms: C_10  and  C_11
REMARK    4  A    between atoms: C_15  and  N_16
REMARK                            x       y       z     vdW  Elec       q    Type
REMARK                         _______ _______ _______ _____ _____    ______ ____
ROOT
ATOM      1  C   UNL     1      46.081   4.522  13.905  0.00  0.00    +0.000 C 
ATOM      2  C   UNL     1      46.775   4.297  14.858  0.00  0.00    +0.000 C 
ENDROOT
BRANCH   1   7
ATOM      3  C   UNL     1      44.718   4.682  10.475  0.00  0.00    +0.000 A 
ATOM      4  C   UNL     1      43.480   5.263  10.755  0.00  0.00    +0.000 A 
ATOM      5  C   UNL     1      43.187   5.561  12.073  0.00  0.00    +0.000 A 
ATOM      6  N   UNL     1      44.033   5.322  13.097  0.00  0.00    +0.000 NA
ATOM      7  C   UNL     1      45.231   4.779  12.788  0.00  0.00    +0.000 A 
ATOM      8  C   UNL     1      45.626   4.450  11.505  0.00  0.00    +0.000 A 
BRANCH   3  10
ATOM      9  N   UNL     1      44.350   3.276   8.526  0.00  0.00    +0.000 N 
ATOM     10  C   UNL     1      45.030   4.330   9.071  0.00  0.00    +0.000 C 
ATOM     11  O   UNL     1      45.828   4.981   8.411  0.00  0.00    +0.000 OA
ATOM     12  H   UNL     1      44.487   3.121   7.536  0.00  0.00    +0.000 HD
ATOM     13  H   UNL     1      43.515   2.891   8.945  0.00  0.00    +0.000 HD
ENDBRANCH   3  10
ENDBRANCH   1   7
BRANCH   2  14
ATOM     14  C   UNL     1      47.595   4.033  15.997  0.00  0.00    +0.000 A 
ATOM     15  C   UNL     1      48.281   2.828  16.100  0.00  0.00    +0.000 A 
ATOM     16  C   UNL     1      49.082   2.591  17.213  0.00  0.00    +0.000 A 
ATOM     17  C   UNL     1      49.196   3.561  18.214  0.00  0.00    +0.000 A 
ATOM     18  C   UNL     1      48.512   4.784  18.141  0.00  0.00    +0.000 A 
ATOM     19  C   UNL     1      47.710   4.995  17.008  0.00  0.00    +0.000 A 
BRANCH  18  20
ATOM     20  N   UNL     1      48.619   5.745  19.123  0.00  0.00    +0.000 N 
ATOM     21  C   UNL     1      48.470   5.461  20.555  0.00  0.00    +0.000 C 
ATOM     22  C   UNL     1      47.321   6.292  21.143  0.00  0.00    +0.000 C 
ATOM     23  O   UNL     1      47.491   7.694  20.875  0.00  0.00    +0.000 OA
ATOM     24  C   UNL     1      47.536   7.926  19.456  0.00  0.00    +0.000 C 
ATOM     25  C   UNL     1      48.703   7.177  18.790  0.00  0.00    +0.000 C 
ENDBRANCH  18  20
ENDBRANCH   2  14
TORSDOF 4
ENDMDL
MODEL 3
REMARK VINA RESULT:    -6.202      2.366      9.275
REMARK INTER + INTRA:          -8.099
REMARK INTER:                  -7.688
REMARK INTRA:                  -0.412
REMARK UNBOUND:                -0.447
REMARK  Name = 
REMARK  4 active torsions:
REMARK  status: ('A' for Active; 'I' for Inactive)
REMARK    1  A    between atoms: C_2  and  C_4
REMARK    2  A    between atoms: C_8  and  C_9
REMARK    3  A    between atoms: C_10  and  C_11
REMARK    4  A    between atoms: C_15  and  N_16
REMARK                            x       y       z     vdW  Elec       q    Type
REMARK                         _______ _______ _______ _____ _____    ______ ____
ROOT
ATOM      1  C   UNL     1      45.965   4.652  13.935  0.00  0.00    +0.000 C 
ATOM      2  C   UNL     1      46.675   4.527  14.895  0.00  0.00    +0.000 C 
ENDROOT
BRANCH   1   7
ATOM      3  C   UNL     1      44.625   4.587  10.493  0.00  0.00    +0.000 A 
ATOM      4  C   UNL     1      43.322   5.013  10.754  0.00  0.00    +0.000 A 
ATOM      5  C   UNL     1      42.982   5.292  12.065  0.00  0.00    +0.000 A 
ATOM      6  N   UNL     1      43.841   5.177  13.099  0.00  0.00    +0.000 NA
ATOM      7  C   UNL     1      45.100   4.783  12.808  0.00  0.00    +0.000 A 
ATOM      8  C   UNL     1      45.545   4.487  11.534  0.00  0.00    +0.000 A 
BRANCH   3  10
ATOM      9  N   UNL     1      44.374   3.175   8.530  0.00  0.00    +0.000 N 
ATOM     10  C   UNL     1      44.992   4.256   9.098  0.00  0.00    +0.000 C 
ATOM     11  O   UNL     1      45.780   4.943   8.463  0.00  0.00    +0.000 OA
ATOM     12  H   UNL     1      44.546   3.031   7.544  0.00  0.00    +0.000 HD
ATOM     13  H   UNL     1      43.546   2.753   8.923  0.00  0.00    +0.000 HD
ENDBRANCH   3  10
ENDBRANCH   1   7
BRANCH   2  14
ATOM     14  C   UNL     1      47.512   4.379  16.043  0.00  0.00    +0.000 A 
ATOM     15  C   UNL     1      47.347   3.293  16.894  0.00  0.00    +0.000 A 
ATOM     16  C   UNL     1      48.177   3.160  18.003  0.00  0.00    +0.000 A 
ATOM     17  C   UNL     1      49.171   4.112  18.251  0.00  0.00    +0.000 A 
ATOM     18  C   UNL     1      49.359   5.221  17.414  0.00  0.00    +0.000 A 
ATOM     19  C   UNL     1      48.506   5.331  16.304  0.00  0.00    +0.000 A 
BRANCH  18  20
ATOM     20  N   UNL     1      50.337   6.164  17.652  0.00  0.00    +0.000 N 
ATOM     21  C   UNL     1      51.688   6.093  17.082  0.00  0.00    +0.000 C 
ATOM     22  C   UNL     1      52.735   6.054  18.204  0.00  0.00    +0.000 C 
ATOM     23  O   UNL     1      52.577   7.158  19.112  0.00  0.00    +0.000 OA
ATOM     24  C   UNL     1      51.270   7.125  19.713  0.00  0.00    +0.000 C 
ATOM     25  C   UNL     1      50.154   7.222  18.658  0.00  0.00    +0.000 C 
ENDBRANCH  18  20
ENDBRANCH   2  14
TORSDOF 4
ENDMDL
MODEL 4
REMARK VINA RESULT:    -6.079      2.535      3.431
REMARK INTER + INTRA:          -7.947
REMARK INTER:                  -7.500
REMARK INTRA:                  -0.447
REMARK UNBOUND:                -0.447
REMARK  Name = 
REMARK  4 active torsions:
REMARK  status: ('A' for Active; 'I' for Inactive)
REMARK    1  A    between atoms: C_2  and  C_4
REMARK    2  A    between atoms: C_8  and  C_9
REMARK    3  A    between atoms: C_10  and  C_11
REMARK    4  A    between atoms: C_15  and  N_16
REMARK                            x       y       z     vdW  Elec       q    Type
REMARK                         _______ _______ _______ _____ _____    ______ ____
ROOT
ATOM      1  C   UNL     1      48.555   5.748  16.237  0.00  0.00    +0.000 C 
ATOM      2  C   UNL     1      48.121   5.933  15.134  0.00  0.00    +0.000 C 
ENDROOT
BRANCH   1   7
ATOM      3  C   UNL     1      48.850   5.341  19.897  0.00  0.00    +0.000 A 
ATOM      4  C   UNL     1      50.180   4.923  19.967  0.00  0.00    +0.000 A 
ATOM      5  C   UNL     1      50.885   4.805  18.784  0.00  0.00    +0.000 A 
ATOM      6  N   UNL     1      50.359   5.076  17.571  0.00  0.00    +0.000 NA
ATOM      7  C   UNL     1      49.076   5.499  17.542  0.00  0.00    +0.000 A 
ATOM      8  C   UNL     1      48.285   5.657  18.664  0.00  0.00    +0.000 A 
BRANCH   3  10
ATOM      9  N   UNL     1      47.306   6.558  21.327  0.00  0.00    +0.000 N 
ATOM     10  C   UNL     1      48.075   5.440  21.154  0.00  0.00    +0.000 C 
ATOM     11  O   UNL     1      48.086   4.542  21.985  0.00  0.00    +0.000 OA
ATOM     12  H   UNL     1      46.695   6.559  22.133  0.00  0.00    +0.000 HD
ATOM     13  H   UNL     1      47.073   7.181  20.567  0.00  0.00    +0.000 HD
ENDBRANCH   3  10
ENDBRANCH   1   7
BRANCH   2  14
ATOM     14  C   UNL     1      47.610   6.148  13.817  0.00  0.00    +0.000 A 
ATOM     15  C   UNL     1      48.294   6.968  12.927  0.00  0.00    +0.000 A 
ATOM     16  C   UNL     1      47.786   7.159  11.646  0.00  0.00    +0.000 A 
ATOM     17  C   UNL     1      46.599   6.526  11.260  0.00  0.00    +0.000 A 
ATOM     18  C   UNL     1      45.884   5.698  12.138  0.00  0.00    +0.000 A 
ATOM     19  C   UNL     1      46.418   5.525  13.424  0.00  0.00    +0.000 A 
BRANCH  18  20
ATOM     20  N   UNL     1      44.714   5.072  11.766  0.00  0.00    +0.000 N 
ATOM     21  C   UNL     1      43.749   4.522  12.725  0.00  0.00    +0.000 C 
ATOM     22  C   UNL     1      43.560   3.017  12.484  0.00  0.00    +0.000 C 
ATOM     23  O   UNL     1      43.198   2.743  11.119  0.00  0.00    +0.000 OA
ATOM     24  C   UNL     1      44.222   3.218  10.229  0.00  0.00    +0.000 C 
ATOM     25  C   UNL     1      44.435   4.735  10.360  0.00  0.00    +0.000 C 
ENDBRANCH  18  20
ENDBRANCH   2  14
TORSDOF 4
ENDMDL
MODEL 5
REMARK VINA RESULT:    -5.916      2.689      3.677
REMARK INTER + INTRA:          -7.747
REMARK INTER:                  -7.289
REMARK INTRA:                  -0.457
REMARK UNBOUND:                -0.447
REMARK  Name = 
REMARK  4 active torsions:
REMARK  status: ('A' for Active; 'I' for Inactive)
REMARK    1  A    between atoms: C_2  and  C_4
REMARK    2  A    between atoms: C_8  and  C_9
REMARK    3  A    between atoms: C_10  and  C_11
REMARK    4  A    between atoms: C_15  and  N_16
REMARK                            x       y       z     vdW  Elec       q    Type
REMARK                         _______ _______ _______ _____ _____    ______ ____
ROOT
ATOM      1  C   UNL     1      48.525   5.607  16.282  0.00  0.00    +0.000 C 
ATOM      2  C   UNL     1      48.086   5.817  15.184  0.00  0.00    +0.000 C 
ENDROOT
BRANCH   1   7
ATOM      3  C   UNL     1      50.841   4.711  19.017  0.00  0.00    +0.000 A 
ATOM      4  C   UNL     1      50.023   5.009  20.107  0.00  0.00    +0.000 A 
ATOM      5  C   UNL     1      48.752   5.489  19.852  0.00  0.00    +0.000 A 
ATOM      6  N   UNL     1      48.263   5.682  18.608  0.00  0.00    +0.000 NA
ATOM      7  C   UNL     1      49.074   5.363  17.576  0.00  0.00    +0.000 A 
ATOM      8  C   UNL     1      50.357   4.871  17.720  0.00  0.00    +0.000 A 
BRANCH   3  10
ATOM      9  N   UNL     1      52.588   4.083  20.587  0.00  0.00    +0.000 N 
ATOM     10  C   UNL     1      52.215   4.226  19.279  0.00  0.00    +0.000 C 
ATOM     11  O   UNL     1      52.971   3.923  18.366  0.00  0.00    +0.000 OA
ATOM     12  H   UNL     1      53.483   3.642  20.750  0.00  0.00    +0.000 HD
ATOM     13  H   UNL     1      51.921   4.072  21.345  0.00  0.00    +0.000 HD
ENDBRANCH   3  10
ENDBRANCH   1   7
BRANCH   2  14
ATOM     14  C   UNL     1      47.570   6.074  13.878  0.00  0.00    +0.000 A 
ATOM     15  C   UNL     1      48.238   6.941  13.020  0.00  0.00    +0.000 A 
ATOM     16  C   UNL     1      47.725   7.174  11.748  0.00  0.00    +0.000 A 
ATOM     17  C   UNL     1      46.550   6.535  11.338  0.00  0.00    +0.000 A 
ATOM     18  C   UNL     1      45.851   5.660  12.183  0.00  0.00    +0.000 A 
ATOM     19  C   UNL     1      46.390   5.445  13.461  0.00  0.00    +0.000 A 
BRANCH  18  20
ATOM     20  N   UNL     1      44.692   5.027  11.787  0.00  0.00    +0.000 N 
ATOM     21  C   UNL     1      43.740   4.418  12.724  0.00  0.00    +0.000 C 
ATOM     22  C   UNL     1      43.580   2.922  12.420  0.00  0.00    +0.000 C 
ATOM     23  O   UNL     1      43.220   2.698  11.045  0.00  0.00    +0.000 OA
ATOM     24  C   UNL     1      44.232   3.231  10.173  0.00  0.00    +0.000 C 
ATOM     25  C   UNL     1      44.416   4.745  10.369  0.00  0.00    +0.000 C 
ENDBRANCH  18  20
ENDBRANCH   2  14
TORSDOF 4
ENDMDL
MODEL 6
REMARK VINA RESULT:    -5.824      4.109      4.724
REMARK INTER + INTRA:          -7.634
REMARK INTER:                  -7.184
REMARK INTRA:                  -0.449
REMARK UNBOUND:                -0.447
REMARK  Name = 
REMARK  4 active torsions:
REMARK  status: ('A' for Active; 'I' for Inactive)
REMARK    1  A    between atoms: C_2  and  C_4
REMARK    2  A    between atoms: C_8  and  C_9
REMARK    3  A    between atoms: C_10  and  C_11
REMARK    4  A    between atoms: C_15  and  N_16
REMARK                            x       y       z     vdW  Elec       q    Type
REMARK                         _______ _______ _______ _____ _____    ______ ____
ROOT
ATOM      1  C   UNL     1      46.960   7.243  12.661  0.00  0.00    +0.000 C 
ATOM      2  C   UNL     1      46.222   6.349  12.350  0.00  0.00    +0.000 C 
ENDROOT
BRANCH   1   7
ATOM      3  C   UNL     1      49.929   9.079  13.868  0.00  0.00    +0.000 A 
ATOM      4  C   UNL     1      49.514  10.382  13.588  0.00  0.00    +0.000 A 
ATOM      5  C   UNL     1      48.268  10.555  13.014  0.00  0.00    +0.000 A 
ATOM      6  N   UNL     1      47.436   9.535  12.714  0.00  0.00    +0.000 NA
ATOM      7  C   UNL     1      47.861   8.290  13.019  0.00  0.00    +0.000 A 
ATOM      8  C   UNL     1      49.083   8.006  13.599  0.00  0.00    +0.000 A 
BRANCH   3  10
ATOM      9  N   UNL     1      51.668   7.590  14.688  0.00  0.00    +0.000 N 
ATOM     10  C   UNL     1      51.274   8.879  14.454  0.00  0.00    +0.000 C 
ATOM     11  O   UNL     1      52.020   9.822  14.680  0.00  0.00    +0.000 OA
ATOM     12  H   UNL     1      52.628   7.463  14.978  0.00  0.00    +0.000 HD
ATOM     13  H   UNL     1      51.196   6.795  14.282  0.00  0.00    +0.000 HD
ENDBRANCH   3  10
ENDBRANCH   1   7
BRANCH   2  14
ATOM     14  C   UNL     1      45.348   5.284  11.972  0.00  0.00    +0.000 A 
ATOM     15  C   UNL     1      44.352   4.855  12.842  0.00  0.00    +0.000 A 
ATOM     16  C   UNL     1      43.504   3.822  12.455  0.00  0.00    +0.000 A 
ATOM     17  C   UNL     1      43.653   3.228  11.197  0.00  0.00    +0.000 A 
ATOM     18  C   UNL     1      44.651   3.635  10.300  0.00  0.00    +0.000 A 
ATOM     19  C   UNL     1      45.494   4.677  10.718  0.00  0.00    +0.000 A 
BRANCH  18  20
ATOM     20  N   UNL     1      44.805   3.054   9.059  0.00  0.00    +0.000 N 
ATOM     21  C   UNL     1      44.997   1.613   8.857  0.00  0.00    +0.000 C 
ATOM     22  C   UNL     1      46.326   1.351   8.135  0.00  0.00    +0.000 C 
ATOM     23  O   UNL     1      46.416   2.096   6.908  0.00  0.00    +0.000 OA
ATOM     24  C   UNL     1      46.317   3.506   7.175  0.00  0.00    +0.000 C 
ATOM     25  C   UNL     1      44.982   3.869   7.846  0.00  0.00    +0.000 C 
ENDBRANCH  18  20
ENDBRANCH   2  14
TORSDOF 4
ENDMDL
MODEL 7
REMARK VINA RESULT:    -5.805      6.419      8.279
REMARK INTER + INTRA:          -7.610
REMARK INTER:                  -7.172
REMARK INTRA:                  -0.437
REMARK UNBOUND:                -0.447
REMARK  Name = 
REMARK  4 active torsions:
REMARK  status: ('A' for Active; 'I' for Inactive)
REMARK    1  A    between atoms: C_2  and  C_4
REMARK    2  A    between atoms: C_8  and  C_9
REMARK    3  A    between atoms: C_10  and  C_11
REMARK    4  A    between atoms: C_15  and  N_16
REMARK                            x       y       z     vdW  Elec       q    Type
REMARK                         _______ _______ _______ _____ _____    ______ ____
ROOT
ATOM      1  C   UNL     1      47.948   7.027  12.039  0.00  0.00    +0.000 C 
ATOM      2  C   UNL     1      48.926   7.646  11.722  0.00  0.00    +0.000 C 
ENDROOT
BRANCH   1   7
ATOM      3  C   UNL     1      44.567   5.540  11.991  0.00  0.00    +0.000 A 
ATOM      4  C   UNL     1      44.659   4.741  13.132  0.00  0.00    +0.000 A 
ATOM      5  C   UNL     1      45.847   4.755  13.838  0.00  0.00    +0.000 A 
ATOM      6  N   UNL     1      46.916   5.500  13.485  0.00  0.00    +0.000 NA
ATOM      7  C   UNL     1      46.785   6.277  12.388  0.00  0.00    +0.000 A 
ATOM      8  C   UNL     1      45.641   6.343  11.615  0.00  0.00    +0.000 A 
BRANCH   3  10
ATOM      9  N   UNL     1      42.233   6.170  11.732  0.00  0.00    +0.000 N 
ATOM     10  C   UNL     1      43.310   5.509  11.209  0.00  0.00    +0.000 C 
ATOM     11  O   UNL     1      43.247   4.953  10.121  0.00  0.00    +0.000 OA
ATOM     12  H   UNL     1      41.419   6.239  11.135  0.00  0.00    +0.000 HD
ATOM     13  H   UNL     1      42.318   6.843  12.480  0.00  0.00    +0.000 HD
ENDBRANCH   3  10
ENDBRANCH   1   7
BRANCH   2  14
ATOM     14  C   UNL     1      50.094   8.375  11.341  0.00  0.00    +0.000 A 
ATOM     15  C   UNL     1      50.127   9.759  11.470  0.00  0.00    +0.000 A 
ATOM     16  C   UNL     1      51.275  10.453  11.102  0.00  0.00    +0.000 A 
ATOM     17  C   UNL     1      52.386   9.759  10.611  0.00  0.00    +0.000 A 
ATOM     18  C   UNL     1      52.381   8.364  10.464  0.00  0.00    +0.000 A 
ATOM     19  C   UNL     1      51.208   7.690  10.841  0.00  0.00    +0.000 A 
BRANCH  18  20
ATOM     20  N   UNL     1      53.471   7.672   9.980  0.00  0.00    +0.000 N 
ATOM     21  C   UNL     1      54.587   8.311   9.273  0.00  0.00    +0.000 C 
ATOM     22  C   UNL     1      54.734   7.714   7.866  0.00  0.00    +0.000 C 
ATOM     23  O   UNL     1      54.857   6.281   7.910  0.00  0.00    +0.000 OA
ATOM     24  C   UNL     1      53.694   5.702   8.528  0.00  0.00    +0.000 C 
ATOM     25  C   UNL     1      53.505   6.200   9.970  0.00  0.00    +0.000 C 
ENDBRANCH  18  20
ENDBRANCH   2  14
TORSDOF 4
ENDMDL
MODEL 8
REMARK VINA RESULT:    -5.775      2.993      3.409
REMARK INTER + INTRA:          -7.573
REMARK INTER:                  -7.141
REMARK INTRA:                  -0.431
REMARK UNBOUND:                -0.447
REMARK  Name = 
REMARK  4 active torsions:
REMARK  status: ('A' for Active; 'I' for Inactive)
REMARK    1  A    between atoms: C_2  and  C_4
REMARK    2  A    between atoms: C_8  and  C_9
REMARK    3  A    between atoms: C_10  and  C_11
REMARK    4  A    between atoms: C_15  and  N_16
REMARK                            x       y       z     vdW  Elec       q    Type
REMARK                         _______ _______ _______ _____ _____    ______ ____
ROOT
ATOM      1  C   UNL     1      48.442   6.794  14.719  0.00  0.00    +0.000 C 
ATOM      2  C   UNL     1      47.539   6.998  13.955  0.00  0.00    +0.000 C 
ENDROOT
BRANCH   1   7
ATOM      3  C   UNL     1      50.530   5.414  17.436  0.00  0.00    +0.000 A 
ATOM      4  C   UNL     1      51.718   6.096  17.171  0.00  0.00    +0.000 A 
ATOM      5  C   UNL     1      51.739   6.970  16.101  0.00  0.00    +0.000 A 
ATOM      6  N   UNL     1      50.673   7.199  15.304  0.00  0.00    +0.000 NA
ATOM      7  C   UNL     1      49.533   6.539  15.602  0.00  0.00    +0.000 A 
ATOM      8  C   UNL     1      49.403   5.649  16.651  0.00  0.00    +0.000 A 
BRANCH   3  10
ATOM      9  N   UNL     1      51.138   3.253  18.371  0.00  0.00    +0.000 N 
ATOM     10  C   UNL     1      50.506   4.451  18.561  0.00  0.00    +0.000 C 
ATOM     11  O   UNL     1      49.981   4.730  19.630  0.00  0.00    +0.000 OA
ATOM     12  H   UNL     1      51.213   2.655  19.183  0.00  0.00    +0.000 HD
ATOM     13  H   UNL     1      51.790   3.095  17.616  0.00  0.00    +0.000 HD
ENDBRANCH   3  10
ENDBRANCH   1   7
BRANCH   2  14
ATOM     14  C   UNL     1      46.469   7.245  13.041  0.00  0.00    +0.000 A 
ATOM     15  C   UNL     1      46.124   8.549  12.704  0.00  0.00    +0.000 A 
ATOM     16  C   UNL     1      45.085   8.771  11.806  0.00  0.00    +0.000 A 
ATOM     17  C   UNL     1      44.399   7.687  11.247  0.00  0.00    +0.000 A 
ATOM     18  C   UNL     1      44.720   6.361  11.572  0.00  0.00    +0.000 A 
ATOM     19  C   UNL     1      45.771   6.167  12.482  0.00  0.00    +0.000 A 
BRANCH  18  20
ATOM     20  N   UNL     1      44.049   5.288  11.026  0.00  0.00    +0.000 N 
ATOM     21  C   UNL     1      42.958   4.582  11.708  0.00  0.00    +0.000 C 
ATOM     22  C   UNL     1      43.316   3.099  11.885  0.00  0.00    +0.000 C 
ATOM     23  O   UNL     1      43.670   2.488  10.632  0.00  0.00    +0.000 OA
ATOM     24  C   UNL     1      44.803   3.160  10.054  0.00  0.00    +0.000 C 
ATOM     25  C   UNL     1      44.509   4.645   9.784  0.00  0.00    +0.000 C 
ENDBRANCH  18  20
ENDBRANCH   2  14
TORSDOF 4
ENDMDL
MODEL 9
REMARK VINA RESULT:    -5.731      5.892      8.405
REMARK INTER + INTRA:          -7.518
REMARK INTER:                  -7.071
REMARK INTRA:                  -0.447
REMARK UNBOUND:                -0.447
REMARK  Name = 
REMARK  4 active torsions:
REMARK  status: ('A' for Active; 'I' for Inactive)
REMARK    1  A    between atoms: C_2  and  C_4
REMARK    2  A    between atoms: C_8  and  C_9
REMARK    3  A    between atoms: C_10  and  C_11
REMARK    4  A    between atoms: C_15  and  N_16
REMARK                            x       y       z     vdW  Elec       q    Type
REMARK                         _______ _______ _______ _____ _____    ______ ____
ROOT
ATOM      1  C   UNL     1      46.903   6.915  11.750  0.00  0.00    +0.000 C 
ATOM      2  C   UNL     1      47.987   7.391  11.950  0.00  0.00    +0.000 C 
ENDROOT
BRANCH   1   7
ATOM      3  C   UNL     1      44.227   4.465  11.054  0.00  0.00    +0.000 A 
ATOM      4  C   UNL     1      43.127   5.323  11.087  0.00  0.00    +0.000 A 
ATOM      5  C   UNL     1      43.357   6.662  11.340  0.00  0.00    +0.000 A 
ATOM      6  N   UNL     1      44.585   7.181  11.554  0.00  0.00    +0.000 NA
ATOM      7  C   UNL     1      45.629   6.327  11.493  0.00  0.00    +0.000 A 
ATOM      8  C   UNL     1      45.511   4.973  11.241  0.00  0.00    +0.000 A 
BRANCH   3  10
ATOM      9  N   UNL     1      44.873   2.373   9.998  0.00  0.00    +0.000 N 
ATOM     10  C   UNL     1      43.989   3.024  10.815  0.00  0.00    +0.000 C 
ATOM     11  O   UNL     1      43.069   2.428  11.358  0.00  0.00    +0.000 OA
ATOM     12  H   UNL     1      44.767   1.369   9.937  0.00  0.00    +0.000 HD
ATOM     13  H   UNL     1      45.771   2.761   9.749  0.00  0.00    +0.000 HD
ENDBRANCH   3  10
ENDBRANCH   1   7
BRANCH   2  14
ATOM     14  C   UNL     1      49.279   7.950  12.190  0.00  0.00    +0.000 A 
ATOM     15  C   UNL     1      49.503   8.737  13.314  0.00  0.00    +0.000 A 
ATOM     16  C   UNL     1      50.770   9.267  13.536  0.00  0.00    +0.000 A 
ATOM     17  C   UNL     1      51.808   9.003  12.636  0.00  0.00    +0.000 A 
ATOM     18  C   UNL     1      51.611   8.218  11.490  0.00  0.00    +0.000 A 
ATOM     19  C   UNL     1      50.323   7.698  11.290  0.00  0.00    +0.000 A 
BRANCH  18  20
ATOM     20  N   UNL     1      52.628   7.954  10.598  0.00  0.00    +0.000 N 
ATOM     21  C   UNL     1      52.520   6.971   9.513  0.00  0.00    +0.000 C 
ATOM     22  C   UNL     1      53.604   5.895   9.662  0.00  0.00    +0.000 C 
ATOM     23  O   UNL     1      54.917   6.476   9.750  0.00  0.00    +0.000 OA
ATOM     24  C   UNL     1      54.995   7.356  10.885  0.00  0.00    +0.000 C 
ATOM     25  C   UNL     1      53.979   8.507  10.787  0.00  0.00    +0.000 C 
ENDBRANCH  18  20
ENDBRANCH   2  14
TORSDOF 4
ENDMDL
