MODEL 1
REMARK VINA RESULT:    -8.311      0.000      0.000
REMARK INTER + INTRA:         -11.449
REMARK INTER:                 -10.740
REMARK INTRA:                  -0.710
REMARK UNBOUND:                -0.710
REMARK  Name = 
REMARK  5 active torsions:
REMARK  status: ('A' for Active; 'I' for Inactive)
REMARK    1  A    between atoms: C_2  and  C_4
REMARK    2  A    between atoms: C_7  and  C_8
REMARK    3  A    between atoms: C_8  and  O_9
REMARK    4  A    between atoms: O_9  and  C_10
REMARK    5  A    between atoms: C_15  and  C_16
REMARK                            x       y       z     vdW  Elec       q    Type
REMARK                         _______ _______ _______ _____ _____    ______ ____
ROOT
ATOM      1  C   UNL     1      44.952   4.384  12.209  0.00  0.00    +0.000 A 
ATOM      2  C   UNL     1      45.570   3.444  13.026  0.00  0.00    +0.000 A 
ATOM      3  C   UNL     1      46.780   3.758  13.626  0.00  0.00    +0.000 A 
ATOM      4  F   UNL     1      47.367   2.859  14.426  0.00  0.00    +0.000 F 
ATOM      5  C   UNL     1      47.405   4.980  13.405  0.00  0.00    +0.000 A 
ATOM      6  C   UNL     1      46.841   5.923  12.537  0.00  0.00    +0.000 A 
ATOM      7  C   UNL     1      45.582   5.617  11.982  0.00  0.00    +0.000 A 
ENDROOT
BRANCH   6   8
ATOM      8  C   UNL     1      47.524   7.240  12.171  0.00  0.00    +0.000 C 
ATOM      9  C   UNL     1      48.647   7.607  13.165  0.00  0.00    +0.000 C 
ATOM     10  C   UNL     1      48.084   8.126  14.488  0.00  0.00    +0.000 C 
ATOM     11  N   UNL     1      47.237   9.304  14.294  0.00  0.00    +0.000 NA
ATOM     12  C   UNL     1      46.132   9.024  13.380  0.00  0.00    +0.000 C 
ATOM     13  C   UNL     1      46.606   8.473  12.029  0.00  0.00    +0.000 C 
ATOM     14  H   UNL     1      47.801  10.064  13.916  0.00  0.00    +0.000 HD
ENDBRANCH   6   8
BRANCH   1  15
ATOM     15  O   UNL     1      43.751   4.222  11.573  0.00  0.00    +0.000 OA
BRANCH  15  16
ATOM     16  C   UNL     1      43.702   4.640  10.207  0.00  0.00    +0.000 C 
BRANCH  16  20
ATOM     17  C   UNL     1      46.441   2.431   7.698  0.00  0.00    +0.000 A 
ATOM     18  C   UNL     1      45.571   1.739   8.548  0.00  0.00    +0.000 A 
ATOM     19  C   UNL     1      44.687   2.448   9.369  0.00  0.00    +0.000 A 
ATOM     20  C   UNL     1      44.675   3.848   9.362  0.00  0.00    +0.000 A 
ATOM     21  C   UNL     1      45.545   4.531   8.501  0.00  0.00    +0.000 A 
ATOM     22  C   UNL     1      46.431   3.828   7.682  0.00  0.00    +0.000 A 
BRANCH  17  24
ATOM     23  N   UNL     1      48.492   2.426   6.383  0.00  0.00    +0.000 N 
ATOM     24  C   UNL     1      47.402   1.723   6.815  0.00  0.00    +0.000 C 
ATOM     25  O   UNL     1      47.253   0.545   6.514  0.00  0.00    +0.000 OA
ATOM     26  H   UNL     1      49.190   1.897   5.878  0.00  0.00    +0.000 HD
ATOM     27  H   UNL     1      48.780   3.291   6.816  0.00  0.00    +0.000 HD
ENDBRANCH  17  24
ENDBRANCH  16  20
ENDBRANCH  15  16
ENDBRANCH   1  15
TORSDOF 5
ENDMDL
MODEL 2
REMARK VINA RESULT:    -8.275      1.246      1.964
REMARK INTER + INTRA:         -11.404
REMARK INTER:                 -10.867
REMARK INTRA:                  -0.537
REMARK UNBOUND:                -0.710
REMARK  Name = 
REMARK  5 active torsions:
REMARK  status: ('A' for Active; 'I' for Inactive)
REMARK    1  A    between atoms: C_2  and  C_4
REMARK    2  A    between atoms: C_7  and  C_8
REMARK    3  A    between atoms: C_8  and  O_9
REMARK    4  A    between atoms: O_9  and  C_10
REMARK    5  A    between atoms: C_15  and  C_16
REMARK                            x       y       z     vdW  Elec       q    Type
REMARK                         _______ _______ _______ _____ _____    ______ ____
ROOT
ATOM      1  C   UNL     1      45.222   5.398  11.978  0.00  0.00    +0.000 A 
ATOM      2  C   UNL     1      45.632   4.307  12.737  0.00  0.00    +0.000 A 
ATOM      3  C   UNL     1      46.664   4.466  13.649  0.00  0.00    +0.000 A 
ATOM      4  F   UNL     1      47.048   3.420  14.391  0.00  0.00    +0.000 F 
ATOM      5  C   UNL     1      47.318   5.683  13.801  0.00  0.00    +0.000 A 
ATOM      6  C   UNL     1      46.972   6.783  13.007  0.00  0.00    +0.000 A 
ATOM      7  C   UNL     1      45.882   6.627  12.127  0.00  0.00    +0.000 A 
ENDROOT
BRANCH   6   8
ATOM      8  C   UNL     1      47.716   8.117  13.051  0.00  0.00    +0.000 C 
ATOM      9  C   UNL     1      48.548   8.360  11.772  0.00  0.00    +0.000 C 
ATOM     10  C   UNL     1      49.819   7.512  11.754  0.00  0.00    +0.000 C 
ATOM     11  N   UNL     1      50.669   7.782  12.915  0.00  0.00    +0.000 NA
ATOM     12  C   UNL     1      49.954   7.548  14.168  0.00  0.00    +0.000 C 
ATOM     13  C   UNL     1      48.647   8.344  14.261  0.00  0.00    +0.000 C 
ATOM     14  H   UNL     1      50.982   8.752  12.883  0.00  0.00    +0.000 HD
ENDBRANCH   6   8
BRANCH   1  15
ATOM     15  O   UNL     1      44.206   5.394  11.059  0.00  0.00    +0.000 OA
BRANCH  15  16
ATOM     16  C   UNL     1      43.828   4.115  10.546  0.00  0.00    +0.000 C 
BRANCH  16  20
ATOM     17  C   UNL     1      46.642   2.739   7.569  0.00  0.00    +0.000 A 
ATOM     18  C   UNL     1      46.382   4.108   7.694  0.00  0.00    +0.000 A 
ATOM     19  C   UNL     1      45.467   4.561   8.651  0.00  0.00    +0.000 A 
ATOM     20  C   UNL     1      44.791   3.653   9.476  0.00  0.00    +0.000 A 
ATOM     21  C   UNL     1      45.065   2.284   9.348  0.00  0.00    +0.000 A 
ATOM     22  C   UNL     1      45.976   1.828   8.393  0.00  0.00    +0.000 A 
BRANCH  17  24
ATOM     23  N   UNL     1      47.754   2.925   5.409  0.00  0.00    +0.000 N 
ATOM     24  C   UNL     1      47.599   2.211   6.563  0.00  0.00    +0.000 C 
ATOM     25  O   UNL     1      48.256   1.198   6.771  0.00  0.00    +0.000 OA
ATOM     26  H   UNL     1      48.489   2.613   4.789  0.00  0.00    +0.000 HD
ATOM     27  H   UNL     1      47.439   3.880   5.321  0.00  0.00    +0.000 HD
ENDBRANCH  17  24
ENDBRANCH  16  20
ENDBRANCH  15  16
ENDBRANCH   1  15
TORSDOF 5
ENDMDL
MODEL 3
REMARK VINA RESULT:    -7.674      2.201      2.809
REMARK INTER + INTRA:         -10.627
REMARK INTER:                  -9.949
REMARK INTRA:                  -0.677
REMARK UNBOUND:                -0.710
REMARK  Name = 
REMARK  5 active torsions:
REMARK  status: ('A' for Active; 'I' for Inactive)
REMARK    1  A    between atoms: C_2  and  C_4
REMARK    2  A    between atoms: C_7  and  C_8
REMARK    3  A    between atoms: C_8  and  O_9
REMARK    4  A    between atoms: O_9  and  C_10
REMARK    5  A    between atoms: C_15  and  C_16
REMARK                            x       y       z     vdW  Elec       q    Type
REMARK                         _______ _______ _______ _____ _____    ______ ____
ROOT
ATOM      1  C   UNL     1      44.617   5.521  11.809  0.00  0.00    +0.000 A 
ATOM      2  C   UNL     1      43.754   6.469  11.271  0.00  0.00    +0.000 A 
ATOM      3  C   UNL     1      44.064   7.814  11.391  0.00  0.00    +0.000 A 
ATOM      4  F   UNL     1      43.240   8.726  10.859  0.00  0.00    +0.000 F 
ATOM      5  C   UNL     1      45.204   8.240  12.064  0.00  0.00    +0.000 A 
ATOM      6  C   UNL     1      46.060   7.314  12.673  0.00  0.00    +0.000 A 
ATOM      7  C   UNL     1      45.767   5.947  12.491  0.00  0.00    +0.000 A 
ENDROOT
BRANCH   6   8
ATOM      8  C   UNL     1      47.271   7.718  13.513  0.00  0.00    +0.000 C 
ATOM      9  C   UNL     1      47.696   9.179  13.252  0.00  0.00    +0.000 C 
ATOM     10  C   UNL     1      48.422   9.328  11.915  0.00  0.00    +0.000 C 
ATOM     11  N   UNL     1      49.614   8.481  11.847  0.00  0.00    +0.000 NA
ATOM     12  C   UNL     1      49.284   7.073  12.059  0.00  0.00    +0.000 C 
ATOM     13  C   UNL     1      48.529   6.834  13.373  0.00  0.00    +0.000 C 
ATOM     14  H   UNL     1      50.280   8.781  12.558  0.00  0.00    +0.000 HD
ENDBRANCH   6   8
BRANCH   1  15
ATOM     15  O   UNL     1      44.452   4.163  11.747  0.00  0.00    +0.000 OA
BRANCH  15  16
ATOM     16  C   UNL     1      43.784   3.665  10.586  0.00  0.00    +0.000 C 
BRANCH  16  20
ATOM     17  C   UNL     1      46.554   2.628   7.435  0.00  0.00    +0.000 A 
ATOM     18  C   UNL     1      46.001   1.618   8.230  0.00  0.00    +0.000 A 
ATOM     19  C   UNL     1      45.109   1.947   9.256  0.00  0.00    +0.000 A 
ATOM     20  C   UNL     1      44.776   3.283   9.511  0.00  0.00    +0.000 A 
ATOM     21  C   UNL     1      45.329   4.287   8.703  0.00  0.00    +0.000 A 
ATOM     22  C   UNL     1      46.221   3.963   7.679  0.00  0.00    +0.000 A 
BRANCH  17  24
ATOM     23  N   UNL     1      47.310   2.958   5.143  0.00  0.00    +0.000 N 
ATOM     24  C   UNL     1      47.510   2.329   6.339  0.00  0.00    +0.000 C 
ATOM     25  O   UNL     1      48.466   1.582   6.505  0.00  0.00    +0.000 OA
ATOM     26  H   UNL     1      48.032   2.831   4.447  0.00  0.00    +0.000 HD
ATOM     27  H   UNL     1      46.708   3.764   5.053  0.00  0.00    +0.000 HD
ENDBRANCH  17  24
ENDBRANCH  16  20
ENDBRANCH  15  16
ENDBRANCH   1  15
TORSDOF 5
ENDMDL
MODEL 4
REMARK VINA RESULT:    -7.403      4.796      7.663
REMARK INTER + INTRA:         -10.276
REMARK INTER:                  -9.991
REMARK INTRA:                  -0.285
REMARK UNBOUND:                -0.710
REMARK  Name = 
REMARK  5 active torsions:
REMARK  status: ('A' for Active; 'I' for Inactive)
REMARK    1  A    between atoms: C_2  and  C_4
REMARK    2  A    between atoms: C_7  and  C_8
REMARK    3  A    between atoms: C_8  and  O_9
REMARK    4  A    between atoms: O_9  and  C_10
REMARK    5  A    between atoms: C_15  and  C_16
REMARK                            x       y       z     vdW  Elec       q    Type
REMARK                         _______ _______ _______ _____ _____    ______ ____
ROOT
ATOM      1  C   UNL     1      46.701   4.866  14.184  0.00  0.00    +0.000 A 
ATOM      2  C   UNL     1      47.715   5.747  13.827  0.00  0.00    +0.000 A 
ATOM      3  C   UNL     1      47.585   6.498  12.669  0.00  0.00    +0.000 A 
ATOM      4  F   UNL     1      48.554   7.359  12.334  0.00  0.00    +0.000 F 
ATOM      5  C   UNL     1      46.476   6.368  11.840  0.00  0.00    +0.000 A 
ATOM      6  C   UNL     1      45.468   5.442  12.137  0.00  0.00    +0.000 A 
ATOM      7  C   UNL     1      45.582   4.730  13.348  0.00  0.00    +0.000 A 
ENDROOT
BRANCH   6   8
ATOM      8  C   UNL     1      44.277   5.176  11.218  0.00  0.00    +0.000 C 
ATOM      9  C   UNL     1      43.163   4.376  11.929  0.00  0.00    +0.000 C 
ATOM     10  C   UNL     1      43.533   2.901  12.077  0.00  0.00    +0.000 C 
ATOM     11  N   UNL     1      43.796   2.274  10.781  0.00  0.00    +0.000 NA
ATOM     12  C   UNL     1      44.862   2.965  10.059  0.00  0.00    +0.000 C 
ATOM     13  C   UNL     1      44.584   4.463   9.885  0.00  0.00    +0.000 C 
ATOM     14  H   UNL     1      42.945   2.290  10.221  0.00  0.00    +0.000 HD
ENDBRANCH   6   8
BRANCH   1  15
ATOM     15  O   UNL     1      46.684   4.081  15.306  0.00  0.00    +0.000 OA
BRANCH  15  16
ATOM     16  C   UNL     1      47.350   4.611  16.453  0.00  0.00    +0.000 C 
BRANCH  16  20
ATOM     17  C   UNL     1      50.899   2.331  17.393  0.00  0.00    +0.000 A 
ATOM     18  C   UNL     1      49.827   1.706  16.748  0.00  0.00    +0.000 A 
ATOM     19  C   UNL     1      48.672   2.436  16.447  0.00  0.00    +0.000 A 
ATOM     20  C   UNL     1      48.569   3.786  16.802  0.00  0.00    +0.000 A 
ATOM     21  C   UNL     1      49.653   4.405  17.441  0.00  0.00    +0.000 A 
ATOM     22  C   UNL     1      50.806   3.680  17.745  0.00  0.00    +0.000 A 
BRANCH  17  24
ATOM     23  N   UNL     1      52.010   0.309  18.176  0.00  0.00    +0.000 N 
ATOM     24  C   UNL     1      52.143   1.597  17.740  0.00  0.00    +0.000 C 
ATOM     25  O   UNL     1      53.249   2.105  17.605  0.00  0.00    +0.000 OA
ATOM     26  H   UNL     1      52.869  -0.210  18.299  0.00  0.00    +0.000 HD
ATOM     27  H   UNL     1      51.157  -0.217  18.047  0.00  0.00    +0.000 HD
ENDBRANCH  17  24
ENDBRANCH  16  20
ENDBRANCH  15  16
ENDBRANCH   1  15
TORSDOF 5
ENDMDL
MODEL 5
REMARK VINA RESULT:    -7.069      2.664      3.589
REMARK INTER + INTRA:          -9.845
REMARK INTER:                  -9.380
REMARK INTRA:                  -0.465
REMARK UNBOUND:                -0.710
REMARK  Name = 
REMARK  5 active torsions:
REMARK  status: ('A' for Active; 'I' for Inactive)
REMARK    1  A    between atoms: C_2  and  C_4
REMARK    2  A    between atoms: C_7  and  C_8
REMARK    3  A    between atoms: C_8  and  O_9
REMARK    4  A    between atoms: O_9  and  C_10
REMARK    5  A    between atoms: C_15  and  C_16
REMARK                            x       y       z     vdW  Elec       q    Type
REMARK                         _______ _______ _______ _____ _____    ______ ____
ROOT
ATOM      1  C   UNL     1      46.037   4.795  13.057  0.00  0.00    +0.000 A 
ATOM      2  C   UNL     1      46.818   5.812  12.520  0.00  0.00    +0.000 A 
ATOM      3  C   UNL     1      47.825   6.372  13.289  0.00  0.00    +0.000 A 
ATOM      4  F   UNL     1      48.588   7.341  12.766  0.00  0.00    +0.000 F 
ATOM      5  C   UNL     1      48.053   5.962  14.598  0.00  0.00    +0.000 A 
ATOM      6  C   UNL     1      47.243   4.986  15.191  0.00  0.00    +0.000 A 
ATOM      7  C   UNL     1      46.263   4.380  14.378  0.00  0.00    +0.000 A 
ENDROOT
BRANCH   6   8
ATOM      8  C   UNL     1      47.373   4.563  16.653  0.00  0.00    +0.000 C 
ATOM      9  C   UNL     1      48.531   5.293  17.368  0.00  0.00    +0.000 C 
ATOM     10  C   UNL     1      49.892   4.731  16.958  0.00  0.00    +0.000 C 
ATOM     11  N   UNL     1      49.999   3.300  17.249  0.00  0.00    +0.000 NA
ATOM     12  C   UNL     1      48.945   2.538  16.582  0.00  0.00    +0.000 C 
ATOM     13  C   UNL     1      47.540   3.052  16.919  0.00  0.00    +0.000 C 
ATOM     14  H   UNL     1      49.932   3.156  18.256  0.00  0.00    +0.000 HD
ENDBRANCH   6   8
BRANCH   1  15
ATOM     15  O   UNL     1      45.027   4.136  12.408  0.00  0.00    +0.000 OA
BRANCH  15  16
ATOM     16  C   UNL     1      44.565   4.734  11.196  0.00  0.00    +0.000 C 
BRANCH  16  20
ATOM     17  C   UNL     1      46.232   2.854   7.680  0.00  0.00    +0.000 A 
ATOM     18  C   UNL     1      45.629   2.065   8.664  0.00  0.00    +0.000 A 
ATOM     19  C   UNL     1      45.093   2.666   9.809  0.00  0.00    +0.000 A 
ATOM     20  C   UNL     1      45.171   4.052   9.989  0.00  0.00    +0.000 A 
ATOM     21  C   UNL     1      45.771   4.835   8.992  0.00  0.00    +0.000 A 
ATOM     22  C   UNL     1      46.308   4.239   7.850  0.00  0.00    +0.000 A 
BRANCH  17  24
ATOM     23  N   UNL     1      47.037   3.098   5.393  0.00  0.00    +0.000 N 
ATOM     24  C   UNL     1      46.821   2.262   6.452  0.00  0.00    +0.000 C 
ATOM     25  O   UNL     1      47.141   1.081   6.396  0.00  0.00    +0.000 OA
ATOM     26  H   UNL     1      47.540   2.704   4.610  0.00  0.00    +0.000 HD
ATOM     27  H   UNL     1      47.035   4.103   5.493  0.00  0.00    +0.000 HD
ENDBRANCH  17  24
ENDBRANCH  16  20
ENDBRANCH  15  16
ENDBRANCH   1  15
TORSDOF 5
ENDMDL
MODEL 6
REMARK VINA RESULT:    -6.856      4.543      8.431
REMARK INTER + INTRA:          -9.570
REMARK INTER:                  -9.361
REMARK INTRA:                  -0.209
REMARK UNBOUND:                -0.710
REMARK  Name = 
REMARK  5 active torsions:
REMARK  status: ('A' for Active; 'I' for Inactive)
REMARK    1  A    between atoms: C_2  and  C_4
REMARK    2  A    between atoms: C_7  and  C_8
REMARK    3  A    between atoms: C_8  and  O_9
REMARK    4  A    between atoms: O_9  and  C_10
REMARK    5  A    between atoms: C_15  and  C_16
REMARK                            x       y       z     vdW  Elec       q    Type
REMARK                         _______ _______ _______ _____ _____    ______ ____
ROOT
ATOM      1  C   UNL     1      46.458   5.006  13.753  0.00  0.00    +0.000 A 
ATOM      2  C   UNL     1      47.472   5.892  13.407  0.00  0.00    +0.000 A 
ATOM      3  C   UNL     1      47.402   6.562  12.195  0.00  0.00    +0.000 A 
ATOM      4  F   UNL     1      48.370   7.428  11.868  0.00  0.00    +0.000 F 
ATOM      5  C   UNL     1      46.356   6.345  11.305  0.00  0.00    +0.000 A 
ATOM      6  C   UNL     1      45.354   5.411  11.595  0.00  0.00    +0.000 A 
ATOM      7  C   UNL     1      45.404   4.782  12.856  0.00  0.00    +0.000 A 
ENDROOT
BRANCH   6   8
ATOM      8  C   UNL     1      44.236   5.050  10.619  0.00  0.00    +0.000 C 
ATOM      9  C   UNL     1      43.081   4.295  11.313  0.00  0.00    +0.000 C 
ATOM     10  C   UNL     1      43.453   2.843  11.613  0.00  0.00    +0.000 C 
ATOM     11  N   UNL     1      43.816   2.113  10.397  0.00  0.00    +0.000 NA
ATOM     12  C   UNL     1      44.926   2.757   9.697  0.00  0.00    +0.000 C 
ATOM     13  C   UNL     1      44.647   4.231   9.376  0.00  0.00    +0.000 C 
ATOM     14  H   UNL     1      43.008   2.069   9.778  0.00  0.00    +0.000 HD
ENDBRANCH   6   8
BRANCH   1  15
ATOM     15  O   UNL     1      46.384   4.296  14.922  0.00  0.00    +0.000 OA
BRANCH  15  16
ATOM     16  C   UNL     1      47.544   3.537  15.270  0.00  0.00    +0.000 C 
BRANCH  16  20
ATOM     17  C   UNL     1      48.632   4.249  19.391  0.00  0.00    +0.000 A 
ATOM     18  C   UNL     1      49.246   3.210  18.683  0.00  0.00    +0.000 A 
ATOM     19  C   UNL     1      48.894   2.968  17.351  0.00  0.00    +0.000 A 
ATOM     20  C   UNL     1      47.916   3.747  16.720  0.00  0.00    +0.000 A 
ATOM     21  C   UNL     1      47.312   4.791  17.436  0.00  0.00    +0.000 A 
ATOM     22  C   UNL     1      47.660   5.034  18.766  0.00  0.00    +0.000 A 
BRANCH  17  24
ATOM     23  N   UNL     1      50.291   4.646  21.131  0.00  0.00    +0.000 N 
ATOM     24  C   UNL     1      48.967   4.539  20.808  0.00  0.00    +0.000 C 
ATOM     25  O   UNL     1      48.097   4.716  21.652  0.00  0.00    +0.000 OA
ATOM     26  H   UNL     1      50.496   4.954  22.071  0.00  0.00    +0.000 HD
ATOM     27  H   UNL     1      51.007   4.769  20.429  0.00  0.00    +0.000 HD
ENDBRANCH  17  24
ENDBRANCH  16  20
ENDBRANCH  15  16
ENDBRANCH   1  15
TORSDOF 5
ENDMDL
MODEL 7
REMARK VINA RESULT:    -6.514      4.257      6.198
REMARK INTER + INTRA:          -9.127
REMARK INTER:                  -8.197
REMARK INTRA:                  -0.931
REMARK UNBOUND:                -0.710
REMARK  Name = 
REMARK  5 active torsions:
REMARK  status: ('A' for Active; 'I' for Inactive)
REMARK    1  A    between atoms: C_2  and  C_4
REMARK    2  A    between atoms: C_7  and  C_8
REMARK    3  A    between atoms: C_8  and  O_9
REMARK    4  A    between atoms: O_9  and  C_10
REMARK    5  A    between atoms: C_15  and  C_16
REMARK                            x       y       z     vdW  Elec       q    Type
REMARK                         _______ _______ _______ _____ _____    ______ ____
ROOT
ATOM      1  C   UNL     1      48.639   8.115  14.608  0.00  0.00    +0.000 A 
ATOM      2  C   UNL     1      48.256   9.315  15.196  0.00  0.00    +0.000 A 
ATOM      3  C   UNL     1      48.240   9.419  16.578  0.00  0.00    +0.000 A 
ATOM      4  F   UNL     1      47.886  10.580  17.144  0.00  0.00    +0.000 F 
ATOM      5  C   UNL     1      48.571   8.341  17.391  0.00  0.00    +0.000 A 
ATOM      6  C   UNL     1      48.899   7.100  16.832  0.00  0.00    +0.000 A 
ATOM      7  C   UNL     1      48.971   7.025  15.425  0.00  0.00    +0.000 A 
ENDROOT
BRANCH   6   8
ATOM      8  C   UNL     1      49.173   5.849  17.666  0.00  0.00    +0.000 C 
ATOM      9  C   UNL     1      48.826   4.554  16.900  0.00  0.00    +0.000 C 
ATOM     10  C   UNL     1      47.317   4.325  16.830  0.00  0.00    +0.000 C 
ATOM     11  N   UNL     1      46.716   4.248  18.162  0.00  0.00    +0.000 NA
ATOM     12  C   UNL     1      46.981   5.456  18.940  0.00  0.00    +0.000 C 
ATOM     13  C   UNL     1      48.478   5.777  19.042  0.00  0.00    +0.000 C 
ATOM     14  H   UNL     1      47.096   3.440  18.655  0.00  0.00    +0.000 HD
ENDBRANCH   6   8
BRANCH   1  15
ATOM     15  O   UNL     1      48.723   7.877  13.263  0.00  0.00    +0.000 OA
BRANCH  15  16
ATOM     16  C   UNL     1      48.585   6.514  12.857  0.00  0.00    +0.000 C 
BRANCH  16  20
ATOM     17  C   UNL     1      44.491   5.456  11.964  0.00  0.00    +0.000 A 
ATOM     18  C   UNL     1      45.061   6.582  11.360  0.00  0.00    +0.000 A 
ATOM     19  C   UNL     1      46.384   6.935  11.650  0.00  0.00    +0.000 A 
ATOM     20  C   UNL     1      47.141   6.181  12.556  0.00  0.00    +0.000 A 
ATOM     21  C   UNL     1      46.562   5.050  13.148  0.00  0.00    +0.000 A 
ATOM     22  C   UNL     1      45.242   4.695  12.863  0.00  0.00    +0.000 A 
BRANCH  17  24
ATOM     23  N   UNL     1      42.124   6.008  11.792  0.00  0.00    +0.000 N 
ATOM     24  C   UNL     1      43.089   5.046  11.693  0.00  0.00    +0.000 C 
ATOM     25  O   UNL     1      42.807   3.903  11.354  0.00  0.00    +0.000 OA
ATOM     26  H   UNL     1      41.196   5.739  11.496  0.00  0.00    +0.000 HD
ATOM     27  H   UNL     1      42.346   6.993  11.806  0.00  0.00    +0.000 HD
ENDBRANCH  17  24
ENDBRANCH  16  20
ENDBRANCH  15  16
ENDBRANCH   1  15
TORSDOF 5
ENDMDL
MODEL 8
REMARK VINA RESULT:    -6.424      4.679      7.274
REMARK INTER + INTRA:          -9.012
REMARK INTER:                  -8.355
REMARK INTRA:                  -0.656
REMARK UNBOUND:                -0.710
REMARK  Name = 
REMARK  5 active torsions:
REMARK  status: ('A' for Active; 'I' for Inactive)
REMARK    1  A    between atoms: C_2  and  C_4
REMARK    2  A    between atoms: C_7  and  C_8
REMARK    3  A    between atoms: C_8  and  O_9
REMARK    4  A    between atoms: O_9  and  C_10
REMARK    5  A    between atoms: C_15  and  C_16
REMARK                            x       y       z     vdW  Elec       q    Type
REMARK                         _______ _______ _______ _____ _____    ______ ____
ROOT
ATOM      1  C   UNL     1      46.756   4.258  13.820  0.00  0.00    +0.000 A 
ATOM      2  C   UNL     1      45.808   4.029  12.830  0.00  0.00    +0.000 A 
ATOM      3  C   UNL     1      45.526   5.032  11.916  0.00  0.00    +0.000 A 
ATOM      4  F   UNL     1      44.624   4.806  10.952  0.00  0.00    +0.000 F 
ATOM      5  C   UNL     1      46.148   6.273  11.986  0.00  0.00    +0.000 A 
ATOM      6  C   UNL     1      47.060   6.558  13.009  0.00  0.00    +0.000 A 
ATOM      7  C   UNL     1      47.384   5.510  13.895  0.00  0.00    +0.000 A 
ENDROOT
BRANCH   6   8
ATOM      8  C   UNL     1      47.701   7.931  13.204  0.00  0.00    +0.000 C 
ATOM      9  C   UNL     1      48.567   8.344  11.994  0.00  0.00    +0.000 C 
ATOM     10  C   UNL     1      49.898   7.592  11.967  0.00  0.00    +0.000 C 
ATOM     11  N   UNL     1      50.673   7.818  13.188  0.00  0.00    +0.000 NA
ATOM     12  C   UNL     1      49.924   7.424  14.379  0.00  0.00    +0.000 C 
ATOM     13  C   UNL     1      48.558   8.115  14.474  0.00  0.00    +0.000 C 
ATOM     14  H   UNL     1      50.915   8.806  13.254  0.00  0.00    +0.000 HD
ENDBRANCH   6   8
BRANCH   1  15
ATOM     15  O   UNL     1      47.151   3.355  14.771  0.00  0.00    +0.000 OA
BRANCH  15  16
ATOM     16  C   UNL     1      47.239   3.851  16.109  0.00  0.00    +0.000 C 
BRANCH  16  20
ATOM     17  C   UNL     1      51.183   3.142  17.727  0.00  0.00    +0.000 A 
ATOM     18  C   UNL     1      50.436   2.068  17.231  0.00  0.00    +0.000 A 
ATOM     19  C   UNL     1      49.155   2.288  16.712  0.00  0.00    +0.000 A 
ATOM     20  C   UNL     1      48.603   3.575  16.700  0.00  0.00    +0.000 A 
ATOM     21  C   UNL     1      49.363   4.646  17.193  0.00  0.00    +0.000 A 
ATOM     22  C   UNL     1      50.640   4.429  17.713  0.00  0.00    +0.000 A 
BRANCH  17  24
ATOM     23  N   UNL     1      52.956   1.675  18.529  0.00  0.00    +0.000 N 
ATOM     24  C   UNL     1      52.543   2.956  18.295  0.00  0.00    +0.000 C 
ATOM     25  O   UNL     1      53.286   3.907  18.508  0.00  0.00    +0.000 OA
ATOM     26  H   UNL     1      53.921   1.563  18.807  0.00  0.00    +0.000 HD
ATOM     27  H   UNL     1      52.487   0.877  18.125  0.00  0.00    +0.000 HD
ENDBRANCH  17  24
ENDBRANCH  16  20
ENDBRANCH  15  16
ENDBRANCH   1  15
TORSDOF 5
ENDMDL
MODEL 9
REMARK VINA RESULT:    -6.313      3.735      5.775
REMARK INTER + INTRA:          -8.868
REMARK INTER:                  -8.365
REMARK INTRA:                  -0.502
REMARK UNBOUND:                -0.710
REMARK  Name = 
REMARK  5 active torsions:
REMARK  status: ('A' for Active; 'I' for Inactive)
REMARK    1  A    between atoms: C_2  and  C_4
REMARK    2  A    between atoms: C_7  and  C_8
REMARK    3  A    between atoms: C_8  and  O_9
REMARK    4  A    between atoms: O_9  and  C_10
REMARK    5  A    between atoms: C_15  and  C_16
REMARK                            x       y       z     vdW  Elec       q    Type
REMARK                         _______ _______ _______ _____ _____    ______ ____
ROOT
ATOM      1  C   UNL     1      48.684   6.910  14.893  0.00  0.00    +0.000 A 
ATOM      2  C   UNL     1      49.111   8.070  15.529  0.00  0.00    +0.000 A 
ATOM      3  C   UNL     1      49.324   8.053  16.898  0.00  0.00    +0.000 A 
ATOM      4  F   UNL     1      49.751   9.167  17.509  0.00  0.00    +0.000 F 
ATOM      5  C   UNL     1      49.093   6.910  17.655  0.00  0.00    +0.000 A 
ATOM      6  C   UNL     1      48.601   5.745  17.055  0.00  0.00    +0.000 A 
ATOM      7  C   UNL     1      48.447   5.756  15.654  0.00  0.00    +0.000 A 
ENDROOT
BRANCH   6   8
ATOM      8  C   UNL     1      48.229   4.489  17.842  0.00  0.00    +0.000 C 
ATOM      9  C   UNL     1      49.469   3.794  18.446  0.00  0.00    +0.000 C 
ATOM     10  C   UNL     1      50.267   3.038  17.383  0.00  0.00    +0.000 C 
ATOM     11  N   UNL     1      49.453   2.026  16.709  0.00  0.00    +0.000 NA
ATOM     12  C   UNL     1      48.269   2.617  16.089  0.00  0.00    +0.000 C 
ATOM     13  C   UNL     1      47.418   3.418  17.082  0.00  0.00    +0.000 C 
ATOM     14  H   UNL     1      49.161   1.323  17.388  0.00  0.00    +0.000 HD
ENDBRANCH   6   8
BRANCH   1  15
ATOM     15  O   UNL     1      48.456   6.775  13.549  0.00  0.00    +0.000 OA
BRANCH  15  16
ATOM     16  C   UNL     1      47.207   7.278  13.071  0.00  0.00    +0.000 C 
BRANCH  16  20
ATOM     17  C   UNL     1      44.898   4.039  11.381  0.00  0.00    +0.000 A 
ATOM     18  C   UNL     1      45.234   5.138  10.584  0.00  0.00    +0.000 A 
ATOM     19  C   UNL     1      45.975   6.194  11.126  0.00  0.00    +0.000 A 
ATOM     20  C   UNL     1      46.371   6.171  12.469  0.00  0.00    +0.000 A 
ATOM     21  C   UNL     1      46.036   5.061  13.257  0.00  0.00    +0.000 A 
ATOM     22  C   UNL     1      45.295   4.006  12.721  0.00  0.00    +0.000 A 
BRANCH  17  24
ATOM     23  N   UNL     1      44.661   2.165   9.842  0.00  0.00    +0.000 N 
ATOM     24  C   UNL     1      44.107   2.898  10.853  0.00  0.00    +0.000 C 
ATOM     25  O   UNL     1      43.019   2.595  11.328  0.00  0.00    +0.000 OA
ATOM     26  H   UNL     1      44.161   1.329   9.574  0.00  0.00    +0.000 HD
ATOM     27  H   UNL     1      45.644   2.219   9.615  0.00  0.00    +0.000 HD
ENDBRANCH  17  24
ENDBRANCH  16  20
ENDBRANCH  15  16
ENDBRANCH   1  15
TORSDOF 5
ENDMDL
