MODEL 1
REMARK VINA RESULT:    -8.517      0.000      0.000
REMARK INTER + INTRA:         -12.372
REMARK INTER:                 -11.504
REMARK INTRA:                  -0.867
REMARK UNBOUND:                -0.867
REMARK  Name = 
REMARK  6 active torsions:
REMARK  status: ('A' for Active; 'I' for Inactive)
REMARK    1  A    between atoms: C_2  and  C_4
REMARK    2  A    between atoms: C_7  and  N_8
REMARK    3  A    between atoms: N_8  and  C_9
REMARK    4  A    between atoms: C_9  and  C_10
REMARK    5  A    between atoms: C_10  and  C_11
REMARK    6  A    between atoms: C_15  and  C_16
REMARK                            x       y       z     vdW  Elec       q    Type
REMARK                         _______ _______ _______ _____ _____    ______ ____
ROOT
ATOM      1  C   UNL     1      45.241   6.807  12.734  0.00  0.00    +0.000 C 
ENDROOT
BRANCH   1   2
ATOM      2  N   UNL     1      46.618   6.318  12.575  0.00  0.00    +0.000 N 
ATOM      3  H   UNL     1      47.286   7.069  12.425  0.00  0.00    +0.000 HD
BRANCH   2   7
ATOM      4  C   UNL     1      47.780   3.778  15.612  0.00  0.00    +0.000 A 
ATOM      5  C   UNL     1      47.978   5.148  15.713  0.00  0.00    +0.000 A 
ATOM      6  N   UNL     1      47.626   6.018  14.728  0.00  0.00    +0.000 NA
ATOM      7  C   UNL     1      47.066   5.489  13.618  0.00  0.00    +0.000 A 
ATOM      8  C   UNL     1      46.883   4.099  13.534  0.00  0.00    +0.000 A 
ATOM      9  N   UNL     1      47.234   3.209  14.504  0.00  0.00    +0.000 NA
BRANCH   4  11
ATOM     10  N   UNL     1      47.315   2.813  17.804  0.00  0.00    +0.000 N 
ATOM     11  C   UNL     1      48.167   2.884  16.735  0.00  0.00    +0.000 C 
ATOM     12  O   UNL     1      49.199   2.215  16.705  0.00  0.00    +0.000 OA
ATOM     13  H   UNL     1      47.527   2.149  18.537  0.00  0.00    +0.000 HD
ATOM     14  H   UNL     1      46.385   3.216  17.748  0.00  0.00    +0.000 HD
ENDBRANCH   4  11
ENDBRANCH   2   7
ENDBRANCH   1   2
BRANCH   1  15
ATOM     15  C   UNL     1      44.480   6.655  11.408  0.00  0.00    +0.000 C 
BRANCH  15  16
ATOM     16  C   UNL     1      44.332   5.219  10.967  0.00  0.00    +0.000 A 
ATOM     17  C   UNL     1      43.480   4.332  11.623  0.00  0.00    +0.000 A 
ATOM     18  C   UNL     1      43.395   3.026  11.161  0.00  0.00    +0.000 A 
ATOM     19  N   UNL     1      44.094   2.553  10.110  0.00  0.00    +0.000 NA
ATOM     20  C   UNL     1      44.924   3.412   9.468  0.00  0.00    +0.000 A 
ATOM     21  C   UNL     1      45.058   4.743   9.872  0.00  0.00    +0.000 A 
BRANCH  20  22
ATOM     22  C   UNL     1      45.695   2.851   8.344  0.00  0.00    +0.000 A 
ATOM     23  C   UNL     1      46.023   3.624   7.216  0.00  0.00    +0.000 A 
ATOM     24  C   UNL     1      46.787   3.096   6.171  0.00  0.00    +0.000 A 
ATOM     25  C   UNL     1      47.232   1.781   6.234  0.00  0.00    +0.000 A 
ATOM     26  C   UNL     1      46.912   0.990   7.333  0.00  0.00    +0.000 A 
ATOM     27  C   UNL     1      46.147   1.520   8.375  0.00  0.00    +0.000 A 
ENDBRANCH  20  22
ENDBRANCH  15  16
ENDBRANCH   1  15
TORSDOF 6
ENDMDL
MODEL 2
REMARK VINA RESULT:    -8.407      3.361      6.949
REMARK INTER + INTRA:         -12.223
REMARK INTER:                 -11.373
REMARK INTRA:                  -0.850
REMARK UNBOUND:                -0.867
REMARK  Name = 
REMARK  6 active torsions:
REMARK  status: ('A' for Active; 'I' for Inactive)
REMARK    1  A    between atoms: C_2  and  C_4
REMARK    2  A    between atoms: C_7  and  N_8
REMARK    3  A    between atoms: N_8  and  C_9
REMARK    4  A    between atoms: C_9  and  C_10
REMARK    5  A    between atoms: C_10  and  C_11
REMARK    6  A    between atoms: C_15  and  C_16
REMARK                            x       y       z     vdW  Elec       q    Type
REMARK                         _______ _______ _______ _____ _____    ______ ____
ROOT
ATOM      1  C   UNL     1      43.298   4.298  11.067  0.00  0.00    +0.000 C 
ENDROOT
BRANCH   1   2
ATOM      2  N   UNL     1      43.797   4.882   9.814  0.00  0.00    +0.000 N 
ATOM      3  H   UNL     1      44.236   5.788   9.951  0.00  0.00    +0.000 HD
BRANCH   2   7
ATOM      4  C   UNL     1      46.360   2.327   7.830  0.00  0.00    +0.000 A 
ATOM      5  C   UNL     1      46.340   3.684   7.541  0.00  0.00    +0.000 A 
ATOM      6  N   UNL     1      45.499   4.558   8.159  0.00  0.00    +0.000 NA
ATOM      7  C   UNL     1      44.660   4.044   9.085  0.00  0.00    +0.000 A 
ATOM      8  C   UNL     1      44.690   2.667   9.356  0.00  0.00    +0.000 A 
ATOM      9  N   UNL     1      45.519   1.774   8.745  0.00  0.00    +0.000 NA
BRANCH   4  11
ATOM     10  N   UNL     1      48.420   2.009   6.562  0.00  0.00    +0.000 N 
ATOM     11  C   UNL     1      47.320   1.430   7.136  0.00  0.00    +0.000 C 
ATOM     12  O   UNL     1      47.152   0.212   7.089  0.00  0.00    +0.000 OA
ATOM     13  H   UNL     1      49.119   1.401   6.157  0.00  0.00    +0.000 HD
ATOM     14  H   UNL     1      48.651   2.978   6.758  0.00  0.00    +0.000 HD
ENDBRANCH   4  11
ENDBRANCH   2   7
ENDBRANCH   1   2
BRANCH   1  15
ATOM     15  C   UNL     1      43.570   5.261  12.233  0.00  0.00    +0.000 C 
BRANCH  15  16
ATOM     16  C   UNL     1      45.032   5.356  12.598  0.00  0.00    +0.000 A 
ATOM     17  C   UNL     1      45.672   4.363  13.339  0.00  0.00    +0.000 A 
ATOM     18  C   UNL     1      47.019   4.519  13.636  0.00  0.00    +0.000 A 
ATOM     19  N   UNL     1      47.756   5.581  13.254  0.00  0.00    +0.000 NA
ATOM     20  C   UNL     1      47.138   6.548  12.532  0.00  0.00    +0.000 A 
ATOM     21  C   UNL     1      45.787   6.459  12.190  0.00  0.00    +0.000 A 
BRANCH  20  22
ATOM     22  C   UNL     1      47.968   7.708  12.158  0.00  0.00    +0.000 A 
ATOM     23  C   UNL     1      47.448   9.014  12.145  0.00  0.00    +0.000 A 
ATOM     24  C   UNL     1      48.252  10.113  11.828  0.00  0.00    +0.000 A 
ATOM     25  C   UNL     1      49.592   9.922  11.510  0.00  0.00    +0.000 A 
ATOM     26  C   UNL     1      50.130   8.639  11.504  0.00  0.00    +0.000 A 
ATOM     27  C   UNL     1      49.324   7.543  11.821  0.00  0.00    +0.000 A 
ENDBRANCH  20  22
ENDBRANCH  15  16
ENDBRANCH   1  15
TORSDOF 6
ENDMDL
MODEL 3
REMARK VINA RESULT:    -8.140      2.788      7.871
REMARK INTER + INTRA:         -11.863
REMARK INTER:                 -11.240
REMARK INTRA:                  -0.623
REMARK UNBOUND:                -0.867
REMARK  Name = 
REMARK  6 active torsions:
REMARK  status: ('A' for Active; 'I' for Inactive)
REMARK    1  A    between atoms: C_2  and  C_4
REMARK    2  A    between atoms: C_7  and  N_8
REMARK    3  A    between atoms: N_8  and  C_9
REMARK    4  A    between atoms: C_9  and  C_10
REMARK    5  A    between atoms: C_10  and  C_11
REMARK    6  A    between atoms: C_15  and  C_16
REMARK                            x       y       z     vdW  Elec       q    Type
REMARK                         _______ _______ _______ _____ _____    ______ ____
ROOT
ATOM      1  C   UNL     1      44.278   5.508  10.992  0.00  0.00    +0.000 C 
ENDROOT
BRANCH   1   2
ATOM      2  N   UNL     1      43.685   4.735   9.891  0.00  0.00    +0.000 N 
ATOM      3  H   UNL     1      43.094   5.301   9.288  0.00  0.00    +0.000 HD
BRANCH   2   7
ATOM      4  C   UNL     1      46.439   2.540   7.740  0.00  0.00    +0.000 A 
ATOM      5  C   UNL     1      46.396   3.923   7.642  0.00  0.00    +0.000 A 
ATOM      6  N   UNL     1      45.493   4.683   8.320  0.00  0.00    +0.000 NA
ATOM      7  C   UNL     1      44.615   4.027   9.109  0.00  0.00    +0.000 A 
ATOM      8  C   UNL     1      44.670   2.627   9.187  0.00  0.00    +0.000 A 
ATOM      9  N   UNL     1      45.560   1.846   8.512  0.00  0.00    +0.000 NA
BRANCH   4  11
ATOM     10  N   UNL     1      48.508   2.473   6.448  0.00  0.00    +0.000 N 
ATOM     11  C   UNL     1      47.466   1.770   6.990  0.00  0.00    +0.000 C 
ATOM     12  O   UNL     1      47.401   0.547   6.873  0.00  0.00    +0.000 OA
ATOM     13  H   UNL     1      49.252   1.951   6.005  0.00  0.00    +0.000 HD
ATOM     14  H   UNL     1      48.658   3.445   6.700  0.00  0.00    +0.000 HD
ENDBRANCH   4  11
ENDBRANCH   2   7
ENDBRANCH   1   2
BRANCH   1  15
ATOM     15  C   UNL     1      44.837   4.550  12.055  0.00  0.00    +0.000 C 
BRANCH  15  16
ATOM     16  C   UNL     1      46.021   5.116  12.802  0.00  0.00    +0.000 A 
ATOM     17  C   UNL     1      46.836   6.103  12.251  0.00  0.00    +0.000 A 
ATOM     18  C   UNL     1      47.907   6.576  12.996  0.00  0.00    +0.000 A 
ATOM     19  N   UNL     1      48.216   6.134  14.232  0.00  0.00    +0.000 NA
ATOM     20  C   UNL     1      47.427   5.174  14.773  0.00  0.00    +0.000 A 
ATOM     21  C   UNL     1      46.328   4.653  14.085  0.00  0.00    +0.000 A 
BRANCH  20  22
ATOM     22  C   UNL     1      47.814   4.694  16.112  0.00  0.00    +0.000 A 
ATOM     23  C   UNL     1      47.492   3.399  16.554  0.00  0.00    +0.000 A 
ATOM     24  C   UNL     1      47.897   2.938  17.810  0.00  0.00    +0.000 A 
ATOM     25  C   UNL     1      48.626   3.771  18.651  0.00  0.00    +0.000 A 
ATOM     26  C   UNL     1      48.948   5.061  18.244  0.00  0.00    +0.000 A 
ATOM     27  C   UNL     1      48.542   5.519  16.988  0.00  0.00    +0.000 A 
ENDBRANCH  20  22
ENDBRANCH  15  16
ENDBRANCH   1  15
TORSDOF 6
ENDMDL
MODEL 4
REMARK VINA RESULT:    -7.462      1.855      2.375
REMARK INTER + INTRA:         -10.947
REMARK INTER:                 -10.358
REMARK INTRA:                  -0.589
REMARK UNBOUND:                -0.867
REMARK  Name = 
REMARK  6 active torsions:
REMARK  status: ('A' for Active; 'I' for Inactive)
REMARK    1  A    between atoms: C_2  and  C_4
REMARK    2  A    between atoms: C_7  and  N_8
REMARK    3  A    between atoms: N_8  and  C_9
REMARK    4  A    between atoms: C_9  and  C_10
REMARK    5  A    between atoms: C_10  and  C_11
REMARK    6  A    between atoms: C_15  and  C_16
REMARK                            x       y       z     vdW  Elec       q    Type
REMARK                         _______ _______ _______ _____ _____    ______ ____
ROOT
ATOM      1  C   UNL     1      46.783   4.940  13.690  0.00  0.00    +0.000 C 
ENDROOT
BRANCH   1   2
ATOM      2  N   UNL     1      46.550   4.087  14.864  0.00  0.00    +0.000 N 
ATOM      3  H   UNL     1      46.538   3.097  14.633  0.00  0.00    +0.000 HD
BRANCH   2   7
ATOM      4  C   UNL     1      49.012   4.707  18.117  0.00  0.00    +0.000 A 
ATOM      5  C   UNL     1      49.118   5.498  16.982  0.00  0.00    +0.000 A 
ATOM      6  N   UNL     1      48.338   5.316  15.881  0.00  0.00    +0.000 NA
ATOM      7  C   UNL     1      47.437   4.311  15.932  0.00  0.00    +0.000 A 
ATOM      8  C   UNL     1      47.353   3.517  17.087  0.00  0.00    +0.000 A 
ATOM      9  N   UNL     1      48.128   3.677  18.197  0.00  0.00    +0.000 NA
BRANCH   4  11
ATOM     10  N   UNL     1      50.984   4.182  19.455  0.00  0.00    +0.000 N 
ATOM     11  C   UNL     1      49.879   4.974  19.295  0.00  0.00    +0.000 C 
ATOM     12  O   UNL     1      49.632   5.881  20.089  0.00  0.00    +0.000 OA
ATOM     13  H   UNL     1      51.622   4.405  20.207  0.00  0.00    +0.000 HD
ATOM     14  H   UNL     1      51.285   3.563  18.709  0.00  0.00    +0.000 HD
ENDBRANCH   4  11
ENDBRANCH   2   7
ENDBRANCH   1   2
BRANCH   1  15
ATOM     15  C   UNL     1      45.437   5.370  13.087  0.00  0.00    +0.000 C 
BRANCH  15  16
ATOM     16  C   UNL     1      44.868   4.360  12.119  0.00  0.00    +0.000 A 
ATOM     17  C   UNL     1      43.709   3.640  12.404  0.00  0.00    +0.000 A 
ATOM     18  C   UNL     1      43.245   2.729  11.466  0.00  0.00    +0.000 A 
ATOM     19  N   UNL     1      43.850   2.489  10.287  0.00  0.00    +0.000 NA
ATOM     20  C   UNL     1      44.978   3.187  10.004  0.00  0.00    +0.000 A 
ATOM     21  C   UNL     1      45.503   4.125  10.896  0.00  0.00    +0.000 A 
BRANCH  20  22
ATOM     22  C   UNL     1      45.629   2.876   8.719  0.00  0.00    +0.000 A 
ATOM     23  C   UNL     1      45.867   3.869   7.752  0.00  0.00    +0.000 A 
ATOM     24  C   UNL     1      46.520   3.574   6.553  0.00  0.00    +0.000 A 
ATOM     25  C   UNL     1      46.941   2.274   6.295  0.00  0.00    +0.000 A 
ATOM     26  C   UNL     1      46.708   1.269   7.228  0.00  0.00    +0.000 A 
ATOM     27  C   UNL     1      46.055   1.568   8.426  0.00  0.00    +0.000 A 
ENDBRANCH  20  22
ENDBRANCH  15  16
ENDBRANCH   1  15
TORSDOF 6
ENDMDL
MODEL 5
REMARK VINA RESULT:    -7.389      1.754      2.552
REMARK INTER + INTRA:         -10.848
REMARK INTER:                 -10.298
REMARK INTRA:                  -0.550
REMARK UNBOUND:                -0.867
REMARK  Name = 
REMARK  6 active torsions:
REMARK  status: ('A' for Active; 'I' for Inactive)
REMARK    1  A    between atoms: C_2  and  C_4
REMARK    2  A    between atoms: C_7  and  N_8
REMARK    3  A    between atoms: N_8  and  C_9
REMARK    4  A    between atoms: C_9  and  C_10
REMARK    5  A    between atoms: C_10  and  C_11
REMARK    6  A    between atoms: C_15  and  C_16
REMARK                            x       y       z     vdW  Elec       q    Type
REMARK                         _______ _______ _______ _____ _____    ______ ____
ROOT
ATOM      1  C   UNL     1      46.634   4.915  13.824  0.00  0.00    +0.000 C 
ENDROOT
BRANCH   1   2
ATOM      2  N   UNL     1      46.363   4.608  15.236  0.00  0.00    +0.000 N 
ATOM      3  H   UNL     1      45.649   3.895  15.352  0.00  0.00    +0.000 HD
BRANCH   2   7
ATOM      4  C   UNL     1      49.805   3.711  17.328  0.00  0.00    +0.000 A 
ATOM      5  C   UNL     1      48.865   2.730  17.047  0.00  0.00    +0.000 A 
ATOM      6  N   UNL     1      47.709   2.987  16.375  0.00  0.00    +0.000 NA
ATOM      7  C   UNL     1      47.502   4.263  15.985  0.00  0.00    +0.000 A 
ATOM      8  C   UNL     1      48.462   5.242  16.287  0.00  0.00    +0.000 A 
ATOM      9  N   UNL     1      49.622   5.008  16.964  0.00  0.00    +0.000 NA
BRANCH   4  11
ATOM     10  N   UNL     1      51.552   2.095  17.868  0.00  0.00    +0.000 N 
ATOM     11  C   UNL     1      51.059   3.360  18.045  0.00  0.00    +0.000 C 
ATOM     12  O   UNL     1      51.648   4.172  18.756  0.00  0.00    +0.000 OA
ATOM     13  H   UNL     1      52.444   1.871  18.286  0.00  0.00    +0.000 HD
ATOM     14  H   UNL     1      51.172   1.492  17.144  0.00  0.00    +0.000 HD
ENDBRANCH   4  11
ENDBRANCH   2   7
ENDBRANCH   1   2
BRANCH   1  15
ATOM     15  C   UNL     1      45.335   5.353  13.130  0.00  0.00    +0.000 C 
BRANCH  15  16
ATOM     16  C   UNL     1      44.805   4.328  12.156  0.00  0.00    +0.000 A 
ATOM     17  C   UNL     1      43.654   3.587  12.422  0.00  0.00    +0.000 A 
ATOM     18  C   UNL     1      43.226   2.663  11.479  0.00  0.00    +0.000 A 
ATOM     19  N   UNL     1      43.860   2.429  10.313  0.00  0.00    +0.000 NA
ATOM     20  C   UNL     1      44.979   3.147  10.050  0.00  0.00    +0.000 A 
ATOM     21  C   UNL     1      45.468   4.100  10.948  0.00  0.00    +0.000 A 
BRANCH  20  22
ATOM     22  C   UNL     1      45.662   2.843   8.779  0.00  0.00    +0.000 A 
ATOM     23  C   UNL     1      46.097   1.542   8.468  0.00  0.00    +0.000 A 
ATOM     24  C   UNL     1      46.708   1.254   7.245  0.00  0.00    +0.000 A 
ATOM     25  C   UNL     1      46.902   2.266   6.312  0.00  0.00    +0.000 A 
ATOM     26  C   UNL     1      46.492   3.564   6.598  0.00  0.00    +0.000 A 
ATOM     27  C   UNL     1      45.881   3.849   7.822  0.00  0.00    +0.000 A 
ENDBRANCH  20  22
ENDBRANCH  15  16
ENDBRANCH   1  15
TORSDOF 6
ENDMDL
MODEL 6
REMARK VINA RESULT:    -6.950      3.686      7.179
REMARK INTER + INTRA:         -10.255
REMARK INTER:                  -9.537
REMARK INTRA:                  -0.718
REMARK UNBOUND:                -0.867
REMARK  Name = 
REMARK  6 active torsions:
REMARK  status: ('A' for Active; 'I' for Inactive)
REMARK    1  A    between atoms: C_2  and  C_4
REMARK    2  A    between atoms: C_7  and  N_8
REMARK    3  A    between atoms: N_8  and  C_9
REMARK    4  A    between atoms: C_9  and  C_10
REMARK    5  A    between atoms: C_10  and  C_11
REMARK    6  A    between atoms: C_15  and  C_16
REMARK                            x       y       z     vdW  Elec       q    Type
REMARK                         _______ _______ _______ _____ _____    ______ ____
ROOT
ATOM      1  C   UNL     1      43.652   5.072  11.424  0.00  0.00    +0.000 C 
ENDROOT
BRANCH   1   2
ATOM      2  N   UNL     1      43.714   5.082   9.955  0.00  0.00    +0.000 N 
ATOM      3  H   UNL     1      43.996   5.984   9.581  0.00  0.00    +0.000 HD
BRANCH   2   7
ATOM      4  C   UNL     1      46.065   2.204   8.162  0.00  0.00    +0.000 A 
ATOM      5  C   UNL     1      45.059   1.851   9.049  0.00  0.00    +0.000 A 
ATOM      6  N   UNL     1      44.273   2.769   9.676  0.00  0.00    +0.000 NA
ATOM      7  C   UNL     1      44.515   4.069   9.399  0.00  0.00    +0.000 A 
ATOM      8  C   UNL     1      45.544   4.404   8.504  0.00  0.00    +0.000 A 
ATOM      9  N   UNL     1      46.347   3.502   7.872  0.00  0.00    +0.000 NA
BRANCH   4  11
ATOM     10  N   UNL     1      47.716   1.547   6.489  0.00  0.00    +0.000 N 
ATOM     11  C   UNL     1      46.873   1.150   7.493  0.00  0.00    +0.000 C 
ATOM     12  O   UNL     1      46.808  -0.030   7.833  0.00  0.00    +0.000 OA
ATOM     13  H   UNL     1      48.328   0.852   6.082  0.00  0.00    +0.000 HD
ATOM     14  H   UNL     1      47.905   2.532   6.336  0.00  0.00    +0.000 HD
ENDBRANCH   4  11
ENDBRANCH   2   7
ENDBRANCH   1   2
BRANCH   1  15
ATOM     15  C   UNL     1      45.075   5.111  12.004  0.00  0.00    +0.000 C 
BRANCH  15  16
ATOM     16  C   UNL     1      45.611   6.512  12.173  0.00  0.00    +0.000 A 
ATOM     17  C   UNL     1      44.790   7.573  12.552  0.00  0.00    +0.000 A 
ATOM     18  C   UNL     1      45.353   8.834  12.689  0.00  0.00    +0.000 A 
ATOM     19  N   UNL     1      46.656   9.104  12.472  0.00  0.00    +0.000 NA
ATOM     20  C   UNL     1      47.459   8.075  12.103  0.00  0.00    +0.000 A 
ATOM     21  C   UNL     1      46.965   6.777  11.951  0.00  0.00    +0.000 A 
BRANCH  20  22
ATOM     22  C   UNL     1      48.870   8.414  11.845  0.00  0.00    +0.000 A 
ATOM     23  C   UNL     1      49.825   7.424  11.554  0.00  0.00    +0.000 A 
ATOM     24  C   UNL     1      51.153   7.757  11.272  0.00  0.00    +0.000 A 
ATOM     25  C   UNL     1      51.551   9.089  11.283  0.00  0.00    +0.000 A 
ATOM     26  C   UNL     1      50.629  10.088  11.579  0.00  0.00    +0.000 A 
ATOM     27  C   UNL     1      49.302   9.752  11.861  0.00  0.00    +0.000 A 
ENDBRANCH  20  22
ENDBRANCH  15  16
ENDBRANCH   1  15
TORSDOF 6
ENDMDL
MODEL 7
REMARK VINA RESULT:    -6.827      1.584      2.360
REMARK INTER + INTRA:         -10.089
REMARK INTER:                  -9.252
REMARK INTRA:                  -0.837
REMARK UNBOUND:                -0.867
REMARK  Name = 
REMARK  6 active torsions:
REMARK  status: ('A' for Active; 'I' for Inactive)
REMARK    1  A    between atoms: C_2  and  C_4
REMARK    2  A    between atoms: C_7  and  N_8
REMARK    3  A    between atoms: N_8  and  C_9
REMARK    4  A    between atoms: C_9  and  C_10
REMARK    5  A    between atoms: C_10  and  C_11
REMARK    6  A    between atoms: C_15  and  C_16
REMARK                            x       y       z     vdW  Elec       q    Type
REMARK                         _______ _______ _______ _____ _____    ______ ____
ROOT
ATOM      1  C   UNL     1      47.308   8.327  13.632  0.00  0.00    +0.000 C 
ENDROOT
BRANCH   1   2
ATOM      2  N   UNL     1      48.512   7.509  13.838  0.00  0.00    +0.000 N 
ATOM      3  H   UNL     1      49.329   8.066  14.074  0.00  0.00    +0.000 HD
BRANCH   2   7
ATOM      4  C   UNL     1      47.889   4.444  16.530  0.00  0.00    +0.000 A 
ATOM      5  C   UNL     1      48.602   5.578  16.893  0.00  0.00    +0.000 A 
ATOM      6  N   UNL     1      48.845   6.603  16.031  0.00  0.00    +0.000 NA
ATOM      7  C   UNL     1      48.359   6.474  14.777  0.00  0.00    +0.000 A 
ATOM      8  C   UNL     1      47.648   5.315  14.429  0.00  0.00    +0.000 A 
ATOM      9  N   UNL     1      47.399   4.274  15.273  0.00  0.00    +0.000 NA
BRANCH   4  11
ATOM     10  N   UNL     1      48.658   3.058  18.385  0.00  0.00    +0.000 N 
ATOM     11  C   UNL     1      47.638   3.370  17.527  0.00  0.00    +0.000 C 
ATOM     12  O   UNL     1      46.554   2.792  17.598  0.00  0.00    +0.000 OA
ATOM     13  H   UNL     1      48.472   2.386  19.117  0.00  0.00    +0.000 HD
ATOM     14  H   UNL     1      49.477   3.654  18.448  0.00  0.00    +0.000 HD
ENDBRANCH   4  11
ENDBRANCH   2   7
ENDBRANCH   1   2
BRANCH   1  15
ATOM     15  C   UNL     1      46.847   8.213  12.171  0.00  0.00    +0.000 C 
BRANCH  15  16
ATOM     16  C   UNL     1      45.890   7.069  11.937  0.00  0.00    +0.000 A 
ATOM     17  C   UNL     1      44.770   6.869  12.743  0.00  0.00    +0.000 A 
ATOM     18  C   UNL     1      43.935   5.796  12.467  0.00  0.00    +0.000 A 
ATOM     19  N   UNL     1      44.140   4.922  11.462  0.00  0.00    +0.000 NA
ATOM     20  C   UNL     1      45.227   5.112  10.674  0.00  0.00    +0.000 A 
ATOM     21  C   UNL     1      46.111   6.173  10.887  0.00  0.00    +0.000 A 
BRANCH  20  22
ATOM     22  C   UNL     1      45.435   4.119   9.604  0.00  0.00    +0.000 A 
ATOM     23  C   UNL     1      45.127   2.760   9.789  0.00  0.00    +0.000 A 
ATOM     24  C   UNL     1      45.290   1.832   8.757  0.00  0.00    +0.000 A 
ATOM     25  C   UNL     1      45.772   2.247   7.521  0.00  0.00    +0.000 A 
ATOM     26  C   UNL     1      46.096   3.585   7.315  0.00  0.00    +0.000 A 
ATOM     27  C   UNL     1      45.932   4.510   8.348  0.00  0.00    +0.000 A 
ENDBRANCH  20  22
ENDBRANCH  15  16
ENDBRANCH   1  15
TORSDOF 6
ENDMDL
MODEL 8
REMARK VINA RESULT:    -6.754      2.608      3.062
REMARK INTER + INTRA:          -9.990
REMARK INTER:                  -9.456
REMARK INTRA:                  -0.534
REMARK UNBOUND:                -0.867
REMARK  Name = 
REMARK  6 active torsions:
REMARK  status: ('A' for Active; 'I' for Inactive)
REMARK    1  A    between atoms: C_2  and  C_4
REMARK    2  A    between atoms: C_7  and  N_8
REMARK    3  A    between atoms: N_8  and  C_9
REMARK    4  A    between atoms: C_9  and  C_10
REMARK    5  A    between atoms: C_10  and  C_11
REMARK    6  A    between atoms: C_15  and  C_16
REMARK                            x       y       z     vdW  Elec       q    Type
REMARK                         _______ _______ _______ _____ _____    ______ ____
ROOT
ATOM      1  C   UNL     1      44.738   6.658  12.575  0.00  0.00    +0.000 C 
ENDROOT
BRANCH   1   2
ATOM      2  N   UNL     1      46.113   6.560  12.064  0.00  0.00    +0.000 N 
ATOM      3  H   UNL     1      46.217   6.967  11.138  0.00  0.00    +0.000 HD
BRANCH   2   7
ATOM      4  C   UNL     1      49.012   7.935  14.659  0.00  0.00    +0.000 A 
ATOM      5  C   UNL     1      47.893   8.702  14.369  0.00  0.00    +0.000 A 
ATOM      6  N   UNL     1      46.922   8.294  13.505  0.00  0.00    +0.000 NA
ATOM      7  C   UNL     1      47.093   7.087  12.924  0.00  0.00    +0.000 A 
ATOM      8  C   UNL     1      48.237   6.331  13.225  0.00  0.00    +0.000 A 
ATOM      9  N   UNL     1      49.223   6.723  14.080  0.00  0.00    +0.000 NA
BRANCH   4  11
ATOM     10  N   UNL     1      51.129   7.649  15.837  0.00  0.00    +0.000 N 
ATOM     11  C   UNL     1      50.024   8.429  15.629  0.00  0.00    +0.000 C 
ATOM     12  O   UNL     1      49.892   9.504  16.213  0.00  0.00    +0.000 OA
ATOM     13  H   UNL     1      51.860   8.012  16.433  0.00  0.00    +0.000 HD
ATOM     14  H   UNL     1      51.325   6.863  15.226  0.00  0.00    +0.000 HD
ENDBRANCH   4  11
ENDBRANCH   2   7
ENDBRANCH   1   2
BRANCH   1  15
ATOM     15  C   UNL     1      43.744   6.277  11.467  0.00  0.00    +0.000 C 
BRANCH  15  16
ATOM     16  C   UNL     1      43.861   4.836  11.031  0.00  0.00    +0.000 A 
ATOM     17  C   UNL     1      43.191   3.809  11.695  0.00  0.00    +0.000 A 
ATOM     18  C   UNL     1      43.346   2.509  11.237  0.00  0.00    +0.000 A 
ATOM     19  N   UNL     1      44.114   2.169  10.183  0.00  0.00    +0.000 NA
ATOM     20  C   UNL     1      44.768   3.163   9.534  0.00  0.00    +0.000 A 
ATOM     21  C   UNL     1      44.656   4.498   9.933  0.00  0.00    +0.000 A 
BRANCH  20  22
ATOM     22  C   UNL     1      45.622   2.750   8.405  0.00  0.00    +0.000 A 
ATOM     23  C   UNL     1      46.184   1.463   8.338  0.00  0.00    +0.000 A 
ATOM     24  C   UNL     1      46.960   1.066   7.246  0.00  0.00    +0.000 A 
ATOM     25  C   UNL     1      47.195   1.954   6.203  0.00  0.00    +0.000 A 
ATOM     26  C   UNL     1      46.660   3.238   6.249  0.00  0.00    +0.000 A 
ATOM     27  C   UNL     1      45.885   3.632   7.342  0.00  0.00    +0.000 A 
ENDBRANCH  20  22
ENDBRANCH  15  16
ENDBRANCH   1  15
TORSDOF 6
ENDMDL
MODEL 9
REMARK VINA RESULT:    -6.624      2.260      3.798
REMARK INTER + INTRA:          -9.815
REMARK INTER:                  -8.942
REMARK INTRA:                  -0.872
REMARK UNBOUND:                -0.867
REMARK  Name = 
REMARK  6 active torsions:
REMARK  status: ('A' for Active; 'I' for Inactive)
REMARK    1  A    between atoms: C_2  and  C_4
REMARK    2  A    between atoms: C_7  and  N_8
REMARK    3  A    between atoms: N_8  and  C_9
REMARK    4  A    between atoms: C_9  and  C_10
REMARK    5  A    between atoms: C_10  and  C_11
REMARK    6  A    between atoms: C_15  and  C_16
REMARK                            x       y       z     vdW  Elec       q    Type
REMARK                         _______ _______ _______ _____ _____    ______ ____
ROOT
ATOM      1  C   UNL     1      49.513   7.292  13.097  0.00  0.00    +0.000 C 
ENDROOT
BRANCH   1   2
ATOM      2  N   UNL     1      49.812   7.430  14.530  0.00  0.00    +0.000 N 
ATOM      3  H   UNL     1      49.599   8.357  14.887  0.00  0.00    +0.000 HD
BRANCH   2   7
ATOM      4  C   UNL     1      48.207   4.520  16.977  0.00  0.00    +0.000 A 
ATOM      5  C   UNL     1      47.623   4.828  15.757  0.00  0.00    +0.000 A 
ATOM      6  N   UNL     1      48.109   5.792  14.928  0.00  0.00    +0.000 NA
ATOM      7  C   UNL     1      49.207   6.458  15.347  0.00  0.00    +0.000 A 
ATOM      8  C   UNL     1      49.777   6.137  16.589  0.00  0.00    +0.000 A 
ATOM      9  N   UNL     1      49.303   5.181  17.437  0.00  0.00    +0.000 NA
BRANCH   4  11
ATOM     10  N   UNL     1      48.270   3.175  19.012  0.00  0.00    +0.000 N 
ATOM     11  C   UNL     1      47.640   3.439  17.826  0.00  0.00    +0.000 C 
ATOM     12  O   UNL     1      46.633   2.816  17.493  0.00  0.00    +0.000 OA
ATOM     13  H   UNL     1      47.847   2.498  19.632  0.00  0.00    +0.000 HD
ATOM     14  H   UNL     1      48.980   3.806  19.368  0.00  0.00    +0.000 HD
ENDBRANCH   4  11
ENDBRANCH   2   7
ENDBRANCH   1   2
BRANCH   1  15
ATOM     15  C   UNL     1      48.732   8.523  12.609  0.00  0.00    +0.000 C 
BRANCH  15  16
ATOM     16  C   UNL     1      47.320   8.201  12.183  0.00  0.00    +0.000 A 
ATOM     17  C   UNL     1      46.276   9.110  12.351  0.00  0.00    +0.000 A 
ATOM     18  C   UNL     1      45.003   8.746  11.934  0.00  0.00    +0.000 A 
ATOM     19  N   UNL     1      44.707   7.556  11.375  0.00  0.00    +0.000 NA
ATOM     20  C   UNL     1      45.719   6.669  11.208  0.00  0.00    +0.000 A 
ATOM     21  C   UNL     1      47.027   6.966  11.597  0.00  0.00    +0.000 A 
BRANCH  20  22
ATOM     22  C   UNL     1      45.351   5.368  10.620  0.00  0.00    +0.000 A 
ATOM     23  C   UNL     1      45.506   5.107   9.247  0.00  0.00    +0.000 A 
ATOM     24  C   UNL     1      45.192   3.858   8.705  0.00  0.00    +0.000 A 
ATOM     25  C   UNL     1      44.710   2.847   9.528  0.00  0.00    +0.000 A 
ATOM     26  C   UNL     1      44.536   3.081  10.889  0.00  0.00    +0.000 A 
ATOM     27  C   UNL     1      44.850   4.331  11.428  0.00  0.00    +0.000 A 
ENDBRANCH  20  22
ENDBRANCH  15  16
ENDBRANCH   1  15
TORSDOF 6
ENDMDL
