MODEL 1
REMARK VINA RESULT:    -8.583      0.000      0.000
REMARK INTER + INTRA:         -12.828
REMARK INTER:                 -11.844
REMARK INTRA:                  -0.985
REMARK UNBOUND:                -0.985
REMARK  Name = 
REMARK  7 active torsions:
REMARK  status: ('A' for Active; 'I' for Inactive)
REMARK    1  A    between atoms: N_1  and  C_2
REMARK    2  A    between atoms: C_2  and  N_3
REMARK    3  A    between atoms: C_2  and  C_16
REMARK    4  A    between atoms: C_4  and  C_6
REMARK    5  A    between atoms: C_19  and  O_20
REMARK    6  A    between atoms: O_20  and  C_21
REMARK    7  A    between atoms: C_21  and  C_22
REMARK                            x       y       z     vdW  Elec       q    Type
REMARK                         _______ _______ _______ _____ _____    ______ ____
ROOT
ATOM      1  C   UNL     1      46.908   7.820  13.145  0.00  0.00    +0.000 C 
ENDROOT
BRANCH   1   2
ATOM      2  C   UNL     1      46.122   6.883  12.248  0.00  0.00    +0.000 A 
ATOM      3  C   UNL     1      46.506   6.639  10.918  0.00  0.00    +0.000 A 
ATOM      4  C   UNL     1      45.830   5.699  10.133  0.00  0.00    +0.000 A 
ATOM      5  C   UNL     1      44.773   4.967  10.672  0.00  0.00    +0.000 A 
ATOM      6  C   UNL     1      44.350   5.231  11.972  0.00  0.00    +0.000 A 
ATOM      7  C   UNL     1      45.035   6.156  12.759  0.00  0.00    +0.000 A 
BRANCH   5   8
ATOM      8  O   UNL     1      44.234   4.007   9.859  0.00  0.00    +0.000 OA
BRANCH   8   9
ATOM      9  C   UNL     1      44.906   2.742   9.917  0.00  0.00    +0.000 C 
BRANCH   9  10
ATOM     10  C   UNL     1      45.618   2.461   8.620  0.00  0.00    +0.000 A 
ATOM     11  C   UNL     1      45.742   3.467   7.661  0.00  0.00    +0.000 A 
ATOM     12  C   UNL     1      46.469   3.206   6.506  0.00  0.00    +0.000 A 
ATOM     13  C   UNL     1      47.053   1.957   6.341  0.00  0.00    +0.000 A 
ATOM     14  C   UNL     1      46.888   1.016   7.338  0.00  0.00    +0.000 A 
ATOM     15  N   UNL     1      46.194   1.241   8.474  0.00  0.00    +0.000 NA
ENDBRANCH   9  10
ENDBRANCH   8   9
ENDBRANCH   5   8
ENDBRANCH   1   2
BRANCH   1  16
ATOM     16  N   UNL     1      47.342   7.188  14.353  0.00  0.00    +0.000 N 
ATOM     17  C   UNL     1      48.641   6.791  14.544  0.00  0.00    +0.000 C 
ATOM     18  O   UNL     1      49.524   7.010  13.720  0.00  0.00    +0.000 OA
ATOM     19  H   UNL     1      46.614   6.796  14.938  0.00  0.00    +0.000 HD
BRANCH  17  20
ATOM     20  C   UNL     1      48.947   6.152  15.828  0.00  0.00    +0.000 A 
ATOM     21  C   UNL     1      49.981   6.655  16.608  0.00  0.00    +0.000 A 
ATOM     22  S   UNL     1      50.175   5.844  18.095  0.00  0.00    +0.000 S 
ATOM     23  C   UNL     1      48.924   4.753  17.724  0.00  0.00    +0.000 A 
ATOM     24  N   UNL     1      48.586   3.759  18.589  0.00  0.00    +0.000 NA
ATOM     25  C   UNL     1      47.652   2.976  18.163  0.00  0.00    +0.000 A 
ATOM     26  N   UNL     1      47.021   3.101  16.952  0.00  0.00    +0.000 N 
ATOM     27  C   UNL     1      47.292   4.122  16.072  0.00  0.00    +0.000 A 
ATOM     28  O   UNL     1      46.657   4.259  15.033  0.00  0.00    +0.000 OA
ATOM     29  C   UNL     1      48.353   5.015  16.491  0.00  0.00    +0.000 A 
ATOM     30  H   UNL     1      46.287   2.460  16.686  0.00  0.00    +0.000 HD
ENDBRANCH  17  20
ENDBRANCH   1  16
BRANCH   1  31
ATOM     31  N   UNL     1      46.111   8.920  13.646  0.00  0.00    +0.000 NA
ATOM     32  H   UNL     1      45.438   8.519  14.295  0.00  0.00    +0.000 HD
ATOM     33  H   UNL     1      45.569   9.286  12.870  0.00  0.00    +0.000 HD
ENDBRANCH   1  31
TORSDOF 7
ENDMDL
MODEL 2
REMARK VINA RESULT:    -8.442      1.834      2.232
REMARK INTER + INTRA:         -12.634
REMARK INTER:                 -11.597
REMARK INTRA:                  -1.037
REMARK UNBOUND:                -0.985
REMARK  Name = 
REMARK  7 active torsions:
REMARK  status: ('A' for Active; 'I' for Inactive)
REMARK    1  A    between atoms: N_1  and  C_2
REMARK    2  A    between atoms: C_2  and  N_3
REMARK    3  A    between atoms: C_2  and  C_16
REMARK    4  A    between atoms: C_4  and  C_6
REMARK    5  A    between atoms: C_19  and  O_20
REMARK    6  A    between atoms: O_20  and  C_21
REMARK    7  A    between atoms: C_21  and  C_22
REMARK                            x       y       z     vdW  Elec       q    Type
REMARK                         _______ _______ _______ _____ _____    ______ ____
ROOT
ATOM      1  C   UNL     1      47.430   6.615  13.488  0.00  0.00    +0.000 C 
ENDROOT
BRANCH   1   2
ATOM      2  C   UNL     1      46.473   5.884  12.565  0.00  0.00    +0.000 A 
ATOM      3  C   UNL     1      46.148   6.386  11.292  0.00  0.00    +0.000 A 
ATOM      4  C   UNL     1      45.344   5.654  10.413  0.00  0.00    +0.000 A 
ATOM      5  C   UNL     1      44.868   4.396  10.781  0.00  0.00    +0.000 A 
ATOM      6  C   UNL     1      45.141   3.907  12.057  0.00  0.00    +0.000 A 
ATOM      7  C   UNL     1      45.958   4.630  12.925  0.00  0.00    +0.000 A 
BRANCH   5   8
ATOM      8  O   UNL     1      44.167   3.717   9.822  0.00  0.00    +0.000 OA
BRANCH   8   9
ATOM      9  C   UNL     1      44.602   2.365   9.621  0.00  0.00    +0.000 C 
BRANCH   9  10
ATOM     10  C   UNL     1      45.524   2.278   8.433  0.00  0.00    +0.000 A 
ATOM     11  C   UNL     1      45.655   3.367   7.571  0.00  0.00    +0.000 A 
ATOM     12  C   UNL     1      46.569   3.289   6.527  0.00  0.00    +0.000 A 
ATOM     13  C   UNL     1      47.326   2.135   6.374  0.00  0.00    +0.000 A 
ATOM     14  C   UNL     1      47.140   1.102   7.273  0.00  0.00    +0.000 A 
ATOM     15  N   UNL     1      46.266   1.150   8.300  0.00  0.00    +0.000 NA
ENDBRANCH   9  10
ENDBRANCH   8   9
ENDBRANCH   5   8
ENDBRANCH   1   2
BRANCH   1  16
ATOM     16  N   UNL     1      47.465   6.049  14.801  0.00  0.00    +0.000 N 
ATOM     17  C   UNL     1      48.593   6.085  15.582  0.00  0.00    +0.000 C 
ATOM     18  O   UNL     1      49.619   6.659  15.231  0.00  0.00    +0.000 OA
ATOM     19  H   UNL     1      46.732   5.386  15.022  0.00  0.00    +0.000 HD
BRANCH  17  20
ATOM     20  C   UNL     1      48.490   5.461  16.906  0.00  0.00    +0.000 A 
ATOM     21  C   UNL     1      48.595   4.081  17.016  0.00  0.00    +0.000 A 
ATOM     22  S   UNL     1      48.516   3.513  18.622  0.00  0.00    +0.000 S 
ATOM     23  C   UNL     1      48.277   5.087  19.223  0.00  0.00    +0.000 A 
ATOM     24  N   UNL     1      48.108   5.307  20.554  0.00  0.00    +0.000 NA
ATOM     25  C   UNL     1      47.891   6.541  20.867  0.00  0.00    +0.000 A 
ATOM     26  N   UNL     1      47.836   7.576  19.969  0.00  0.00    +0.000 N 
ATOM     27  C   UNL     1      48.056   7.407  18.622  0.00  0.00    +0.000 A 
ATOM     28  O   UNL     1      48.082   8.359  17.852  0.00  0.00    +0.000 OA
ATOM     29  C   UNL     1      48.278   6.034  18.214  0.00  0.00    +0.000 A 
ATOM     30  H   UNL     1      47.675   8.522  20.284  0.00  0.00    +0.000 HD
ENDBRANCH  17  20
ENDBRANCH   1  16
BRANCH   1  31
ATOM     31  N   UNL     1      47.022   7.979  13.756  0.00  0.00    +0.000 NA
ATOM     32  H   UNL     1      47.151   8.130  14.754  0.00  0.00    +0.000 HD
ATOM     33  H   UNL     1      46.022   8.039  13.590  0.00  0.00    +0.000 HD
ENDBRANCH   1  31
TORSDOF 7
ENDMDL
MODEL 3
REMARK VINA RESULT:    -8.098      1.672      1.905
REMARK INTER + INTRA:         -12.160
REMARK INTER:                 -11.156
REMARK INTRA:                  -1.003
REMARK UNBOUND:                -0.985
REMARK  Name = 
REMARK  7 active torsions:
REMARK  status: ('A' for Active; 'I' for Inactive)
REMARK    1  A    between atoms: N_1  and  C_2
REMARK    2  A    between atoms: C_2  and  N_3
REMARK    3  A    between atoms: C_2  and  C_16
REMARK    4  A    between atoms: C_4  and  C_6
REMARK    5  A    between atoms: C_19  and  O_20
REMARK    6  A    between atoms: O_20  and  C_21
REMARK    7  A    between atoms: C_21  and  C_22
REMARK                            x       y       z     vdW  Elec       q    Type
REMARK                         _______ _______ _______ _____ _____    ______ ____
ROOT
ATOM      1  C   UNL     1      48.320   6.581  13.461  0.00  0.00    +0.000 C 
ENDROOT
BRANCH   1   2
ATOM      2  C   UNL     1      47.138   6.005  12.704  0.00  0.00    +0.000 A 
ATOM      3  C   UNL     1      46.692   6.566  11.494  0.00  0.00    +0.000 A 
ATOM      4  C   UNL     1      45.666   5.967  10.757  0.00  0.00    +0.000 A 
ATOM      5  C   UNL     1      45.082   4.783  11.204  0.00  0.00    +0.000 A 
ATOM      6  C   UNL     1      45.479   4.241  12.424  0.00  0.00    +0.000 A 
ATOM      7  C   UNL     1      46.514   4.829  13.149  0.00  0.00    +0.000 A 
BRANCH   5   8
ATOM      8  O   UNL     1      44.152   4.222  10.371  0.00  0.00    +0.000 OA
BRANCH   8   9
ATOM      9  C   UNL     1      44.367   2.831  10.099  0.00  0.00    +0.000 C 
BRANCH   9  10
ATOM     10  C   UNL     1      45.241   2.659   8.885  0.00  0.00    +0.000 A 
ATOM     11  C   UNL     1      45.442   3.729   8.013  0.00  0.00    +0.000 A 
ATOM     12  C   UNL     1      46.314   3.567   6.942  0.00  0.00    +0.000 A 
ATOM     13  C   UNL     1      46.960   2.350   6.773  0.00  0.00    +0.000 A 
ATOM     14  C   UNL     1      46.711   1.341   7.683  0.00  0.00    +0.000 A 
ATOM     15  N   UNL     1      45.876   1.469   8.736  0.00  0.00    +0.000 NA
ENDBRANCH   9  10
ENDBRANCH   8   9
ENDBRANCH   5   8
ENDBRANCH   1   2
BRANCH   1  16
ATOM     16  N   UNL     1      48.092   6.639  14.872  0.00  0.00    +0.000 N 
ATOM     17  C   UNL     1      49.121   6.682  15.778  0.00  0.00    +0.000 C 
ATOM     18  O   UNL     1      50.298   6.736  15.435  0.00  0.00    +0.000 OA
ATOM     19  H   UNL     1      47.167   6.370  15.187  0.00  0.00    +0.000 HD
BRANCH  17  20
ATOM     20  C   UNL     1      48.743   6.735  17.195  0.00  0.00    +0.000 A 
ATOM     21  C   UNL     1      48.285   7.932  17.730  0.00  0.00    +0.000 A 
ATOM     22  S   UNL     1      47.831   7.820  19.369  0.00  0.00    +0.000 S 
ATOM     23  C   UNL     1      48.287   6.183  19.439  0.00  0.00    +0.000 A 
ATOM     24  N   UNL     1      48.174   5.476  20.596  0.00  0.00    +0.000 NA
ATOM     25  C   UNL     1      48.598   4.259  20.520  0.00  0.00    +0.000 A 
ATOM     26  N   UNL     1      49.119   3.683  19.390  0.00  0.00    +0.000 N 
ATOM     27  C   UNL     1      49.201   4.342  18.187  0.00  0.00    +0.000 A 
ATOM     28  O   UNL     1      49.594   3.780  17.172  0.00  0.00    +0.000 OA
ATOM     29  C   UNL     1      48.761   5.723  18.224  0.00  0.00    +0.000 A 
ATOM     30  H   UNL     1      49.421   2.719  19.397  0.00  0.00    +0.000 HD
ENDBRANCH  17  20
ENDBRANCH   1  16
BRANCH   1  31
ATOM     31  N   UNL     1      48.574   7.968  13.137  0.00  0.00    +0.000 NA
ATOM     32  H   UNL     1      48.690   8.014  12.127  0.00  0.00    +0.000 HD
ATOM     33  H   UNL     1      49.475   8.217  13.534  0.00  0.00    +0.000 HD
ENDBRANCH   1  31
TORSDOF 7
ENDMDL
MODEL 4
REMARK VINA RESULT:    -7.682      2.731      4.414
REMARK INTER + INTRA:         -11.586
REMARK INTER:                 -10.256
REMARK INTRA:                  -1.329
REMARK UNBOUND:                -0.985
REMARK  Name = 
REMARK  7 active torsions:
REMARK  status: ('A' for Active; 'I' for Inactive)
REMARK    1  A    between atoms: N_1  and  C_2
REMARK    2  A    between atoms: C_2  and  N_3
REMARK    3  A    between atoms: C_2  and  C_16
REMARK    4  A    between atoms: C_4  and  C_6
REMARK    5  A    between atoms: C_19  and  O_20
REMARK    6  A    between atoms: O_20  and  C_21
REMARK    7  A    between atoms: C_21  and  C_22
REMARK                            x       y       z     vdW  Elec       q    Type
REMARK                         _______ _______ _______ _____ _____    ______ ____
ROOT
ATOM      1  C   UNL     1      47.162   5.957  14.206  0.00  0.00    +0.000 C 
ENDROOT
BRANCH   1   2
ATOM      2  C   UNL     1      46.477   5.403  12.971  0.00  0.00    +0.000 A 
ATOM      3  C   UNL     1      45.823   4.159  12.985  0.00  0.00    +0.000 A 
ATOM      4  C   UNL     1      45.112   3.706  11.870  0.00  0.00    +0.000 A 
ATOM      5  C   UNL     1      45.022   4.499  10.727  0.00  0.00    +0.000 A 
ATOM      6  C   UNL     1      45.704   5.712  10.680  0.00  0.00    +0.000 A 
ATOM      7  C   UNL     1      46.398   6.171  11.799  0.00  0.00    +0.000 A 
BRANCH   5   8
ATOM      8  O   UNL     1      44.229   4.014   9.722  0.00  0.00    +0.000 OA
BRANCH   8   9
ATOM      9  C   UNL     1      44.408   2.617   9.453  0.00  0.00    +0.000 C 
BRANCH   9  10
ATOM     10  C   UNL     1      45.450   2.414   8.384  0.00  0.00    +0.000 A 
ATOM     11  C   UNL     1      45.779   3.461   7.523  0.00  0.00    +0.000 A 
ATOM     12  C   UNL     1      46.797   3.272   6.596  0.00  0.00    +0.000 A 
ATOM     13  C   UNL     1      47.458   2.051   6.556  0.00  0.00    +0.000 A 
ATOM     14  C   UNL     1      47.077   1.066   7.446  0.00  0.00    +0.000 A 
ATOM     15  N   UNL     1      46.097   1.221   8.362  0.00  0.00    +0.000 NA
ENDBRANCH   9  10
ENDBRANCH   8   9
ENDBRANCH   5   8
ENDBRANCH   1   2
BRANCH   1  16
ATOM     16  N   UNL     1      48.443   6.522  13.916  0.00  0.00    +0.000 N 
ATOM     17  C   UNL     1      49.067   7.398  14.769  0.00  0.00    +0.000 C 
ATOM     18  O   UNL     1      48.596   7.700  15.861  0.00  0.00    +0.000 OA
ATOM     19  H   UNL     1      48.744   6.476  12.949  0.00  0.00    +0.000 HD
BRANCH  17  20
ATOM     20  C   UNL     1      50.376   7.904  14.344  0.00  0.00    +0.000 A 
ATOM     21  C   UNL     1      51.467   7.762  15.193  0.00  0.00    +0.000 A 
ATOM     22  S   UNL     1      52.927   8.346  14.535  0.00  0.00    +0.000 S 
ATOM     23  C   UNL     1      52.144   8.864  13.117  0.00  0.00    +0.000 A 
ATOM     24  N   UNL     1      52.837   9.485  12.124  0.00  0.00    +0.000 NA
ATOM     25  C   UNL     1      52.111   9.866  11.126  0.00  0.00    +0.000 A 
ATOM     26  N   UNL     1      50.757   9.675  11.028  0.00  0.00    +0.000 N 
ATOM     27  C   UNL     1      50.027   9.005  11.980  0.00  0.00    +0.000 A 
ATOM     28  O   UNL     1      48.833   8.776  11.830  0.00  0.00    +0.000 OA
ATOM     29  C   UNL     1      50.790   8.578  13.136  0.00  0.00    +0.000 A 
ATOM     30  H   UNL     1      50.251   9.988  10.210  0.00  0.00    +0.000 HD
ENDBRANCH  17  20
ENDBRANCH   1  16
BRANCH   1  31
ATOM     31  N   UNL     1      47.494   4.932  15.173  0.00  0.00    +0.000 NA
ATOM     32  H   UNL     1      48.338   4.475  14.834  0.00  0.00    +0.000 HD
ATOM     33  H   UNL     1      46.761   4.229  15.140  0.00  0.00    +0.000 HD
ENDBRANCH   1  31
TORSDOF 7
ENDMDL
MODEL 5
REMARK VINA RESULT:    -7.659      2.155      3.870
REMARK INTER + INTRA:         -11.554
REMARK INTER:                 -10.302
REMARK INTRA:                  -1.251
REMARK UNBOUND:                -0.985
REMARK  Name = 
REMARK  7 active torsions:
REMARK  status: ('A' for Active; 'I' for Inactive)
REMARK    1  A    between atoms: N_1  and  C_2
REMARK    2  A    between atoms: C_2  and  N_3
REMARK    3  A    between atoms: C_2  and  C_16
REMARK    4  A    between atoms: C_4  and  C_6
REMARK    5  A    between atoms: C_19  and  O_20
REMARK    6  A    between atoms: O_20  and  C_21
REMARK    7  A    between atoms: C_21  and  C_22
REMARK                            x       y       z     vdW  Elec       q    Type
REMARK                         _______ _______ _______ _____ _____    ______ ____
ROOT
ATOM      1  C   UNL     1      46.780   4.764  14.660  0.00  0.00    +0.000 C 
ENDROOT
BRANCH   1   2
ATOM      2  C   UNL     1      46.228   4.627  13.253  0.00  0.00    +0.000 A 
ATOM      3  C   UNL     1      45.662   3.424  12.795  0.00  0.00    +0.000 A 
ATOM      4  C   UNL     1      45.070   3.342  11.532  0.00  0.00    +0.000 A 
ATOM      5  C   UNL     1      45.011   4.467  10.710  0.00  0.00    +0.000 A 
ATOM      6  C   UNL     1      45.610   5.652  11.129  0.00  0.00    +0.000 A 
ATOM      7  C   UNL     1      46.184   5.738  12.397  0.00  0.00    +0.000 A 
BRANCH   5   8
ATOM      8  O   UNL     1      44.331   4.314   9.532  0.00  0.00    +0.000 OA
BRANCH   8   9
ATOM      9  C   UNL     1      44.328   2.973   9.024  0.00  0.00    +0.000 C 
BRANCH   9  10
ATOM     10  C   UNL     1      45.516   2.745   8.126  0.00  0.00    +0.000 A 
ATOM     11  C   UNL     1      46.196   1.528   8.166  0.00  0.00    +0.000 A 
ATOM     12  C   UNL     1      47.240   1.314   7.274  0.00  0.00    +0.000 A 
ATOM     13  C   UNL     1      47.573   2.313   6.369  0.00  0.00    +0.000 A 
ATOM     14  C   UNL     1      46.848   3.488   6.390  0.00  0.00    +0.000 A 
ATOM     15  N   UNL     1      45.825   3.724   7.238  0.00  0.00    +0.000 NA
ENDBRANCH   9  10
ENDBRANCH   8   9
ENDBRANCH   5   8
ENDBRANCH   1   2
BRANCH   1  16
ATOM     16  N   UNL     1      47.866   5.691  14.736  0.00  0.00    +0.000 N 
ATOM     17  C   UNL     1      48.453   6.033  15.928  0.00  0.00    +0.000 C 
ATOM     18  O   UNL     1      48.127   5.519  16.993  0.00  0.00    +0.000 OA
ATOM     19  H   UNL     1      48.000   6.289  13.929  0.00  0.00    +0.000 HD
BRANCH  17  20
ATOM     20  C   UNL     1      49.555   6.999  15.860  0.00  0.00    +0.000 A 
ATOM     21  C   UNL     1      50.774   6.680  16.444  0.00  0.00    +0.000 A 
ATOM     22  S   UNL     1      51.970   7.877  16.231  0.00  0.00    +0.000 S 
ATOM     23  C   UNL     1      50.883   8.891  15.404  0.00  0.00    +0.000 A 
ATOM     24  N   UNL     1      51.274  10.115  14.957  0.00  0.00    +0.000 NA
ATOM     25  C   UNL     1      50.338  10.798  14.387  0.00  0.00    +0.000 A 
ATOM     26  N   UNL     1      49.048  10.365  14.218  0.00  0.00    +0.000 N 
ATOM     27  C   UNL     1      48.624   9.116  14.605  0.00  0.00    +0.000 A 
ATOM     28  O   UNL     1      47.488   8.722  14.370  0.00  0.00    +0.000 OA
ATOM     29  C   UNL     1      49.631   8.317  15.275  0.00  0.00    +0.000 A 
ATOM     30  H   UNL     1      48.367  10.947  13.751  0.00  0.00    +0.000 HD
ENDBRANCH  17  20
ENDBRANCH   1  16
BRANCH   1  31
ATOM     31  N   UNL     1      47.387   3.543  15.147  0.00  0.00    +0.000 NA
ATOM     32  H   UNL     1      46.625   2.943  15.456  0.00  0.00    +0.000 HD
ATOM     33  H   UNL     1      47.917   3.775  15.981  0.00  0.00    +0.000 HD
ENDBRANCH   1  31
TORSDOF 7
ENDMDL
MODEL 6
REMARK VINA RESULT:    -7.372      3.227      5.597
REMARK INTER + INTRA:         -11.158
REMARK INTER:                  -9.811
REMARK INTRA:                  -1.347
REMARK UNBOUND:                -0.985
REMARK  Name = 
REMARK  7 active torsions:
REMARK  status: ('A' for Active; 'I' for Inactive)
REMARK    1  A    between atoms: N_1  and  C_2
REMARK    2  A    between atoms: C_2  and  N_3
REMARK    3  A    between atoms: C_2  and  C_16
REMARK    4  A    between atoms: C_4  and  C_6
REMARK    5  A    between atoms: C_19  and  O_20
REMARK    6  A    between atoms: O_20  and  C_21
REMARK    7  A    between atoms: C_21  and  C_22
REMARK                            x       y       z     vdW  Elec       q    Type
REMARK                         _______ _______ _______ _____ _____    ______ ____
ROOT
ATOM      1  C   UNL     1      47.189   6.645  13.627  0.00  0.00    +0.000 C 
ENDROOT
BRANCH   1   2
ATOM      2  C   UNL     1      46.367   5.656  12.822  0.00  0.00    +0.000 A 
ATOM      3  C   UNL     1      45.767   6.015  11.602  0.00  0.00    +0.000 A 
ATOM      4  C   UNL     1      45.095   5.068  10.823  0.00  0.00    +0.000 A 
ATOM      5  C   UNL     1      45.031   3.738  11.237  0.00  0.00    +0.000 A 
ATOM      6  C   UNL     1      45.578   3.377  12.466  0.00  0.00    +0.000 A 
ATOM      7  C   UNL     1      46.262   4.318  13.233  0.00  0.00    +0.000 A 
BRANCH   5   8
ATOM      8  O   UNL     1      44.434   2.868  10.366  0.00  0.00    +0.000 OA
BRANCH   8   9
ATOM      9  C   UNL     1      44.458   3.295   8.998  0.00  0.00    +0.000 C 
BRANCH   9  10
ATOM     10  C   UNL     1      45.643   2.703   8.280  0.00  0.00    +0.000 A 
ATOM     11  C   UNL     1      45.867   1.327   8.322  0.00  0.00    +0.000 A 
ATOM     12  C   UNL     1      46.923   0.797   7.588  0.00  0.00    +0.000 A 
ATOM     13  C   UNL     1      47.719   1.650   6.836  0.00  0.00    +0.000 A 
ATOM     14  C   UNL     1      47.429   3.000   6.843  0.00  0.00    +0.000 A 
ATOM     15  N   UNL     1      46.408   3.544   7.539  0.00  0.00    +0.000 NA
ENDBRANCH   9  10
ENDBRANCH   8   9
ENDBRANCH   5   8
ENDBRANCH   1   2
BRANCH   1  16
ATOM     16  N   UNL     1      47.411   7.872  12.927  0.00  0.00    +0.000 N 
ATOM     17  C   UNL     1      47.795   9.022  13.570  0.00  0.00    +0.000 C 
ATOM     18  O   UNL     1      48.033   9.054  14.773  0.00  0.00    +0.000 OA
ATOM     19  H   UNL     1      47.011   7.935  11.998  0.00  0.00    +0.000 HD
BRANCH  17  20
ATOM     20  C   UNL     1      47.984  10.209  12.729  0.00  0.00    +0.000 A 
ATOM     21  C   UNL     1      49.218  10.845  12.721  0.00  0.00    +0.000 A 
ATOM     22  S   UNL     1      49.298  12.171  11.653  0.00  0.00    +0.000 S 
ATOM     23  C   UNL     1      47.668  11.980  11.208  0.00  0.00    +0.000 A 
ATOM     24  N   UNL     1      47.083  12.828  10.320  0.00  0.00    +0.000 NA
ATOM     25  C   UNL     1      45.830  12.596  10.107  0.00  0.00    +0.000 A 
ATOM     26  N   UNL     1      45.112  11.589  10.698  0.00  0.00    +0.000 N 
ATOM     27  C   UNL     1      45.675  10.676  11.558  0.00  0.00    +0.000 A 
ATOM     28  O   UNL     1      45.031   9.736  12.009  0.00  0.00    +0.000 OA
ATOM     29  C   UNL     1      47.076  10.908  11.851  0.00  0.00    +0.000 A 
ATOM     30  H   UNL     1      44.135  11.456  10.477  0.00  0.00    +0.000 HD
ENDBRANCH  17  20
ENDBRANCH   1  16
BRANCH   1  31
ATOM     31  N   UNL     1      48.539   6.185  13.873  0.00  0.00    +0.000 NA
ATOM     32  H   UNL     1      48.625   5.279  13.418  0.00  0.00    +0.000 HD
ATOM     33  H   UNL     1      48.628   6.009  14.869  0.00  0.00    +0.000 HD
ENDBRANCH   1  31
TORSDOF 7
ENDMDL
MODEL 7
REMARK VINA RESULT:    -7.366      3.496      5.461
REMARK INTER + INTRA:         -11.149
REMARK INTER:                  -9.870
REMARK INTRA:                  -1.279
REMARK UNBOUND:                -0.985
REMARK  Name = 
REMARK  7 active torsions:
REMARK  status: ('A' for Active; 'I' for Inactive)
REMARK    1  A    between atoms: N_1  and  C_2
REMARK    2  A    between atoms: C_2  and  N_3
REMARK    3  A    between atoms: C_2  and  C_16
REMARK    4  A    between atoms: C_4  and  C_6
REMARK    5  A    between atoms: C_19  and  O_20
REMARK    6  A    between atoms: O_20  and  C_21
REMARK    7  A    between atoms: C_21  and  C_22
REMARK                            x       y       z     vdW  Elec       q    Type
REMARK                         _______ _______ _______ _____ _____    ______ ____
ROOT
ATOM      1  C   UNL     1      47.255   6.731  13.574  0.00  0.00    +0.000 C 
ENDROOT
BRANCH   1   2
ATOM      2  C   UNL     1      46.443   5.689  12.827  0.00  0.00    +0.000 A 
ATOM      3  C   UNL     1      45.864   5.964  11.575  0.00  0.00    +0.000 A 
ATOM      4  C   UNL     1      45.203   4.965  10.853  0.00  0.00    +0.000 A 
ATOM      5  C   UNL     1      45.127   3.668  11.359  0.00  0.00    +0.000 A 
ATOM      6  C   UNL     1      45.653   3.393  12.619  0.00  0.00    +0.000 A 
ATOM      7  C   UNL     1      46.327   4.384  13.329  0.00  0.00    +0.000 A 
BRANCH   5   8
ATOM      8  O   UNL     1      44.542   2.740  10.541  0.00  0.00    +0.000 OA
BRANCH   8   9
ATOM      9  C   UNL     1      44.393   3.164   9.180  0.00  0.00    +0.000 C 
BRANCH   9  10
ATOM     10  C   UNL     1      45.507   2.611   8.329  0.00  0.00    +0.000 A 
ATOM     11  C   UNL     1      46.256   3.465   7.519  0.00  0.00    +0.000 A 
ATOM     12  C   UNL     1      47.327   2.943   6.803  0.00  0.00    +0.000 A 
ATOM     13  C   UNL     1      47.621   1.591   6.916  0.00  0.00    +0.000 A 
ATOM     14  C   UNL     1      46.835   0.812   7.742  0.00  0.00    +0.000 A 
ATOM     15  N   UNL     1      45.793   1.290   8.456  0.00  0.00    +0.000 NA
ENDBRANCH   9  10
ENDBRANCH   8   9
ENDBRANCH   5   8
ENDBRANCH   1   2
BRANCH   1  16
ATOM     16  N   UNL     1      47.767   7.750  12.711  0.00  0.00    +0.000 N 
ATOM     17  C   UNL     1      48.047   9.016  13.161  0.00  0.00    +0.000 C 
ATOM     18  O   UNL     1      47.938   9.334  14.341  0.00  0.00    +0.000 OA
ATOM     19  H   UNL     1      47.652   7.593  11.717  0.00  0.00    +0.000 HD
BRANCH  17  20
ATOM     20  C   UNL     1      48.563   9.963  12.167  0.00  0.00    +0.000 A 
ATOM     21  C   UNL     1      47.793  11.065  11.817  0.00  0.00    +0.000 A 
ATOM     22  S   UNL     1      48.552  12.102  10.696  0.00  0.00    +0.000 S 
ATOM     23  C   UNL     1      49.911  11.085  10.593  0.00  0.00    +0.000 A 
ATOM     24  N   UNL     1      50.949  11.389   9.769  0.00  0.00    +0.000 NA
ATOM     25  C   UNL     1      51.894  10.508   9.754  0.00  0.00    +0.000 A 
ATOM     26  N   UNL     1      51.897   9.354  10.495  0.00  0.00    +0.000 N 
ATOM     27  C   UNL     1      50.895   9.034  11.381  0.00  0.00    +0.000 A 
ATOM     28  O   UNL     1      50.961   8.038  12.091  0.00  0.00    +0.000 OA
ATOM     29  C   UNL     1      49.796   9.979  11.417  0.00  0.00    +0.000 A 
ATOM     30  H   UNL     1      52.676   8.713  10.445  0.00  0.00    +0.000 HD
ENDBRANCH  17  20
ENDBRANCH   1  16
BRANCH   1  31
ATOM     31  N   UNL     1      48.464   6.189  14.157  0.00  0.00    +0.000 NA
ATOM     32  H   UNL     1      48.562   5.243  13.797  0.00  0.00    +0.000 HD
ATOM     33  H   UNL     1      48.309   6.095  15.156  0.00  0.00    +0.000 HD
ENDBRANCH   1  31
TORSDOF 7
ENDMDL
MODEL 8
REMARK VINA RESULT:    -7.333      2.362      3.486
REMARK INTER + INTRA:         -11.104
REMARK INTER:                 -10.093
REMARK INTRA:                  -1.011
REMARK UNBOUND:                -0.985
REMARK  Name = 
REMARK  7 active torsions:
REMARK  status: ('A' for Active; 'I' for Inactive)
REMARK    1  A    between atoms: N_1  and  C_2
REMARK    2  A    between atoms: C_2  and  N_3
REMARK    3  A    between atoms: C_2  and  C_16
REMARK    4  A    between atoms: C_4  and  C_6
REMARK    5  A    between atoms: C_19  and  O_20
REMARK    6  A    between atoms: O_20  and  C_21
REMARK    7  A    between atoms: C_21  and  C_22
REMARK                            x       y       z     vdW  Elec       q    Type
REMARK                         _______ _______ _______ _____ _____    ______ ____
ROOT
ATOM      1  C   UNL     1      46.985   4.298  15.371  0.00  0.00    +0.000 C 
ENDROOT
BRANCH   1   2
ATOM      2  C   UNL     1      46.559   4.501  13.929  0.00  0.00    +0.000 A 
ATOM      3  C   UNL     1      45.828   3.525  13.231  0.00  0.00    +0.000 A 
ATOM      4  C   UNL     1      45.357   3.766  11.936  0.00  0.00    +0.000 A 
ATOM      5  C   UNL     1      45.590   4.997  11.324  0.00  0.00    +0.000 A 
ATOM      6  C   UNL     1      46.354   5.956  11.984  0.00  0.00    +0.000 A 
ATOM      7  C   UNL     1      46.807   5.721  13.281  0.00  0.00    +0.000 A 
BRANCH   5   8
ATOM      8  O   UNL     1      45.013   5.173  10.095  0.00  0.00    +0.000 OA
BRANCH   8   9
ATOM      9  C   UNL     1      44.362   4.006   9.577  0.00  0.00    +0.000 C 
BRANCH   9  10
ATOM     10  C   UNL     1      45.284   3.254   8.652  0.00  0.00    +0.000 A 
ATOM     11  C   UNL     1      46.020   3.944   7.689  0.00  0.00    +0.000 A 
ATOM     12  C   UNL     1      46.919   3.238   6.899  0.00  0.00    +0.000 A 
ATOM     13  C   UNL     1      47.062   1.870   7.092  0.00  0.00    +0.000 A 
ATOM     14  C   UNL     1      46.300   1.261   8.070  0.00  0.00    +0.000 A 
ATOM     15  N   UNL     1      45.423   1.920   8.858  0.00  0.00    +0.000 NA
ENDBRANCH   9  10
ENDBRANCH   8   9
ENDBRANCH   5   8
ENDBRANCH   1   2
BRANCH   1  16
ATOM     16  N   UNL     1      47.915   5.289  15.814  0.00  0.00    +0.000 N 
ATOM     17  C   UNL     1      48.035   5.643  17.134  0.00  0.00    +0.000 C 
ATOM     18  O   UNL     1      47.398   5.086  18.024  0.00  0.00    +0.000 OA
ATOM     19  H   UNL     1      48.278   5.912  15.101  0.00  0.00    +0.000 HD
BRANCH  17  20
ATOM     20  C   UNL     1      49.026   6.677  17.447  0.00  0.00    +0.000 A 
ATOM     21  C   UNL     1      48.594   7.967  17.728  0.00  0.00    +0.000 A 
ATOM     22  S   UNL     1      49.857   9.040  18.130  0.00  0.00    +0.000 S 
ATOM     23  C   UNL     1      51.032   7.834  17.884  0.00  0.00    +0.000 A 
ATOM     24  N   UNL     1      52.355   8.107  18.041  0.00  0.00    +0.000 NA
ATOM     25  C   UNL     1      53.139   7.114  17.779  0.00  0.00    +0.000 A 
ATOM     26  N   UNL     1      52.717   5.872  17.380  0.00  0.00    +0.000 N 
ATOM     27  C   UNL     1      51.389   5.537  17.261  0.00  0.00    +0.000 A 
ATOM     28  O   UNL     1      51.037   4.397  16.982  0.00  0.00    +0.000 OA
ATOM     29  C   UNL     1      50.467   6.625  17.519  0.00  0.00    +0.000 A 
ATOM     30  H   UNL     1      53.385   5.134  17.203  0.00  0.00    +0.000 HD
ENDBRANCH  17  20
ENDBRANCH   1  16
BRANCH   1  31
ATOM     31  N   UNL     1      47.729   3.072  15.571  0.00  0.00    +0.000 NA
ATOM     32  H   UNL     1      47.724   2.581  14.679  0.00  0.00    +0.000 HD
ATOM     33  H   UNL     1      47.199   2.491  16.214  0.00  0.00    +0.000 HD
ENDBRANCH   1  31
TORSDOF 7
ENDMDL
MODEL 9
REMARK VINA RESULT:    -6.851      3.787      5.811
REMARK INTER + INTRA:         -10.439
REMARK INTER:                  -9.582
REMARK INTRA:                  -0.858
REMARK UNBOUND:                -0.985
REMARK  Name = 
REMARK  7 active torsions:
REMARK  status: ('A' for Active; 'I' for Inactive)
REMARK    1  A    between atoms: N_1  and  C_2
REMARK    2  A    between atoms: C_2  and  N_3
REMARK    3  A    between atoms: C_2  and  C_16
REMARK    4  A    between atoms: C_4  and  C_6
REMARK    5  A    between atoms: C_19  and  O_20
REMARK    6  A    between atoms: O_20  and  C_21
REMARK    7  A    between atoms: C_21  and  C_22
REMARK                            x       y       z     vdW  Elec       q    Type
REMARK                         _______ _______ _______ _____ _____    ______ ____
ROOT
ATOM      1  C   UNL     1      46.435   4.235  14.530  0.00  0.00    +0.000 C 
ENDROOT
BRANCH   1   2
ATOM      2  C   UNL     1      45.911   5.382  13.687  0.00  0.00    +0.000 A 
ATOM      3  C   UNL     1      46.659   6.556  13.491  0.00  0.00    +0.000 A 
ATOM      4  C   UNL     1      46.207   7.564  12.633  0.00  0.00    +0.000 A 
ATOM      5  C   UNL     1      45.010   7.406  11.936  0.00  0.00    +0.000 A 
ATOM      6  C   UNL     1      44.235   6.270  12.156  0.00  0.00    +0.000 A 
ATOM      7  C   UNL     1      44.694   5.259  12.998  0.00  0.00    +0.000 A 
BRANCH   5   8
ATOM      8  O   UNL     1      44.697   8.402  11.051  0.00  0.00    +0.000 OA
BRANCH   8   9
ATOM      9  C   UNL     1      44.771   9.723  11.601  0.00  0.00    +0.000 C 
BRANCH   9  10
ATOM     10  C   UNL     1      43.704  10.605  11.005  0.00  0.00    +0.000 A 
ATOM     11  C   UNL     1      43.421  10.532   9.641  0.00  0.00    +0.000 A 
ATOM     12  C   UNL     1      42.381  11.299   9.130  0.00  0.00    +0.000 A 
ATOM     13  C   UNL     1      41.654  12.112   9.990  0.00  0.00    +0.000 A 
ATOM     14  C   UNL     1      41.994  12.125  11.328  0.00  0.00    +0.000 A 
ATOM     15  N   UNL     1      42.993  11.387  11.856  0.00  0.00    +0.000 NA
ENDBRANCH   9  10
ENDBRANCH   8   9
ENDBRANCH   5   8
ENDBRANCH   1   2
BRANCH   1  16
ATOM     16  N   UNL     1      47.318   4.674  15.565  0.00  0.00    +0.000 N 
ATOM     17  C   UNL     1      47.301   4.125  16.823  0.00  0.00    +0.000 C 
ATOM     18  O   UNL     1      46.573   3.182  17.119  0.00  0.00    +0.000 OA
ATOM     19  H   UNL     1      47.755   5.577  15.427  0.00  0.00    +0.000 HD
BRANCH  17  20
ATOM     20  C   UNL     1      48.258   4.674  17.789  0.00  0.00    +0.000 A 
ATOM     21  C   UNL     1      47.898   5.782  18.545  0.00  0.00    +0.000 A 
ATOM     22  S   UNL     1      49.092   6.265  19.663  0.00  0.00    +0.000 S 
ATOM     23  C   UNL     1      50.156   5.047  19.134  0.00  0.00    +0.000 A 
ATOM     24  N   UNL     1      51.395   4.919  19.679  0.00  0.00    +0.000 NA
ATOM     25  C   UNL     1      52.115   3.984  19.154  0.00  0.00    +0.000 A 
ATOM     26  N   UNL     1      51.703   3.161  18.137  0.00  0.00    +0.000 N 
ATOM     27  C   UNL     1      50.441   3.219  17.595  0.00  0.00    +0.000 A 
ATOM     28  O   UNL     1      50.070   2.419  16.744  0.00  0.00    +0.000 OA
ATOM     29  C   UNL     1      49.601   4.271  18.132  0.00  0.00    +0.000 A 
ATOM     30  H   UNL     1      52.313   2.439  17.781  0.00  0.00    +0.000 HD
ENDBRANCH  17  20
ENDBRANCH   1  16
BRANCH   1  31
ATOM     31  N   UNL     1      47.274   3.323  13.781  0.00  0.00    +0.000 NA
ATOM     32  H   UNL     1      48.184   3.327  14.234  0.00  0.00    +0.000 HD
ATOM     33  H   UNL     1      47.417   3.724  12.859  0.00  0.00    +0.000 HD
ENDBRANCH   1  31
TORSDOF 7
ENDMDL
