MODEL 1
REMARK VINA RESULT:    -7.356      0.000      0.000
REMARK INTER + INTRA:         -13.413
REMARK INTER:                 -11.657
REMARK INTRA:                  -1.756
REMARK UNBOUND:                -1.756
REMARK  Name = 
REMARK  11 active torsions:
REMARK  status: ('A' for Active; 'I' for Inactive)
REMARK    1  A    between atoms: C_1  and  C_2
REMARK    2  A    between atoms: C_2  and  O_3
REMARK    3  A    between atoms: O_3  and  C_4
REMARK    4  A    between atoms: C_4  and  C_6
REMARK    5  A    between atoms: C_6  and  C_7
REMARK    6  A    between atoms: C_12  and  C_13
REMARK    7  A    between atoms: N_15  and  C_16
REMARK    8  A    between atoms: C_16  and  C_17
REMARK    9  A    between atoms: C_20  and  C_21
REMARK   10  A    between atoms: C_21  and  N_22
REMARK   11  A    between atoms: C_23  and  C_25
REMARK                            x       y       z     vdW  Elec       q    Type
REMARK                         _______ _______ _______ _____ _____    ______ ____
ROOT
ATOM      1  C   UNL     1      50.257   7.379  15.262  0.00  0.00    +0.000 A 
ATOM      2  C   UNL     1      48.929   6.930  15.303  0.00  0.00    +0.000 A 
ATOM      3  C   UNL     1      48.109   7.041  14.181  0.00  0.00    +0.000 A 
ATOM      4  C   UNL     1      48.599   7.612  13.000  0.00  0.00    +0.000 A 
ATOM      5  C   UNL     1      49.907   8.114  12.975  0.00  0.00    +0.000 A 
ATOM      6  C   UNL     1      50.729   7.995  14.094  0.00  0.00    +0.000 A 
ENDROOT
BRANCH   1   7
ATOM      7  C   UNL     1      51.198   7.080  16.400  0.00  0.00    +0.000 C 
BRANCH   7  10
ATOM      8  C   UNL     1      50.150   6.303  18.488  0.00  0.00    +0.000 C 
ATOM      9  O   UNL     1      50.072   7.447  18.925  0.00  0.00    +0.000 OA
ATOM     10  N   UNL     1      50.709   6.013  17.260  0.00  0.00    +0.000 N 
ATOM     11  H   UNL     1      50.487   5.127  16.831  0.00  0.00    +0.000 HD
BRANCH   8  17
ATOM     12  C   UNL     1      48.081   5.036  19.346  0.00  0.00    +0.000 C 
ATOM     13  C   UNL     1      47.518   6.139  20.264  0.00  0.00    +0.000 C 
ATOM     14  C   UNL     1      48.130   6.067  21.658  0.00  0.00    +0.000 C 
ATOM     15  C   UNL     1      49.655   6.076  21.623  0.00  0.00    +0.000 C 
ATOM     16  C   UNL     1      50.230   5.018  20.678  0.00  0.00    +0.000 C 
ATOM     17  C   UNL     1      49.630   5.088  19.264  0.00  0.00    +0.000 C 
BRANCH  12  18
ATOM     18  C   UNL     1      47.438   5.062  17.958  0.00  0.00    +0.000 C 
BRANCH  18  19
ATOM     19  C   UNL     1      47.449   3.705  17.308  0.00  0.00    +0.000 C 
ATOM     20  O   UNL     1      46.566   2.870  17.448  0.00  0.00    +0.000 OA
BRANCH  19  21
ATOM     21  O   UNL     1      48.611   3.531  16.625  0.00  0.00    +0.000 OA
BRANCH  21  23
ATOM     22  C   UNL     1      50.524   2.246  17.221  0.00  0.00    +0.000 C 
ATOM     23  C   UNL     1      49.128   2.197  16.625  0.00  0.00    +0.000 C 
ENDBRANCH  21  23
ENDBRANCH  19  21
ENDBRANCH  18  19
ENDBRANCH  12  18
ENDBRANCH   8  17
ENDBRANCH   7  10
ENDBRANCH   1   7
BRANCH   4  24
ATOM     24  C   UNL     1      47.720   7.740  11.787  0.00  0.00    +0.000 C 
BRANCH  24  25
ATOM     25  N   UNL     1      46.988   6.519  11.582  0.00  0.00    +0.000 N 
ATOM     26  C   UNL     1      45.634   6.457  11.760  0.00  0.00    +0.000 C 
ATOM     27  O   UNL     1      44.970   7.444  12.064  0.00  0.00    +0.000 OA
ATOM     28  H   UNL     1      47.533   5.663  11.541  0.00  0.00    +0.000 HD
BRANCH  26  29
ATOM     29  C   UNL     1      45.005   5.155  11.504  0.00  0.00    +0.000 A 
ATOM     30  C   UNL     1      44.294   4.532  12.520  0.00  0.00    +0.000 A 
ATOM     31  S   UNL     1      43.577   3.060  12.049  0.00  0.00    +0.000 S 
ATOM     32  C   UNL     1      44.231   3.178  10.483  0.00  0.00    +0.000 A 
ATOM     33  N   UNL     1      44.009   2.205   9.559  0.00  0.00    +0.000 NA
ATOM     34  C   UNL     1      44.582   2.410   8.422  0.00  0.00    +0.000 A 
ATOM     35  N   UNL     1      45.359   3.500   8.121  0.00  0.00    +0.000 N 
ATOM     36  C   UNL     1      45.594   4.518   9.014  0.00  0.00    +0.000 A 
ATOM     37  O   UNL     1      46.268   5.494   8.703  0.00  0.00    +0.000 OA
ATOM     38  C   UNL     1      44.973   4.335  10.315  0.00  0.00    +0.000 A 
ATOM     39  H   UNL     1      45.778   3.603   7.209  0.00  0.00    +0.000 HD
ENDBRANCH  26  29
ENDBRANCH  24  25
ENDBRANCH   4  24
TORSDOF 10
ENDMDL
MODEL 2
REMARK VINA RESULT:    -6.655      3.408      7.950
REMARK INTER + INTRA:         -12.303
REMARK INTER:                 -10.522
REMARK INTRA:                  -1.781
REMARK UNBOUND:                -1.756
REMARK  Name = 
REMARK  11 active torsions:
REMARK  status: ('A' for Active; 'I' for Inactive)
REMARK    1  A    between atoms: C_1  and  C_2
REMARK    2  A    between atoms: C_2  and  O_3
REMARK    3  A    between atoms: O_3  and  C_4
REMARK    4  A    between atoms: C_4  and  C_6
REMARK    5  A    between atoms: C_6  and  C_7
REMARK    6  A    between atoms: C_12  and  C_13
REMARK    7  A    between atoms: N_15  and  C_16
REMARK    8  A    between atoms: C_16  and  C_17
REMARK    9  A    between atoms: C_20  and  C_21
REMARK   10  A    between atoms: C_21  and  N_22
REMARK   11  A    between atoms: C_23  and  C_25
REMARK                            x       y       z     vdW  Elec       q    Type
REMARK                         _______ _______ _______ _____ _____    ______ ____
ROOT
ATOM      1  C   UNL     1      47.195   9.075  12.006  0.00  0.00    +0.000 A 
ATOM      2  C   UNL     1      47.894   7.860  12.012  0.00  0.00    +0.000 A 
ATOM      3  C   UNL     1      49.282   7.841  12.145  0.00  0.00    +0.000 A 
ATOM      4  C   UNL     1      49.998   9.039  12.264  0.00  0.00    +0.000 A 
ATOM      5  C   UNL     1      49.307  10.256  12.200  0.00  0.00    +0.000 A 
ATOM      6  C   UNL     1      47.919  10.275  12.076  0.00  0.00    +0.000 A 
ENDROOT
BRANCH   1   7
ATOM      7  C   UNL     1      45.690   9.090  12.063  0.00  0.00    +0.000 C 
BRANCH   7  10
ATOM      8  C   UNL     1      44.753   6.818  12.209  0.00  0.00    +0.000 C 
ATOM      9  O   UNL     1      44.796   6.676  10.992  0.00  0.00    +0.000 OA
ATOM     10  N   UNL     1      45.153   7.980  12.836  0.00  0.00    +0.000 N 
ATOM     11  H   UNL     1      45.374   7.941  13.821  0.00  0.00    +0.000 HD
BRANCH   8  17
ATOM     12  C   UNL     1      45.261   4.538  13.291  0.00  0.00    +0.000 C 
ATOM     13  C   UNL     1      45.349   3.702  11.999  0.00  0.00    +0.000 C 
ATOM     14  C   UNL     1      43.977   3.187  11.577  0.00  0.00    +0.000 C 
ATOM     15  C   UNL     1      42.948   4.307  11.465  0.00  0.00    +0.000 C 
ATOM     16  C   UNL     1      42.882   5.177  12.721  0.00  0.00    +0.000 C 
ATOM     17  C   UNL     1      44.257   5.714  13.150  0.00  0.00    +0.000 C 
BRANCH  12  18
ATOM     18  C   UNL     1      46.637   5.019  13.757  0.00  0.00    +0.000 C 
BRANCH  18  19
ATOM     19  C   UNL     1      47.347   3.980  14.580  0.00  0.00    +0.000 C 
ATOM     20  O   UNL     1      47.440   2.801  14.266  0.00  0.00    +0.000 OA
BRANCH  19  21
ATOM     21  O   UNL     1      47.784   4.533  15.742  0.00  0.00    +0.000 OA
BRANCH  21  23
ATOM     22  C   UNL     1      47.636   2.995  17.554  0.00  0.00    +0.000 C 
ATOM     23  C   UNL     1      47.008   4.215  16.902  0.00  0.00    +0.000 C 
ENDBRANCH  21  23
ENDBRANCH  19  21
ENDBRANCH  18  19
ENDBRANCH  12  18
ENDBRANCH   8  17
ENDBRANCH   7  10
ENDBRANCH   1   7
BRANCH   4  24
ATOM     24  C   UNL     1      51.494   9.028  12.403  0.00  0.00    +0.000 C 
BRANCH  24  25
ATOM     25  N   UNL     1      51.886   8.070  13.402  0.00  0.00    +0.000 N 
ATOM     26  C   UNL     1      52.705   8.414  14.442  0.00  0.00    +0.000 C 
ATOM     27  O   UNL     1      53.112   9.562  14.600  0.00  0.00    +0.000 OA
ATOM     28  H   UNL     1      51.738   7.091  13.177  0.00  0.00    +0.000 HD
BRANCH  26  29
ATOM     29  C   UNL     1      53.017   7.348  15.402  0.00  0.00    +0.000 A 
ATOM     30  C   UNL     1      54.341   6.993  15.615  0.00  0.00    +0.000 A 
ATOM     31  S   UNL     1      54.542   5.783  16.799  0.00  0.00    +0.000 S 
ATOM     32  C   UNL     1      52.862   5.656  17.034  0.00  0.00    +0.000 A 
ATOM     33  N   UNL     1      52.348   4.763  17.922  0.00  0.00    +0.000 NA
ATOM     34  C   UNL     1      51.059   4.756  17.983  0.00  0.00    +0.000 A 
ATOM     35  N   UNL     1      50.235   5.559  17.238  0.00  0.00    +0.000 N 
ATOM     36  C   UNL     1      50.709   6.490  16.344  0.00  0.00    +0.000 A 
ATOM     37  O   UNL     1      49.944   7.214  15.715  0.00  0.00    +0.000 OA
ATOM     38  C   UNL     1      52.156   6.537  16.232  0.00  0.00    +0.000 A 
ATOM     39  H   UNL     1      49.232   5.507  17.335  0.00  0.00    +0.000 HD
ENDBRANCH  26  29
ENDBRANCH  24  25
ENDBRANCH   4  24
TORSDOF 10
ENDMDL
MODEL 3
REMARK VINA RESULT:    -6.558      4.697      8.308
REMARK INTER + INTRA:         -12.148
REMARK INTER:                 -11.180
REMARK INTRA:                  -0.968
REMARK UNBOUND:                -1.756
REMARK  Name = 
REMARK  11 active torsions:
REMARK  status: ('A' for Active; 'I' for Inactive)
REMARK    1  A    between atoms: C_1  and  C_2
REMARK    2  A    between atoms: C_2  and  O_3
REMARK    3  A    between atoms: O_3  and  C_4
REMARK    4  A    between atoms: C_4  and  C_6
REMARK    5  A    between atoms: C_6  and  C_7
REMARK    6  A    between atoms: C_12  and  C_13
REMARK    7  A    between atoms: N_15  and  C_16
REMARK    8  A    between atoms: C_16  and  C_17
REMARK    9  A    between atoms: C_20  and  C_21
REMARK   10  A    between atoms: C_21  and  N_22
REMARK   11  A    between atoms: C_23  and  C_25
REMARK                            x       y       z     vdW  Elec       q    Type
REMARK                         _______ _______ _______ _____ _____    ______ ____
ROOT
ATOM      1  C   UNL     1      48.192   6.739  13.505  0.00  0.00    +0.000 A 
ATOM      2  C   UNL     1      48.151   7.092  12.148  0.00  0.00    +0.000 A 
ATOM      3  C   UNL     1      49.185   7.832  11.576  0.00  0.00    +0.000 A 
ATOM      4  C   UNL     1      50.276   8.242  12.353  0.00  0.00    +0.000 A 
ATOM      5  C   UNL     1      50.291   7.941  13.722  0.00  0.00    +0.000 A 
ATOM      6  C   UNL     1      49.261   7.194  14.292  0.00  0.00    +0.000 A 
ENDROOT
BRANCH   1   7
ATOM      7  C   UNL     1      47.183   5.777  14.074  0.00  0.00    +0.000 C 
BRANCH   7  10
ATOM      8  C   UNL     1      45.935   4.066  12.818  0.00  0.00    +0.000 C 
ATOM      9  O   UNL     1      46.579   3.157  13.333  0.00  0.00    +0.000 OA
ATOM     10  N   UNL     1      46.169   5.396  13.102  0.00  0.00    +0.000 N 
ATOM     11  H   UNL     1      45.443   6.065  12.891  0.00  0.00    +0.000 HD
BRANCH   8  17
ATOM     12  C   UNL     1      44.580   4.994  10.837  0.00  0.00    +0.000 C 
ATOM     13  C   UNL     1      43.968   6.217  11.549  0.00  0.00    +0.000 C 
ATOM     14  C   UNL     1      42.668   5.852  12.257  0.00  0.00    +0.000 C 
ATOM     15  C   UNL     1      42.834   4.665  13.200  0.00  0.00    +0.000 C 
ATOM     16  C   UNL     1      43.486   3.458  12.521  0.00  0.00    +0.000 C 
ATOM     17  C   UNL     1      44.806   3.809  11.814  0.00  0.00    +0.000 C 
BRANCH  12  18
ATOM     18  C   UNL     1      45.859   5.355  10.078  0.00  0.00    +0.000 C 
BRANCH  18  19
ATOM     19  C   UNL     1      45.865   4.788   8.685  0.00  0.00    +0.000 C 
ATOM     20  O   UNL     1      46.761   4.972   7.872  0.00  0.00    +0.000 OA
BRANCH  19  21
ATOM     21  O   UNL     1      44.700   4.126   8.452  0.00  0.00    +0.000 OA
BRANCH  21  23
ATOM     22  C   UNL     1      45.446   1.891   8.791  0.00  0.00    +0.000 C 
ATOM     23  C   UNL     1      44.834   2.862   7.796  0.00  0.00    +0.000 C 
ENDBRANCH  21  23
ENDBRANCH  19  21
ENDBRANCH  18  19
ENDBRANCH  12  18
ENDBRANCH   8  17
ENDBRANCH   7  10
ENDBRANCH   1   7
BRANCH   4  24
ATOM     24  C   UNL     1      51.392   9.044  11.746  0.00  0.00    +0.000 C 
BRANCH  24  25
ATOM     25  N   UNL     1      51.711   8.530  10.441  0.00  0.00    +0.000 N 
ATOM     26  C   UNL     1      52.781   8.995   9.729  0.00  0.00    +0.000 C 
ATOM     27  O   UNL     1      53.546   9.843  10.181  0.00  0.00    +0.000 OA
ATOM     28  H   UNL     1      50.985   7.995   9.972  0.00  0.00    +0.000 HD
BRANCH  26  29
ATOM     29  C   UNL     1      53.007   8.376   8.417  0.00  0.00    +0.000 A 
ATOM     30  C   UNL     1      52.936   9.161   7.275  0.00  0.00    +0.000 A 
ATOM     31  S   UNL     1      53.278   8.310   5.838  0.00  0.00    +0.000 S 
ATOM     32  C   UNL     1      53.485   6.850   6.688  0.00  0.00    +0.000 A 
ATOM     33  N   UNL     1      53.780   5.697   6.029  0.00  0.00    +0.000 NA
ATOM     34  C   UNL     1      53.886   4.662   6.791  0.00  0.00    +0.000 A 
ATOM     35  N   UNL     1      53.724   4.672   8.153  0.00  0.00    +0.000 N 
ATOM     36  C   UNL     1      53.447   5.815   8.864  0.00  0.00    +0.000 A 
ATOM     37  O   UNL     1      53.339   5.795  10.085  0.00  0.00    +0.000 OA
ATOM     38  C   UNL     1      53.312   7.012   8.052  0.00  0.00    +0.000 A 
ATOM     39  H   UNL     1      53.824   3.826   8.695  0.00  0.00    +0.000 HD
ENDBRANCH  26  29
ENDBRANCH  24  25
ENDBRANCH   4  24
TORSDOF 10
ENDMDL
MODEL 4
REMARK VINA RESULT:    -5.818      4.333      7.911
REMARK INTER + INTRA:         -10.976
REMARK INTER:                  -9.296
REMARK INTRA:                  -1.680
REMARK UNBOUND:                -1.756
REMARK  Name = 
REMARK  11 active torsions:
REMARK  status: ('A' for Active; 'I' for Inactive)
REMARK    1  A    between atoms: C_1  and  C_2
REMARK    2  A    between atoms: C_2  and  O_3
REMARK    3  A    between atoms: O_3  and  C_4
REMARK    4  A    between atoms: C_4  and  C_6
REMARK    5  A    between atoms: C_6  and  C_7
REMARK    6  A    between atoms: C_12  and  C_13
REMARK    7  A    between atoms: N_15  and  C_16
REMARK    8  A    between atoms: C_16  and  C_17
REMARK    9  A    between atoms: C_20  and  C_21
REMARK   10  A    between atoms: C_21  and  N_22
REMARK   11  A    between atoms: C_23  and  C_25
REMARK                            x       y       z     vdW  Elec       q    Type
REMARK                         _______ _______ _______ _____ _____    ______ ____
ROOT
ATOM      1  C   UNL     1      46.473   9.686  11.891  0.00  0.00    +0.000 A 
ATOM      2  C   UNL     1      47.349   8.883  12.636  0.00  0.00    +0.000 A 
ATOM      3  C   UNL     1      48.603   9.362  13.013  0.00  0.00    +0.000 A 
ATOM      4  C   UNL     1      49.009  10.650  12.642  0.00  0.00    +0.000 A 
ATOM      5  C   UNL     1      48.159  11.432  11.849  0.00  0.00    +0.000 A 
ATOM      6  C   UNL     1      46.902  10.956  11.479  0.00  0.00    +0.000 A 
ENDROOT
BRANCH   1   7
ATOM      7  C   UNL     1      45.051   9.249  11.656  0.00  0.00    +0.000 C 
BRANCH   7  10
ATOM      8  C   UNL     1      44.683   6.848  12.059  0.00  0.00    +0.000 C 
ATOM      9  O   UNL     1      44.997   6.563  10.907  0.00  0.00    +0.000 OA
ATOM     10  N   UNL     1      44.658   8.148  12.522  0.00  0.00    +0.000 N 
ATOM     11  H   UNL     1      44.684   8.300  13.519  0.00  0.00    +0.000 HD
BRANCH   8  17
ATOM     12  C   UNL     1      45.336   4.641  13.210  0.00  0.00    +0.000 C 
ATOM     13  C   UNL     1      45.340   3.739  11.961  0.00  0.00    +0.000 C 
ATOM     14  C   UNL     1      43.952   3.173  11.681  0.00  0.00    +0.000 C 
ATOM     15  C   UNL     1      42.888   4.262  11.597  0.00  0.00    +0.000 C 
ATOM     16  C   UNL     1      42.903   5.198  12.808  0.00  0.00    +0.000 C 
ATOM     17  C   UNL     1      44.295   5.786  13.093  0.00  0.00    +0.000 C 
BRANCH  12  18
ATOM     18  C   UNL     1      46.733   5.176  13.535  0.00  0.00    +0.000 C 
BRANCH  18  19
ATOM     19  C   UNL     1      47.427   4.340  14.575  0.00  0.00    +0.000 C 
ATOM     20  O   UNL     1      47.427   3.117  14.585  0.00  0.00    +0.000 OA
BRANCH  19  21
ATOM     21  O   UNL     1      47.970   5.146  15.526  0.00  0.00    +0.000 OA
BRANCH  21  23
ATOM     22  C   UNL     1      48.753   7.294  16.191  0.00  0.00    +0.000 C 
ATOM     23  C   UNL     1      48.627   6.318  15.033  0.00  0.00    +0.000 C 
ENDBRANCH  21  23
ENDBRANCH  19  21
ENDBRANCH  18  19
ENDBRANCH  12  18
ENDBRANCH   8  17
ENDBRANCH   7  10
ENDBRANCH   1   7
BRANCH   4  24
ATOM     24  C   UNL     1      50.361  11.173  13.039  0.00  0.00    +0.000 C 
BRANCH  24  25
ATOM     25  N   UNL     1      51.389  10.457  12.333  0.00  0.00    +0.000 N 
ATOM     26  C   UNL     1      51.835  10.867  11.107  0.00  0.00    +0.000 C 
ATOM     27  O   UNL     1      51.412  11.884  10.566  0.00  0.00    +0.000 OA
ATOM     28  H   UNL     1      51.595   9.517  12.658  0.00  0.00    +0.000 HD
BRANCH  26  29
ATOM     29  C   UNL     1      52.899  10.058  10.499  0.00  0.00    +0.000 A 
ATOM     30  C   UNL     1      54.038  10.686  10.016  0.00  0.00    +0.000 A 
ATOM     31  S   UNL     1      55.202   9.608   9.396  0.00  0.00    +0.000 S 
ATOM     32  C   UNL     1      54.204   8.265   9.705  0.00  0.00    +0.000 A 
ATOM     33  N   UNL     1      54.608   7.007   9.381  0.00  0.00    +0.000 NA
ATOM     34  C   UNL     1      53.745   6.086   9.649  0.00  0.00    +0.000 A 
ATOM     35  N   UNL     1      52.514   6.306  10.211  0.00  0.00    +0.000 N 
ATOM     36  C   UNL     1      52.071   7.556  10.575  0.00  0.00    +0.000 A 
ATOM     37  O   UNL     1      50.977   7.714  11.104  0.00  0.00    +0.000 OA
ATOM     38  C   UNL     1      53.005   8.632  10.291  0.00  0.00    +0.000 A 
ATOM     39  H   UNL     1      51.884   5.540  10.399  0.00  0.00    +0.000 HD
ENDBRANCH  26  29
ENDBRANCH  24  25
ENDBRANCH   4  24
TORSDOF 10
ENDMDL
MODEL 5
REMARK VINA RESULT:    -5.767      2.100      3.053
REMARK INTER + INTRA:         -10.895
REMARK INTER:                  -9.689
REMARK INTRA:                  -1.206
REMARK UNBOUND:                -1.756
REMARK  Name = 
REMARK  11 active torsions:
REMARK  status: ('A' for Active; 'I' for Inactive)
REMARK    1  A    between atoms: C_1  and  C_2
REMARK    2  A    between atoms: C_2  and  O_3
REMARK    3  A    between atoms: O_3  and  C_4
REMARK    4  A    between atoms: C_4  and  C_6
REMARK    5  A    between atoms: C_6  and  C_7
REMARK    6  A    between atoms: C_12  and  C_13
REMARK    7  A    between atoms: N_15  and  C_16
REMARK    8  A    between atoms: C_16  and  C_17
REMARK    9  A    between atoms: C_20  and  C_21
REMARK   10  A    between atoms: C_21  and  N_22
REMARK   11  A    between atoms: C_23  and  C_25
REMARK                            x       y       z     vdW  Elec       q    Type
REMARK                         _______ _______ _______ _____ _____    ______ ____
ROOT
ATOM      1  C   UNL     1      50.352   8.635  13.392  0.00  0.00    +0.000 A 
ATOM      2  C   UNL     1      49.689   7.400  13.440  0.00  0.00    +0.000 A 
ATOM      3  C   UNL     1      48.330   7.314  13.144  0.00  0.00    +0.000 A 
ATOM      4  C   UNL     1      47.605   8.463  12.804  0.00  0.00    +0.000 A 
ATOM      5  C   UNL     1      48.252   9.706  12.812  0.00  0.00    +0.000 A 
ATOM      6  C   UNL     1      49.613   9.791  13.099  0.00  0.00    +0.000 A 
ENDROOT
BRANCH   1   7
ATOM      7  C   UNL     1      51.852   8.701  13.515  0.00  0.00    +0.000 C 
BRANCH   7  10
ATOM      8  C   UNL     1      52.698   7.677  15.589  0.00  0.00    +0.000 C 
ATOM      9  O   UNL     1      52.554   8.723  16.214  0.00  0.00    +0.000 OA
ATOM     10  N   UNL     1      52.399   7.568  14.246  0.00  0.00    +0.000 N 
ATOM     11  H   UNL     1      52.255   6.645  13.862  0.00  0.00    +0.000 HD
BRANCH   8  17
ATOM     12  C   UNL     1      52.311   5.887  17.396  0.00  0.00    +0.000 C 
ATOM     13  C   UNL     1      52.387   6.806  18.631  0.00  0.00    +0.000 C 
ATOM     14  C   UNL     1      53.825   6.971  19.112  0.00  0.00    +0.000 C 
ATOM     15  C   UNL     1      54.761   7.429  17.998  0.00  0.00    +0.000 C 
ATOM     16  C   UNL     1      54.661   6.555  16.746  0.00  0.00    +0.000 C 
ATOM     17  C   UNL     1      53.218   6.392  16.242  0.00  0.00    +0.000 C 
BRANCH  12  18
ATOM     18  C   UNL     1      50.869   5.670  16.931  0.00  0.00    +0.000 C 
BRANCH  18  19
ATOM     19  C   UNL     1      50.303   4.373  17.440  0.00  0.00    +0.000 C 
ATOM     20  O   UNL     1      50.770   3.740  18.378  0.00  0.00    +0.000 OA
BRANCH  19  21
ATOM     21  O   UNL     1      49.265   3.983  16.653  0.00  0.00    +0.000 OA
BRANCH  21  23
ATOM     22  C   UNL     1      47.344   2.862  17.501  0.00  0.00    +0.000 C 
ATOM     23  C   UNL     1      48.740   2.682  16.931  0.00  0.00    +0.000 C 
ENDBRANCH  21  23
ENDBRANCH  19  21
ENDBRANCH  18  19
ENDBRANCH  12  18
ENDBRANCH   8  17
ENDBRANCH   7  10
ENDBRANCH   1   7
BRANCH   4  24
ATOM     24  C   UNL     1      46.138   8.380  12.488  0.00  0.00    +0.000 C 
BRANCH  24  25
ATOM     25  N   UNL     1      45.768   7.012  12.239  0.00  0.00    +0.000 N 
ATOM     26  C   UNL     1      44.599   6.690  11.607  0.00  0.00    +0.000 C 
ATOM     27  O   UNL     1      43.827   7.547  11.185  0.00  0.00    +0.000 OA
ATOM     28  H   UNL     1      46.275   6.301  12.757  0.00  0.00    +0.000 HD
BRANCH  26  29
ATOM     29  C   UNL     1      44.346   5.259  11.399  0.00  0.00    +0.000 A 
ATOM     30  C   UNL     1      43.619   4.553  12.348  0.00  0.00    +0.000 A 
ATOM     31  S   UNL     1      43.362   2.919  11.935  0.00  0.00    +0.000 S 
ATOM     32  C   UNL     1      44.256   3.085  10.497  0.00  0.00    +0.000 A 
ATOM     33  N   UNL     1      44.442   2.024   9.666  0.00  0.00    +0.000 NA
ATOM     34  C   UNL     1      45.158   2.283   8.625  0.00  0.00    +0.000 A 
ATOM     35  N   UNL     1      45.705   3.507   8.335  0.00  0.00    +0.000 N 
ATOM     36  C   UNL     1      45.526   4.612   9.132  0.00  0.00    +0.000 A 
ATOM     37  O   UNL     1      46.004   5.699   8.828  0.00  0.00    +0.000 OA
ATOM     38  C   UNL     1      44.730   4.374  10.324  0.00  0.00    +0.000 A 
ATOM     39  H   UNL     1      46.254   3.646   7.499  0.00  0.00    +0.000 HD
ENDBRANCH  26  29
ENDBRANCH  24  25
ENDBRANCH   4  24
TORSDOF 10
ENDMDL
MODEL 6
REMARK VINA RESULT:    -5.745      1.698      2.519
REMARK INTER + INTRA:         -10.859
REMARK INTER:                  -9.734
REMARK INTRA:                  -1.126
REMARK UNBOUND:                -1.756
REMARK  Name = 
REMARK  11 active torsions:
REMARK  status: ('A' for Active; 'I' for Inactive)
REMARK    1  A    between atoms: C_1  and  C_2
REMARK    2  A    between atoms: C_2  and  O_3
REMARK    3  A    between atoms: O_3  and  C_4
REMARK    4  A    between atoms: C_4  and  C_6
REMARK    5  A    between atoms: C_6  and  C_7
REMARK    6  A    between atoms: C_12  and  C_13
REMARK    7  A    between atoms: N_15  and  C_16
REMARK    8  A    between atoms: C_16  and  C_17
REMARK    9  A    between atoms: C_20  and  C_21
REMARK   10  A    between atoms: C_21  and  N_22
REMARK   11  A    between atoms: C_23  and  C_25
REMARK                            x       y       z     vdW  Elec       q    Type
REMARK                         _______ _______ _______ _____ _____    ______ ____
ROOT
ATOM      1  C   UNL     1      49.555   8.616  15.657  0.00  0.00    +0.000 A 
ATOM      2  C   UNL     1      49.536   7.347  15.058  0.00  0.00    +0.000 A 
ATOM      3  C   UNL     1      48.998   7.174  13.783  0.00  0.00    +0.000 A 
ATOM      4  C   UNL     1      48.460   8.264  13.088  0.00  0.00    +0.000 A 
ATOM      5  C   UNL     1      48.426   9.520  13.707  0.00  0.00    +0.000 A 
ATOM      6  C   UNL     1      48.971   9.695  14.978  0.00  0.00    +0.000 A 
ENDROOT
BRANCH   1   7
ATOM      7  C   UNL     1      50.310   8.842  16.941  0.00  0.00    +0.000 C 
BRANCH   7  10
ATOM      8  C   UNL     1      49.483   7.108  18.482  0.00  0.00    +0.000 C 
ATOM      9  O   UNL     1      48.404   7.676  18.610  0.00  0.00    +0.000 OA
ATOM     10  N   UNL     1      50.500   7.612  17.697  0.00  0.00    +0.000 N 
ATOM     11  H   UNL     1      51.229   6.983  17.396  0.00  0.00    +0.000 HD
BRANCH   8  17
ATOM     12  C   UNL     1      50.334   4.695  18.206  0.00  0.00    +0.000 C 
ATOM     13  C   UNL     1      49.229   4.184  17.260  0.00  0.00    +0.000 C 
ATOM     14  C   UNL     1      48.028   3.663  18.042  0.00  0.00    +0.000 C 
ATOM     15  C   UNL     1      47.498   4.686  19.041  0.00  0.00    +0.000 C 
ATOM     16  C   UNL     1      48.592   5.240  19.956  0.00  0.00    +0.000 C 
ATOM     17  C   UNL     1      49.804   5.782  19.180  0.00  0.00    +0.000 C 
BRANCH  12  18
ATOM     18  C   UNL     1      51.568   5.174  17.438  0.00  0.00    +0.000 C 
BRANCH  18  19
ATOM     19  C   UNL     1      52.789   4.363  17.774  0.00  0.00    +0.000 C 
ATOM     20  O   UNL     1      53.909   4.595  17.340  0.00  0.00    +0.000 OA
BRANCH  19  21
ATOM     21  O   UNL     1      52.439   3.305  18.552  0.00  0.00    +0.000 OA
BRANCH  21  23
ATOM     22  C   UNL     1      51.702   1.312  17.478  0.00  0.00    +0.000 C 
ATOM     23  C   UNL     1      52.892   2.028  18.092  0.00  0.00    +0.000 C 
ENDBRANCH  21  23
ENDBRANCH  19  21
ENDBRANCH  18  19
ENDBRANCH  12  18
ENDBRANCH   8  17
ENDBRANCH   7  10
ENDBRANCH   1   7
BRANCH   4  24
ATOM     24  C   UNL     1      47.875   8.085  11.715  0.00  0.00    +0.000 C 
BRANCH  24  25
ATOM     25  N   UNL     1      47.110   6.867  11.664  0.00  0.00    +0.000 N 
ATOM     26  C   UNL     1      45.746   6.873  11.747  0.00  0.00    +0.000 C 
ATOM     27  O   UNL     1      45.102   7.915  11.827  0.00  0.00    +0.000 OA
ATOM     28  H   UNL     1      47.622   6.002  11.810  0.00  0.00    +0.000 HD
BRANCH  26  29
ATOM     29  C   UNL     1      45.085   5.565  11.667  0.00  0.00    +0.000 A 
ATOM     30  C   UNL     1      44.423   5.068  12.781  0.00  0.00    +0.000 A 
ATOM     31  S   UNL     1      43.659   3.569  12.511  0.00  0.00    +0.000 S 
ATOM     32  C   UNL     1      44.228   3.505  10.908  0.00  0.00    +0.000 A 
ATOM     33  N   UNL     1      43.941   2.443  10.109  0.00  0.00    +0.000 NA
ATOM     34  C   UNL     1      44.454   2.513   8.927  0.00  0.00    +0.000 A 
ATOM     35  N   UNL     1      45.228   3.548   8.469  0.00  0.00    +0.000 N 
ATOM     36  C   UNL     1      45.526   4.652   9.233  0.00  0.00    +0.000 A 
ATOM     37  O   UNL     1      46.196   5.574   8.782  0.00  0.00    +0.000 OA
ATOM     38  C   UNL     1      44.976   4.622  10.577  0.00  0.00    +0.000 A 
ATOM     39  H   UNL     1      45.598   3.545   7.530  0.00  0.00    +0.000 HD
ENDBRANCH  26  29
ENDBRANCH  24  25
ENDBRANCH   4  24
TORSDOF 10
ENDMDL
MODEL 7
REMARK VINA RESULT:    -5.615      2.252      2.803
REMARK INTER + INTRA:         -10.655
REMARK INTER:                  -8.318
REMARK INTRA:                  -2.336
REMARK UNBOUND:                -1.756
REMARK  Name = 
REMARK  11 active torsions:
REMARK  status: ('A' for Active; 'I' for Inactive)
REMARK    1  A    between atoms: C_1  and  C_2
REMARK    2  A    between atoms: C_2  and  O_3
REMARK    3  A    between atoms: O_3  and  C_4
REMARK    4  A    between atoms: C_4  and  C_6
REMARK    5  A    between atoms: C_6  and  C_7
REMARK    6  A    between atoms: C_12  and  C_13
REMARK    7  A    between atoms: N_15  and  C_16
REMARK    8  A    between atoms: C_16  and  C_17
REMARK    9  A    between atoms: C_20  and  C_21
REMARK   10  A    between atoms: C_21  and  N_22
REMARK   11  A    between atoms: C_23  and  C_25
REMARK                            x       y       z     vdW  Elec       q    Type
REMARK                         _______ _______ _______ _____ _____    ______ ____
ROOT
ATOM      1  C   UNL     1      51.257   9.108  15.414  0.00  0.00    +0.000 A 
ATOM      2  C   UNL     1      50.739  10.344  15.001  0.00  0.00    +0.000 A 
ATOM      3  C   UNL     1      49.946  10.434  13.858  0.00  0.00    +0.000 A 
ATOM      4  C   UNL     1      49.663   9.290  13.101  0.00  0.00    +0.000 A 
ATOM      5  C   UNL     1      50.227   8.065  13.479  0.00  0.00    +0.000 A 
ATOM      6  C   UNL     1      51.014   7.973  14.626  0.00  0.00    +0.000 A 
ENDROOT
BRANCH   1   7
ATOM      7  C   UNL     1      51.943   8.976  16.748  0.00  0.00    +0.000 C 
BRANCH   7  10
ATOM      8  C   UNL     1      50.531   8.112  18.571  0.00  0.00    +0.000 C 
ATOM      9  O   UNL     1      50.181   9.243  18.893  0.00  0.00    +0.000 OA
ATOM     10  N   UNL     1      51.414   7.874  17.538  0.00  0.00    +0.000 N 
ATOM     11  H   UNL     1      51.437   6.950  17.132  0.00  0.00    +0.000 HD
BRANCH   8  17
ATOM     12  C   UNL     1      48.595   6.434  18.818  0.00  0.00    +0.000 C 
ATOM     13  C   UNL     1      47.516   7.421  19.305  0.00  0.00    +0.000 C 
ATOM     14  C   UNL     1      47.558   7.585  20.820  0.00  0.00    +0.000 C 
ATOM     15  C   UNL     1      48.947   7.961  21.325  0.00  0.00    +0.000 C 
ATOM     16  C   UNL     1      50.037   7.020  20.811  0.00  0.00    +0.000 C 
ATOM     17  C   UNL     1      50.016   6.856  19.282  0.00  0.00    +0.000 C 
BRANCH  12  18
ATOM     18  C   UNL     1      48.534   6.219  17.304  0.00  0.00    +0.000 C 
BRANCH  18  19
ATOM     19  C   UNL     1      49.302   4.999  16.878  0.00  0.00    +0.000 C 
ATOM     20  O   UNL     1      50.522   4.911  16.905  0.00  0.00    +0.000 OA
BRANCH  19  21
ATOM     21  O   UNL     1      48.445   4.063  16.389  0.00  0.00    +0.000 OA
BRANCH  21  23
ATOM     22  C   UNL     1      48.085   2.762  18.350  0.00  0.00    +0.000 C 
ATOM     23  C   UNL     1      48.606   2.746  16.923  0.00  0.00    +0.000 C 
ENDBRANCH  21  23
ENDBRANCH  19  21
ENDBRANCH  18  19
ENDBRANCH  12  18
ENDBRANCH   8  17
ENDBRANCH   7  10
ENDBRANCH   1   7
BRANCH   4  24
ATOM     24  C   UNL     1      48.813   9.379  11.865  0.00  0.00    +0.000 C 
BRANCH  24  25
ATOM     25  N   UNL     1      47.915   8.256  11.807  0.00  0.00    +0.000 N 
ATOM     26  C   UNL     1      46.631   8.341  12.269  0.00  0.00    +0.000 C 
ATOM     27  O   UNL     1      46.167   9.386  12.716  0.00  0.00    +0.000 OA
ATOM     28  H   UNL     1      48.334   7.346  11.642  0.00  0.00    +0.000 HD
BRANCH  26  29
ATOM     29  C   UNL     1      45.812   7.130  12.138  0.00  0.00    +0.000 A 
ATOM     30  C   UNL     1      44.583   7.206  11.499  0.00  0.00    +0.000 A 
ATOM     31  S   UNL     1      43.782   5.707  11.377  0.00  0.00    +0.000 S 
ATOM     32  C   UNL     1      45.028   4.910  12.218  0.00  0.00    +0.000 A 
ATOM     33  N   UNL     1      44.951   3.577  12.477  0.00  0.00    +0.000 NA
ATOM     34  C   UNL     1      45.952   3.107  13.142  0.00  0.00    +0.000 A 
ATOM     35  N   UNL     1      47.023   3.846  13.573  0.00  0.00    +0.000 N 
ATOM     36  C   UNL     1      47.154   5.190  13.316  0.00  0.00    +0.000 A 
ATOM     37  O   UNL     1      48.141   5.816  13.690  0.00  0.00    +0.000 OA
ATOM     38  C   UNL     1      46.051   5.773  12.573  0.00  0.00    +0.000 A 
ATOM     39  H   UNL     1      47.778   3.417  14.088  0.00  0.00    +0.000 HD
ENDBRANCH  26  29
ENDBRANCH  24  25
ENDBRANCH   4  24
TORSDOF 10
ENDMDL
MODEL 8
REMARK VINA RESULT:    -5.552      4.736      6.554
REMARK INTER + INTRA:         -10.553
REMARK INTER:                  -9.688
REMARK INTRA:                  -0.865
REMARK UNBOUND:                -1.756
REMARK  Name = 
REMARK  11 active torsions:
REMARK  status: ('A' for Active; 'I' for Inactive)
REMARK    1  A    between atoms: C_1  and  C_2
REMARK    2  A    between atoms: C_2  and  O_3
REMARK    3  A    between atoms: O_3  and  C_4
REMARK    4  A    between atoms: C_4  and  C_6
REMARK    5  A    between atoms: C_6  and  C_7
REMARK    6  A    between atoms: C_12  and  C_13
REMARK    7  A    between atoms: N_15  and  C_16
REMARK    8  A    between atoms: C_16  and  C_17
REMARK    9  A    between atoms: C_20  and  C_21
REMARK   10  A    between atoms: C_21  and  N_22
REMARK   11  A    between atoms: C_23  and  C_25
REMARK                            x       y       z     vdW  Elec       q    Type
REMARK                         _______ _______ _______ _____ _____    ______ ____
ROOT
ATOM      1  C   UNL     1      48.106   6.610  13.480  0.00  0.00    +0.000 A 
ATOM      2  C   UNL     1      48.162   6.959  12.122  0.00  0.00    +0.000 A 
ATOM      3  C   UNL     1      49.252   7.668  11.618  0.00  0.00    +0.000 A 
ATOM      4  C   UNL     1      50.301   8.050  12.463  0.00  0.00    +0.000 A 
ATOM      5  C   UNL     1      50.219   7.753  13.830  0.00  0.00    +0.000 A 
ATOM      6  C   UNL     1      49.134   7.037  14.333  0.00  0.00    +0.000 A 
ENDROOT
BRANCH   1   7
ATOM      7  C   UNL     1      47.035   5.678  13.984  0.00  0.00    +0.000 C 
BRANCH   7  10
ATOM      8  C   UNL     1      47.537   3.989  15.703  0.00  0.00    +0.000 C 
ATOM      9  O   UNL     1      47.604   3.095  14.866  0.00  0.00    +0.000 OA
ATOM     10  N   UNL     1      47.241   5.295  15.373  0.00  0.00    +0.000 N 
ATOM     11  H   UNL     1      47.484   6.022  16.030  0.00  0.00    +0.000 HD
BRANCH   8  17
ATOM     12  C   UNL     1      48.654   4.837  17.861  0.00  0.00    +0.000 C 
ATOM     13  C   UNL     1      50.118   4.770  17.386  0.00  0.00    +0.000 C 
ATOM     14  C   UNL     1      50.717   3.389  17.628  0.00  0.00    +0.000 C 
ATOM     15  C   UNL     1      49.869   2.275  17.024  0.00  0.00    +0.000 C 
ATOM     16  C   UNL     1      48.401   2.356  17.447  0.00  0.00    +0.000 C 
ATOM     17  C   UNL     1      47.780   3.740  17.196  0.00  0.00    +0.000 C 
BRANCH  12  18
ATOM     18  C   UNL     1      48.053   6.232  17.672  0.00  0.00    +0.000 C 
BRANCH  18  19
ATOM     19  C   UNL     1      47.666   6.859  18.983  0.00  0.00    +0.000 C 
ATOM     20  O   UNL     1      47.705   8.061  19.208  0.00  0.00    +0.000 OA
BRANCH  19  21
ATOM     21  O   UNL     1      47.354   5.889  19.884  0.00  0.00    +0.000 OA
BRANCH  21  23
ATOM     22  C   UNL     1      48.533   4.979  21.741  0.00  0.00    +0.000 C 
ATOM     23  C   UNL     1      47.729   6.165  21.236  0.00  0.00    +0.000 C 
ENDBRANCH  21  23
ENDBRANCH  19  21
ENDBRANCH  18  19
ENDBRANCH  12  18
ENDBRANCH   8  17
ENDBRANCH   7  10
ENDBRANCH   1   7
BRANCH   4  24
ATOM     24  C   UNL     1      51.476   8.819  11.929  0.00  0.00    +0.000 C 
BRANCH  24  25
ATOM     25  N   UNL     1      51.769   8.394  10.586  0.00  0.00    +0.000 N 
ATOM     26  C   UNL     1      52.903   8.798   9.937  0.00  0.00    +0.000 C 
ATOM     27  O   UNL     1      53.746   9.508  10.478  0.00  0.00    +0.000 OA
ATOM     28  H   UNL     1      51.000   7.991  10.057  0.00  0.00    +0.000 HD
BRANCH  26  29
ATOM     29  C   UNL     1      53.091   8.282   8.576  0.00  0.00    +0.000 A 
ATOM     30  C   UNL     1      52.988   9.151   7.499  0.00  0.00    +0.000 A 
ATOM     31  S   UNL     1      53.290   8.412   5.993  0.00  0.00    +0.000 S 
ATOM     32  C   UNL     1      53.520   6.892   6.722  0.00  0.00    +0.000 A 
ATOM     33  N   UNL     1      53.796   5.793   5.970  0.00  0.00    +0.000 NA
ATOM     34  C   UNL     1      53.923   4.703   6.648  0.00  0.00    +0.000 A 
ATOM     35  N   UNL     1      53.800   4.609   8.011  0.00  0.00    +0.000 N 
ATOM     36  C   UNL     1      53.543   5.695   8.814  0.00  0.00    +0.000 A 
ATOM     37  O   UNL     1      53.469   5.581  10.032  0.00  0.00    +0.000 OA
ATOM     38  C   UNL     1      53.386   6.950   8.099  0.00  0.00    +0.000 A 
ATOM     39  H   UNL     1      53.915   3.725   8.483  0.00  0.00    +0.000 HD
ENDBRANCH  26  29
ENDBRANCH  24  25
ENDBRANCH   4  24
TORSDOF 10
ENDMDL
MODEL 9
REMARK VINA RESULT:    -5.387      3.865      8.205
REMARK INTER + INTRA:         -10.293
REMARK INTER:                  -8.690
REMARK INTRA:                  -1.603
REMARK UNBOUND:                -1.756
REMARK  Name = 
REMARK  11 active torsions:
REMARK  status: ('A' for Active; 'I' for Inactive)
REMARK    1  A    between atoms: C_1  and  C_2
REMARK    2  A    between atoms: C_2  and  O_3
REMARK    3  A    between atoms: O_3  and  C_4
REMARK    4  A    between atoms: C_4  and  C_6
REMARK    5  A    between atoms: C_6  and  C_7
REMARK    6  A    between atoms: C_12  and  C_13
REMARK    7  A    between atoms: N_15  and  C_16
REMARK    8  A    between atoms: C_16  and  C_17
REMARK    9  A    between atoms: C_20  and  C_21
REMARK   10  A    between atoms: C_21  and  N_22
REMARK   11  A    between atoms: C_23  and  C_25
REMARK                            x       y       z     vdW  Elec       q    Type
REMARK                         _______ _______ _______ _____ _____    ______ ____
ROOT
ATOM      1  C   UNL     1      46.641   9.423  12.228  0.00  0.00    +0.000 A 
ATOM      2  C   UNL     1      47.318   8.827  13.302  0.00  0.00    +0.000 A 
ATOM      3  C   UNL     1      48.534   9.343  13.748  0.00  0.00    +0.000 A 
ATOM      4  C   UNL     1      49.101  10.459  13.121  0.00  0.00    +0.000 A 
ATOM      5  C   UNL     1      48.456  11.021  12.011  0.00  0.00    +0.000 A 
ATOM      6  C   UNL     1      47.236  10.510  11.571  0.00  0.00    +0.000 A 
ENDROOT
BRANCH   1   7
ATOM      7  C   UNL     1      45.241   8.993  11.876  0.00  0.00    +0.000 C 
BRANCH   7  10
ATOM      8  C   UNL     1      45.020   6.560  12.181  0.00  0.00    +0.000 C 
ATOM      9  O   UNL     1      45.548   6.333  11.098  0.00  0.00    +0.000 OA
ATOM     10  N   UNL     1      44.803   7.840  12.648  0.00  0.00    +0.000 N 
ATOM     11  H   UNL     1      44.645   7.968  13.637  0.00  0.00    +0.000 HD
BRANCH   8  17
ATOM     12  C   UNL     1      45.400   4.148  12.993  0.00  0.00    +0.000 C 
ATOM     13  C   UNL     1      45.149   3.428  11.654  0.00  0.00    +0.000 C 
ATOM     14  C   UNL     1      43.669   3.120  11.459  0.00  0.00    +0.000 C 
ATOM     15  C   UNL     1      42.793   4.359  11.615  0.00  0.00    +0.000 C 
ATOM     16  C   UNL     1      43.065   5.114  12.918  0.00  0.00    +0.000 C 
ATOM     17  C   UNL     1      44.553   5.443  13.121  0.00  0.00    +0.000 C 
BRANCH  12  18
ATOM     18  C   UNL     1      46.888   4.418  13.228  0.00  0.00    +0.000 C 
BRANCH  18  19
ATOM     19  C   UNL     1      47.202   4.606  14.687  0.00  0.00    +0.000 C 
ATOM     20  O   UNL     1      46.823   3.853  15.574  0.00  0.00    +0.000 OA
BRANCH  19  21
ATOM     21  O   UNL     1      47.886   5.768  14.865  0.00  0.00    +0.000 OA
BRANCH  21  23
ATOM     22  C   UNL     1      49.867   6.488  15.972  0.00  0.00    +0.000 C 
ATOM     23  C   UNL     1      48.460   5.949  16.163  0.00  0.00    +0.000 C 
ENDBRANCH  21  23
ENDBRANCH  19  21
ENDBRANCH  18  19
ENDBRANCH  12  18
ENDBRANCH   8  17
ENDBRANCH   7  10
ENDBRANCH   1   7
BRANCH   4  24
ATOM     24  C   UNL     1      50.414  11.019  13.592  0.00  0.00    +0.000 C 
BRANCH  24  25
ATOM     25  N   UNL     1      51.290   9.948  13.985  0.00  0.00    +0.000 N 
ATOM     26  C   UNL     1      52.054  10.026  15.117  0.00  0.00    +0.000 C 
ATOM     27  O   UNL     1      52.002  10.991  15.874  0.00  0.00    +0.000 OA
ATOM     28  H   UNL     1      51.503   9.251  13.278  0.00  0.00    +0.000 HD
BRANCH  26  29
ATOM     29  C   UNL     1      52.894   8.859  15.415  0.00  0.00    +0.000 A 
ATOM     30  C   UNL     1      53.055   8.457  16.733  0.00  0.00    +0.000 A 
ATOM     31  S   UNL     1      54.009   7.056  16.908  0.00  0.00    +0.000 S 
ATOM     32  C   UNL     1      54.282   6.965  15.231  0.00  0.00    +0.000 A 
ATOM     33  N   UNL     1      55.058   5.981  14.704  0.00  0.00    +0.000 NA
ATOM     34  C   UNL     1      55.201   6.044  13.423  0.00  0.00    +0.000 A 
ATOM     35  N   UNL     1      54.638   7.002  12.619  0.00  0.00    +0.000 N 
ATOM     36  C   UNL     1      53.830   8.003  13.103  0.00  0.00    +0.000 A 
ATOM     37  O   UNL     1      53.318   8.826  12.353  0.00  0.00    +0.000 OA
ATOM     38  C   UNL     1      53.639   7.980  14.543  0.00  0.00    +0.000 A 
ATOM     39  H   UNL     1      54.786   6.994  11.621  0.00  0.00    +0.000 HD
ENDBRANCH  26  29
ENDBRANCH  24  25
ENDBRANCH   4  24
TORSDOF 10
ENDMDL
