MODEL 1
REMARK VINA RESULT:    -8.344      0.000      0.000
REMARK INTER + INTRA:         -12.166
REMARK INTER:                 -11.271
REMARK INTRA:                  -0.896
REMARK UNBOUND:                -0.896
REMARK  Name = 
REMARK  6 active torsions:
REMARK  status: ('A' for Active; 'I' for Inactive)
REMARK    1  A    between atoms: C_2  and  C_4
REMARK    2  A    between atoms: C_7  and  C_8
REMARK    3  A    between atoms: C_8  and  N_9
REMARK    4  A    between atoms: C_16  and  C_17
REMARK    5  A    between atoms: C_17  and  N_18
REMARK    6  A    between atoms: C_19  and  C_21
REMARK                            x       y       z     vdW  Elec       q    Type
REMARK                         _______ _______ _______ _____ _____    ______ ____
ROOT
ATOM      1  C   UNL     1      43.652   4.565  11.515  0.00  0.00    +0.000 A 
ATOM      2  C   UNL     1      43.155   3.262  11.344  0.00  0.00    +0.000 A 
ATOM      3  C   UNL     1      43.767   2.362  10.485  0.00  0.00    +0.000 A 
ATOM      4  C   UNL     1      44.872   2.751   9.726  0.00  0.00    +0.000 A 
ATOM      5  C   UNL     1      45.365   4.062   9.883  0.00  0.00    +0.000 A 
ATOM      6  C   UNL     1      44.798   4.977  10.798  0.00  0.00    +0.000 A 
ENDROOT
BRANCH   1   8
ATOM      7  N   UNL     1      42.040   6.343  11.892  0.00  0.00    +0.000 N 
ATOM      8  C   UNL     1      42.883   5.407  12.469  0.00  0.00    +0.000 C 
ATOM      9  O   UNL     1      43.001   5.324  13.660  0.00  0.00    +0.000 OA
ATOM     10  H   UNL     1      41.448   6.862  12.529  0.00  0.00    +0.000 HD
ATOM     11  H   UNL     1      41.686   6.199  10.961  0.00  0.00    +0.000 HD
ENDBRANCH   1   8
BRANCH   4  12
ATOM     12  C   UNL     1      45.568   1.766   8.799  0.00  0.00    +0.000 C 
BRANCH  12  13
ATOM     13  N   UNL     1      46.571   2.359   7.886  0.00  0.00    +0.000 NA
ATOM     14  C   UNL     1      47.443   1.324   7.311  0.00  0.00    +0.000 C 
ATOM     15  C   UNL     1      48.281   1.768   6.113  0.00  0.00    +0.000 C 
ATOM     16  C   UNL     1      47.444   2.503   5.080  0.00  0.00    +0.000 C 
ATOM     17  C   UNL     1      46.764   3.694   5.733  0.00  0.00    +0.000 C 
ATOM     18  C   UNL     1      45.916   3.278   6.937  0.00  0.00    +0.000 C 
ENDBRANCH  12  13
ENDBRANCH   4  12
BRANCH   6  19
ATOM     19  C   UNL     1      45.490   6.304  10.995  0.00  0.00    +0.000 C 
BRANCH  19  20
ATOM     20  N   UNL     1      46.228   6.351  12.228  0.00  0.00    +0.000 N 
ATOM     21  C   UNL     1      47.520   6.740  12.381  0.00  0.00    +0.000 C 
ATOM     22  O   UNL     1      48.213   7.193  11.471  0.00  0.00    +0.000 OA
ATOM     23  H   UNL     1      45.666   6.280  13.066  0.00  0.00    +0.000 HD
BRANCH  21  24
ATOM     24  C   UNL     1      47.990   6.662  13.770  0.00  0.00    +0.000 A 
ATOM     25  C   UNL     1      48.769   7.674  14.308  0.00  0.00    +0.000 A 
ATOM     26  S   UNL     1      49.184   7.412  15.942  0.00  0.00    +0.000 S 
ATOM     27  C   UNL     1      48.345   5.930  15.983  0.00  0.00    +0.000 A 
ATOM     28  N   UNL     1      48.321   5.173  17.113  0.00  0.00    +0.000 NA
ATOM     29  C   UNL     1      47.634   4.086  17.012  0.00  0.00    +0.000 A 
ATOM     30  N   UNL     1      46.962   3.686  15.888  0.00  0.00    +0.000 N 
ATOM     31  C   UNL     1      46.984   4.397  14.709  0.00  0.00    +0.000 A 
ATOM     32  O   UNL     1      46.405   3.971  13.717  0.00  0.00    +0.000 OA
ATOM     33  C   UNL     1      47.736   5.643  14.773  0.00  0.00    +0.000 A 
ATOM     34  H   UNL     1      46.444   2.821  15.868  0.00  0.00    +0.000 HD
ENDBRANCH  21  24
ENDBRANCH  19  20
ENDBRANCH   6  19
TORSDOF 6
ENDMDL
MODEL 2
REMARK VINA RESULT:    -8.328      3.953      9.597
REMARK INTER + INTRA:         -12.145
REMARK INTER:                 -11.247
REMARK INTRA:                  -0.898
REMARK UNBOUND:                -0.896
REMARK  Name = 
REMARK  6 active torsions:
REMARK  status: ('A' for Active; 'I' for Inactive)
REMARK    1  A    between atoms: C_2  and  C_4
REMARK    2  A    between atoms: C_7  and  C_8
REMARK    3  A    between atoms: C_8  and  N_9
REMARK    4  A    between atoms: C_16  and  C_17
REMARK    5  A    between atoms: C_17  and  N_18
REMARK    6  A    between atoms: C_19  and  C_21
REMARK                            x       y       z     vdW  Elec       q    Type
REMARK                         _______ _______ _______ _____ _____    ______ ____
ROOT
ATOM      1  C   UNL     1      49.814   3.431  17.427  0.00  0.00    +0.000 A 
ATOM      2  C   UNL     1      50.922   3.993  18.081  0.00  0.00    +0.000 A 
ATOM      3  C   UNL     1      50.869   5.266  18.628  0.00  0.00    +0.000 A 
ATOM      4  C   UNL     1      49.716   6.043  18.496  0.00  0.00    +0.000 A 
ATOM      5  C   UNL     1      48.607   5.488  17.826  0.00  0.00    +0.000 A 
ATOM      6  C   UNL     1      48.615   4.171  17.316  0.00  0.00    +0.000 A 
ENDROOT
BRANCH   1   8
ATOM      7  N   UNL     1      50.866   1.252  17.652  0.00  0.00    +0.000 N 
ATOM      8  C   UNL     1      50.032   2.059  16.894  0.00  0.00    +0.000 C 
ATOM      9  O   UNL     1      49.561   1.674  15.862  0.00  0.00    +0.000 OA
ATOM     10  H   UNL     1      50.952   0.290  17.346  0.00  0.00    +0.000 HD
ATOM     11  H   UNL     1      50.980   1.426  18.636  0.00  0.00    +0.000 HD
ENDBRANCH   1   8
BRANCH   4  12
ATOM     12  C   UNL     1      49.636   7.431  19.113  0.00  0.00    +0.000 C 
BRANCH  12  13
ATOM     13  N   UNL     1      48.318   7.794  19.680  0.00  0.00    +0.000 NA
ATOM     14  C   UNL     1      48.300   7.620  21.140  0.00  0.00    +0.000 C 
ATOM     15  C   UNL     1      47.125   8.276  21.862  0.00  0.00    +0.000 C 
ATOM     16  C   UNL     1      46.922   9.715  21.418  0.00  0.00    +0.000 C 
ATOM     17  C   UNL     1      46.721   9.757  19.912  0.00  0.00    +0.000 C 
ATOM     18  C   UNL     1      47.885   9.106  19.163  0.00  0.00    +0.000 C 
ENDBRANCH  12  13
ENDBRANCH   4  12
BRANCH   6  19
ATOM     19  C   UNL     1      47.329   3.622  16.748  0.00  0.00    +0.000 C 
BRANCH  19  20
ATOM     20  N   UNL     1      46.810   4.446  15.691  0.00  0.00    +0.000 N 
ATOM     21  C   UNL     1      46.824   4.159  14.363  0.00  0.00    +0.000 C 
ATOM     22  O   UNL     1      47.217   3.092  13.895  0.00  0.00    +0.000 OA
ATOM     23  H   UNL     1      46.209   5.201  15.993  0.00  0.00    +0.000 HD
BRANCH  21  24
ATOM     24  C   UNL     1      46.227   5.215  13.535  0.00  0.00    +0.000 A 
ATOM     25  C   UNL     1      46.908   6.400  13.307  0.00  0.00    +0.000 A 
ATOM     26  S   UNL     1      46.060   7.482  12.295  0.00  0.00    +0.000 S 
ATOM     27  C   UNL     1      44.750   6.407  12.137  0.00  0.00    +0.000 A 
ATOM     28  N   UNL     1      43.658   6.742  11.397  0.00  0.00    +0.000 NA
ATOM     29  C   UNL     1      42.748   5.829  11.345  0.00  0.00    +0.000 A 
ATOM     30  N   UNL     1      42.829   4.608  11.960  0.00  0.00    +0.000 N 
ATOM     31  C   UNL     1      43.894   4.234  12.748  0.00  0.00    +0.000 A 
ATOM     32  O   UNL     1      43.896   3.148  13.314  0.00  0.00    +0.000 OA
ATOM     33  C   UNL     1      44.958   5.226  12.828  0.00  0.00    +0.000 A 
ATOM     34  H   UNL     1      42.082   3.935  11.885  0.00  0.00    +0.000 HD
ENDBRANCH  21  24
ENDBRANCH  19  20
ENDBRANCH   6  19
TORSDOF 6
ENDMDL
MODEL 3
REMARK VINA RESULT:    -8.153      2.339      3.983
REMARK INTER + INTRA:         -11.909
REMARK INTER:                 -11.605
REMARK INTRA:                  -0.304
REMARK UNBOUND:                -0.896
REMARK  Name = 
REMARK  6 active torsions:
REMARK  status: ('A' for Active; 'I' for Inactive)
REMARK    1  A    between atoms: C_2  and  C_4
REMARK    2  A    between atoms: C_7  and  C_8
REMARK    3  A    between atoms: C_8  and  N_9
REMARK    4  A    between atoms: C_16  and  C_17
REMARK    5  A    between atoms: C_17  and  N_18
REMARK    6  A    between atoms: C_19  and  C_21
REMARK                            x       y       z     vdW  Elec       q    Type
REMARK                         _______ _______ _______ _____ _____    ______ ____
ROOT
ATOM      1  C   UNL     1      46.741   5.899  12.562  0.00  0.00    +0.000 A 
ATOM      2  C   UNL     1      46.661   6.373  11.243  0.00  0.00    +0.000 A 
ATOM      3  C   UNL     1      45.805   5.795  10.318  0.00  0.00    +0.000 A 
ATOM      4  C   UNL     1      45.033   4.686  10.669  0.00  0.00    +0.000 A 
ATOM      5  C   UNL     1      45.123   4.197  11.987  0.00  0.00    +0.000 A 
ATOM      6  C   UNL     1      45.939   4.807  12.965  0.00  0.00    +0.000 A 
ENDROOT
BRANCH   1   8
ATOM      7  N   UNL     1      47.229   7.791  14.006  0.00  0.00    +0.000 N 
ATOM      8  C   UNL     1      47.707   6.625  13.429  0.00  0.00    +0.000 C 
ATOM      9  O   UNL     1      48.838   6.264  13.598  0.00  0.00    +0.000 OA
ATOM     10  H   UNL     1      47.848   8.247  14.666  0.00  0.00    +0.000 HD
ATOM     11  H   UNL     1      46.242   7.916  14.151  0.00  0.00    +0.000 HD
ENDBRANCH   1   8
BRANCH   4  12
ATOM     12  C   UNL     1      44.072   4.058   9.671  0.00  0.00    +0.000 C 
BRANCH  12  13
ATOM     13  N   UNL     1      44.711   3.328   8.552  0.00  0.00    +0.000 NA
ATOM     14  C   UNL     1      45.595   4.212   7.778  0.00  0.00    +0.000 C 
ATOM     15  C   UNL     1      46.555   3.503   6.824  0.00  0.00    +0.000 C 
ATOM     16  C   UNL     1      47.283   2.356   7.505  0.00  0.00    +0.000 C 
ATOM     17  C   UNL     1      46.269   1.379   8.076  0.00  0.00    +0.000 C 
ATOM     18  C   UNL     1      45.295   2.063   9.036  0.00  0.00    +0.000 C 
ENDBRANCH  12  13
ENDBRANCH   4  12
BRANCH   6  19
ATOM     19  C   UNL     1      45.851   4.297  14.383  0.00  0.00    +0.000 C 
BRANCH  19  20
ATOM     20  N   UNL     1      47.054   4.556  15.126  0.00  0.00    +0.000 N 
ATOM     21  C   UNL     1      47.316   4.163  16.400  0.00  0.00    +0.000 C 
ATOM     22  O   UNL     1      46.570   3.445  17.064  0.00  0.00    +0.000 OA
ATOM     23  H   UNL     1      47.836   4.881  14.574  0.00  0.00    +0.000 HD
BRANCH  21  24
ATOM     24  C   UNL     1      48.634   4.598  16.882  0.00  0.00    +0.000 A 
ATOM     25  C   UNL     1      48.883   5.937  17.135  0.00  0.00    +0.000 A 
ATOM     26  S   UNL     1      50.460   6.232  17.718  0.00  0.00    +0.000 S 
ATOM     27  C   UNL     1      50.865   4.579  17.642  0.00  0.00    +0.000 A 
ATOM     28  N   UNL     1      52.106   4.148  17.996  0.00  0.00    +0.000 NA
ATOM     29  C   UNL     1      52.272   2.872  17.909  0.00  0.00    +0.000 A 
ATOM     30  N   UNL     1      51.311   1.983  17.507  0.00  0.00    +0.000 N 
ATOM     31  C   UNL     1      50.052   2.370  17.105  0.00  0.00    +0.000 A 
ATOM     32  O   UNL     1      49.245   1.540  16.709  0.00  0.00    +0.000 OA
ATOM     33  C   UNL     1      49.808   3.804  17.197  0.00  0.00    +0.000 A 
ATOM     34  H   UNL     1      51.501   0.994  17.456  0.00  0.00    +0.000 HD
ENDBRANCH  21  24
ENDBRANCH  19  20
ENDBRANCH   6  19
TORSDOF 6
ENDMDL
MODEL 4
REMARK VINA RESULT:    -8.033      1.704      2.812
REMARK INTER + INTRA:         -11.747
REMARK INTER:                 -11.809
REMARK INTRA:                   0.062
REMARK UNBOUND:                -0.896
REMARK  Name = 
REMARK  6 active torsions:
REMARK  status: ('A' for Active; 'I' for Inactive)
REMARK    1  A    between atoms: C_2  and  C_4
REMARK    2  A    between atoms: C_7  and  C_8
REMARK    3  A    between atoms: C_8  and  N_9
REMARK    4  A    between atoms: C_16  and  C_17
REMARK    5  A    between atoms: C_17  and  N_18
REMARK    6  A    between atoms: C_19  and  C_21
REMARK                            x       y       z     vdW  Elec       q    Type
REMARK                         _______ _______ _______ _____ _____    ______ ____
ROOT
ATOM      1  C   UNL     1      45.666   5.849  11.233  0.00  0.00    +0.000 A 
ATOM      2  C   UNL     1      45.877   5.851   9.844  0.00  0.00    +0.000 A 
ATOM      3  C   UNL     1      45.484   4.782   9.052  0.00  0.00    +0.000 A 
ATOM      4  C   UNL     1      44.909   3.649   9.631  0.00  0.00    +0.000 A 
ATOM      5  C   UNL     1      44.711   3.637  11.026  0.00  0.00    +0.000 A 
ATOM      6  C   UNL     1      45.044   4.738  11.846  0.00  0.00    +0.000 A 
ENDROOT
BRANCH   1   8
ATOM      7  N   UNL     1      47.511   7.296  11.871  0.00  0.00    +0.000 N 
ATOM      8  C   UNL     1      46.146   7.067  11.939  0.00  0.00    +0.000 C 
ATOM      9  O   UNL     1      45.422   7.791  12.562  0.00  0.00    +0.000 OA
ATOM     10  H   UNL     1      47.837   8.166  12.274  0.00  0.00    +0.000 HD
ATOM     11  H   UNL     1      48.049   6.920  11.110  0.00  0.00    +0.000 HD
ENDBRANCH   1   8
BRANCH   4  12
ATOM     12  C   UNL     1      44.451   2.482   8.771  0.00  0.00    +0.000 C 
BRANCH  12  13
ATOM     13  N   UNL     1      45.348   2.137   7.645  0.00  0.00    +0.000 NA
ATOM     14  C   UNL     1      45.764   3.340   6.910  0.00  0.00    +0.000 C 
ATOM     15  C   UNL     1      46.941   3.148   5.955  0.00  0.00    +0.000 C 
ATOM     16  C   UNL     1      48.092   2.410   6.618  0.00  0.00    +0.000 C 
ATOM     17  C   UNL     1      47.600   1.072   7.145  0.00  0.00    +0.000 C 
ATOM     18  C   UNL     1      46.421   1.236   8.106  0.00  0.00    +0.000 C 
ENDBRANCH  12  13
ENDBRANCH   4  12
BRANCH   6  19
ATOM     19  C   UNL     1      44.656   4.681  13.304  0.00  0.00    +0.000 C 
BRANCH  19  20
ATOM     20  N   UNL     1      45.732   5.087  14.166  0.00  0.00    +0.000 N 
ATOM     21  C   UNL     1      46.834   4.357  14.480  0.00  0.00    +0.000 C 
ATOM     22  O   UNL     1      47.096   3.261  13.986  0.00  0.00    +0.000 OA
ATOM     23  H   UNL     1      45.755   6.074  14.386  0.00  0.00    +0.000 HD
BRANCH  21  24
ATOM     24  C   UNL     1      47.746   5.048  15.401  0.00  0.00    +0.000 A 
ATOM     25  C   UNL     1      48.460   6.159  14.982  0.00  0.00    +0.000 A 
ATOM     26  S   UNL     1      49.437   6.836  16.207  0.00  0.00    +0.000 S 
ATOM     27  C   UNL     1      48.944   5.660  17.336  0.00  0.00    +0.000 A 
ATOM     28  N   UNL     1      49.437   5.662  18.605  0.00  0.00    +0.000 NA
ATOM     29  C   UNL     1      48.967   4.729  19.361  0.00  0.00    +0.000 A 
ATOM     30  N   UNL     1      48.043   3.796  18.970  0.00  0.00    +0.000 N 
ATOM     31  C   UNL     1      47.541   3.728  17.690  0.00  0.00    +0.000 A 
ATOM     32  O   UNL     1      46.753   2.844  17.379  0.00  0.00    +0.000 OA
ATOM     33  C   UNL     1      48.031   4.771  16.797  0.00  0.00    +0.000 A 
ATOM     34  H   UNL     1      47.715   3.087  19.607  0.00  0.00    +0.000 HD
ENDBRANCH  21  24
ENDBRANCH  19  20
ENDBRANCH   6  19
TORSDOF 6
ENDMDL
MODEL 5
REMARK VINA RESULT:    -8.029      2.557      4.694
REMARK INTER + INTRA:         -11.741
REMARK INTER:                 -11.007
REMARK INTRA:                  -0.734
REMARK UNBOUND:                -0.896
REMARK  Name = 
REMARK  6 active torsions:
REMARK  status: ('A' for Active; 'I' for Inactive)
REMARK    1  A    between atoms: C_2  and  C_4
REMARK    2  A    between atoms: C_7  and  C_8
REMARK    3  A    between atoms: C_8  and  N_9
REMARK    4  A    between atoms: C_16  and  C_17
REMARK    5  A    between atoms: C_17  and  N_18
REMARK    6  A    between atoms: C_19  and  C_21
REMARK                            x       y       z     vdW  Elec       q    Type
REMARK                         _______ _______ _______ _____ _____    ______ ____
ROOT
ATOM      1  C   UNL     1      46.952   6.293  13.404  0.00  0.00    +0.000 A 
ATOM      2  C   UNL     1      46.277   7.164  12.532  0.00  0.00    +0.000 A 
ATOM      3  C   UNL     1      45.199   6.734  11.774  0.00  0.00    +0.000 A 
ATOM      4  C   UNL     1      44.788   5.401  11.823  0.00  0.00    +0.000 A 
ATOM      5  C   UNL     1      45.473   4.520  12.684  0.00  0.00    +0.000 A 
ATOM      6  C   UNL     1      46.533   4.948  13.514  0.00  0.00    +0.000 A 
ENDROOT
BRANCH   1   8
ATOM      7  N   UNL     1      47.761   7.996  14.936  0.00  0.00    +0.000 N 
ATOM      8  C   UNL     1      48.086   6.906  14.144  0.00  0.00    +0.000 C 
ATOM      9  O   UNL     1      49.218   6.523  14.045  0.00  0.00    +0.000 OA
ATOM     10  H   UNL     1      48.508   8.367  15.512  0.00  0.00    +0.000 HD
ATOM     11  H   UNL     1      46.824   8.106  15.285  0.00  0.00    +0.000 HD
ENDBRANCH   1   8
BRANCH   4  12
ATOM     12  C   UNL     1      43.591   4.923  11.015  0.00  0.00    +0.000 C 
BRANCH  12  13
ATOM     13  N   UNL     1      43.920   4.128   9.810  0.00  0.00    +0.000 NA
ATOM     14  C   UNL     1      45.049   4.720   9.076  0.00  0.00    +0.000 C 
ATOM     15  C   UNL     1      45.687   3.817   8.022  0.00  0.00    +0.000 C 
ATOM     16  C   UNL     1      45.976   2.429   8.568  0.00  0.00    +0.000 C 
ATOM     17  C   UNL     1      44.690   1.815   9.097  0.00  0.00    +0.000 C 
ATOM     18  C   UNL     1      44.030   2.699  10.156  0.00  0.00    +0.000 C 
ENDBRANCH  12  13
ENDBRANCH   4  12
BRANCH   6  19
ATOM     19  C   UNL     1      47.101   3.961  14.505  0.00  0.00    +0.000 C 
BRANCH  19  20
ATOM     20  N   UNL     1      47.491   4.594  15.735  0.00  0.00    +0.000 N 
ATOM     21  C   UNL     1      47.161   4.191  16.990  0.00  0.00    +0.000 C 
ATOM     22  O   UNL     1      46.542   3.158  17.239  0.00  0.00    +0.000 OA
ATOM     23  H   UNL     1      48.235   5.273  15.650  0.00  0.00    +0.000 HD
BRANCH  21  24
ATOM     24  C   UNL     1      47.705   5.062  18.041  0.00  0.00    +0.000 A 
ATOM     25  C   UNL     1      46.858   5.813  18.841  0.00  0.00    +0.000 A 
ATOM     26  S   UNL     1      47.680   6.731  20.020  0.00  0.00    +0.000 S 
ATOM     27  C   UNL     1      49.197   6.164  19.495  0.00  0.00    +0.000 A 
ATOM     28  N   UNL     1      50.345   6.588  20.090  0.00  0.00    +0.000 NA
ATOM     29  C   UNL     1      51.421   6.066  19.607  0.00  0.00    +0.000 A 
ATOM     30  N   UNL     1      51.458   5.152  18.587  0.00  0.00    +0.000 N 
ATOM     31  C   UNL     1      50.330   4.717  17.928  0.00  0.00    +0.000 A 
ATOM     32  O   UNL     1      50.422   3.935  16.991  0.00  0.00    +0.000 OA
ATOM     33  C   UNL     1      49.084   5.268  18.446  0.00  0.00    +0.000 A 
ATOM     34  H   UNL     1      52.332   4.781  18.250  0.00  0.00    +0.000 HD
ENDBRANCH  21  24
ENDBRANCH  19  20
ENDBRANCH   6  19
TORSDOF 6
ENDMDL
MODEL 6
REMARK VINA RESULT:    -7.981      3.869      8.710
REMARK INTER + INTRA:         -11.676
REMARK INTER:                 -10.748
REMARK INTRA:                  -0.928
REMARK UNBOUND:                -0.896
REMARK  Name = 
REMARK  6 active torsions:
REMARK  status: ('A' for Active; 'I' for Inactive)
REMARK    1  A    between atoms: C_2  and  C_4
REMARK    2  A    between atoms: C_7  and  C_8
REMARK    3  A    between atoms: C_8  and  N_9
REMARK    4  A    between atoms: C_16  and  C_17
REMARK    5  A    between atoms: C_17  and  N_18
REMARK    6  A    between atoms: C_19  and  C_21
REMARK                            x       y       z     vdW  Elec       q    Type
REMARK                         _______ _______ _______ _____ _____    ______ ____
ROOT
ATOM      1  C   UNL     1      49.895   3.367  17.454  0.00  0.00    +0.000 A 
ATOM      2  C   UNL     1      51.014   3.906  18.110  0.00  0.00    +0.000 A 
ATOM      3  C   UNL     1      50.974   5.166  18.689  0.00  0.00    +0.000 A 
ATOM      4  C   UNL     1      49.824   5.952  18.589  0.00  0.00    +0.000 A 
ATOM      5  C   UNL     1      48.705   5.420  17.918  0.00  0.00    +0.000 A 
ATOM      6  C   UNL     1      48.699   4.116  17.375  0.00  0.00    +0.000 A 
ENDROOT
BRANCH   1   8
ATOM      7  N   UNL     1      50.945   1.181  17.608  0.00  0.00    +0.000 N 
ATOM      8  C   UNL     1      50.100   2.008  16.885  0.00  0.00    +0.000 C 
ATOM      9  O   UNL     1      49.608   1.648  15.853  0.00  0.00    +0.000 OA
ATOM     10  H   UNL     1      51.024   0.226  17.278  0.00  0.00    +0.000 HD
ATOM     11  H   UNL     1      51.078   1.331  18.593  0.00  0.00    +0.000 HD
ENDBRANCH   1   8
BRANCH   4  12
ATOM     12  C   UNL     1      49.759   7.324  19.242  0.00  0.00    +0.000 C 
BRANCH  12  13
ATOM     13  N   UNL     1      49.628   8.463  18.305  0.00  0.00    +0.000 NA
ATOM     14  C   UNL     1      50.487   8.281  17.125  0.00  0.00    +0.000 C 
ATOM     15  C   UNL     1      50.187   9.209  15.949  0.00  0.00    +0.000 C 
ATOM     16  C   UNL     1      48.703   9.244  15.623  0.00  0.00    +0.000 C 
ATOM     17  C   UNL     1      47.923   9.667  16.856  0.00  0.00    +0.000 C 
ATOM     18  C   UNL     1      48.204   8.753  18.051  0.00  0.00    +0.000 C 
ENDBRANCH  12  13
ENDBRANCH   4  12
BRANCH   6  19
ATOM     19  C   UNL     1      47.404   3.588  16.807  0.00  0.00    +0.000 C 
BRANCH  19  20
ATOM     20  N   UNL     1      46.885   4.434  15.768  0.00  0.00    +0.000 N 
ATOM     21  C   UNL     1      46.899   4.175  14.434  0.00  0.00    +0.000 C 
ATOM     22  O   UNL     1      47.292   3.117  13.944  0.00  0.00    +0.000 OA
ATOM     23  H   UNL     1      46.285   5.183  16.085  0.00  0.00    +0.000 HD
BRANCH  21  24
ATOM     24  C   UNL     1      46.302   5.248  13.628  0.00  0.00    +0.000 A 
ATOM     25  C   UNL     1      46.940   6.472  13.503  0.00  0.00    +0.000 A 
ATOM     26  S   UNL     1      46.104   7.570  12.501  0.00  0.00    +0.000 S 
ATOM     27  C   UNL     1      44.855   6.449  12.208  0.00  0.00    +0.000 A 
ATOM     28  N   UNL     1      43.793   6.777  11.422  0.00  0.00    +0.000 NA
ATOM     29  C   UNL     1      42.931   5.831  11.269  0.00  0.00    +0.000 A 
ATOM     30  N   UNL     1      43.032   4.582  11.822  0.00  0.00    +0.000 N 
ATOM     31  C   UNL     1      44.067   4.211  12.652  0.00  0.00    +0.000 A 
ATOM     32  O   UNL     1      44.086   3.098  13.161  0.00  0.00    +0.000 OA
ATOM     33  C   UNL     1      45.078   5.243  12.848  0.00  0.00    +0.000 A 
ATOM     34  H   UNL     1      42.323   3.883  11.669  0.00  0.00    +0.000 HD
ENDBRANCH  21  24
ENDBRANCH  19  20
ENDBRANCH   6  19
TORSDOF 6
ENDMDL
MODEL 7
REMARK VINA RESULT:    -7.805      3.869      9.411
REMARK INTER + INTRA:         -11.439
REMARK INTER:                 -10.073
REMARK INTRA:                  -1.366
REMARK UNBOUND:                -0.896
REMARK  Name = 
REMARK  6 active torsions:
REMARK  status: ('A' for Active; 'I' for Inactive)
REMARK    1  A    between atoms: C_2  and  C_4
REMARK    2  A    between atoms: C_7  and  C_8
REMARK    3  A    between atoms: C_8  and  N_9
REMARK    4  A    between atoms: C_16  and  C_17
REMARK    5  A    between atoms: C_17  and  N_18
REMARK    6  A    between atoms: C_19  and  C_21
REMARK                            x       y       z     vdW  Elec       q    Type
REMARK                         _______ _______ _______ _____ _____    ______ ____
ROOT
ATOM      1  C   UNL     1      48.242   5.248  17.713  0.00  0.00    +0.000 A 
ATOM      2  C   UNL     1      47.761   5.250  19.032  0.00  0.00    +0.000 A 
ATOM      3  C   UNL     1      47.713   6.416  19.782  0.00  0.00    +0.000 A 
ATOM      4  C   UNL     1      48.191   7.616  19.251  0.00  0.00    +0.000 A 
ATOM      5  C   UNL     1      48.689   7.614  17.933  0.00  0.00    +0.000 A 
ATOM      6  C   UNL     1      48.691   6.453  17.128  0.00  0.00    +0.000 A 
ENDROOT
BRANCH   1   8
ATOM      7  N   UNL     1      46.977   3.424  16.725  0.00  0.00    +0.000 N 
ATOM      8  C   UNL     1      48.231   3.918  17.046  0.00  0.00    +0.000 C 
ATOM      9  O   UNL     1      49.226   3.285  16.829  0.00  0.00    +0.000 OA
ATOM     10  H   UNL     1      46.961   2.561  16.194  0.00  0.00    +0.000 HD
ATOM     11  H   UNL     1      46.205   4.054  16.588  0.00  0.00    +0.000 HD
ENDBRANCH   1   8
BRANCH   4  12
ATOM     12  C   UNL     1      48.119   8.906  20.053  0.00  0.00    +0.000 C 
BRANCH  12  13
ATOM     13  N   UNL     1      47.120   9.890  19.579  0.00  0.00    +0.000 NA
ATOM     14  C   UNL     1      46.194  10.268  20.657  0.00  0.00    +0.000 C 
ATOM     15  C   UNL     1      45.347  11.509  20.385  0.00  0.00    +0.000 C 
ATOM     16  C   UNL     1      46.188  12.666  19.870  0.00  0.00    +0.000 C 
ATOM     17  C   UNL     1      46.931  12.233  18.617  0.00  0.00    +0.000 C 
ATOM     18  C   UNL     1      47.789  10.991  18.862  0.00  0.00    +0.000 C 
ENDBRANCH  12  13
ENDBRANCH   4  12
BRANCH   6  19
ATOM     19  C   UNL     1      49.108   6.592  15.684  0.00  0.00    +0.000 C 
BRANCH  19  20
ATOM     20  N   UNL     1      48.002   6.424  14.783  0.00  0.00    +0.000 N 
ATOM     21  C   UNL     1      48.058   6.426  13.425  0.00  0.00    +0.000 C 
ATOM     22  O   UNL     1      49.105   6.491  12.782  0.00  0.00    +0.000 OA
ATOM     23  H   UNL     1      47.153   6.074  15.208  0.00  0.00    +0.000 HD
BRANCH  21  24
ATOM     24  C   UNL     1      46.747   6.244  12.789  0.00  0.00    +0.000 A 
ATOM     25  C   UNL     1      46.103   7.312  12.186  0.00  0.00    +0.000 A 
ATOM     26  S   UNL     1      44.610   6.888  11.478  0.00  0.00    +0.000 S 
ATOM     27  C   UNL     1      44.770   5.263  11.963  0.00  0.00    +0.000 A 
ATOM     28  N   UNL     1      43.800   4.351  11.678  0.00  0.00    +0.000 NA
ATOM     29  C   UNL     1      44.057   3.155  12.086  0.00  0.00    +0.000 A 
ATOM     30  N   UNL     1      45.197   2.781  12.747  0.00  0.00    +0.000 N 
ATOM     31  C   UNL     1      46.191   3.670  13.090  0.00  0.00    +0.000 A 
ATOM     32  O   UNL     1      47.168   3.294  13.724  0.00  0.00    +0.000 OA
ATOM     33  C   UNL     1      45.955   5.036  12.640  0.00  0.00    +0.000 A 
ATOM     34  H   UNL     1      45.340   1.829  13.045  0.00  0.00    +0.000 HD
ENDBRANCH  21  24
ENDBRANCH  19  20
ENDBRANCH   6  19
TORSDOF 6
ENDMDL
MODEL 8
REMARK VINA RESULT:    -7.733      2.297      4.278
REMARK INTER + INTRA:         -11.341
REMARK INTER:                  -9.779
REMARK INTRA:                  -1.562
REMARK UNBOUND:                -0.896
REMARK  Name = 
REMARK  6 active torsions:
REMARK  status: ('A' for Active; 'I' for Inactive)
REMARK    1  A    between atoms: C_2  and  C_4
REMARK    2  A    between atoms: C_7  and  C_8
REMARK    3  A    between atoms: C_8  and  N_9
REMARK    4  A    between atoms: C_16  and  C_17
REMARK    5  A    between atoms: C_17  and  N_18
REMARK    6  A    between atoms: C_19  and  C_21
REMARK                            x       y       z     vdW  Elec       q    Type
REMARK                         _______ _______ _______ _____ _____    ______ ____
ROOT
ATOM      1  C   UNL     1      47.223   8.939  12.144  0.00  0.00    +0.000 A 
ATOM      2  C   UNL     1      45.852   9.083  11.876  0.00  0.00    +0.000 A 
ATOM      3  C   UNL     1      45.041   7.982  11.647  0.00  0.00    +0.000 A 
ATOM      4  C   UNL     1      45.585   6.696  11.630  0.00  0.00    +0.000 A 
ATOM      5  C   UNL     1      46.964   6.549  11.882  0.00  0.00    +0.000 A 
ATOM      6  C   UNL     1      47.799   7.649  12.180  0.00  0.00    +0.000 A 
ENDROOT
BRANCH   1   8
ATOM      7  N   UNL     1      48.012  10.647  13.681  0.00  0.00    +0.000 N 
ATOM      8  C   UNL     1      47.953  10.216  12.366  0.00  0.00    +0.000 C 
ATOM      9  O   UNL     1      48.431  10.862  11.476  0.00  0.00    +0.000 OA
ATOM     10  H   UNL     1      48.580  11.468  13.856  0.00  0.00    +0.000 HD
ATOM     11  H   UNL     1      47.930   9.986  14.435  0.00  0.00    +0.000 HD
ENDBRANCH   1   8
BRANCH   4  12
ATOM     12  C   UNL     1      44.703   5.478  11.405  0.00  0.00    +0.000 C 
BRANCH  12  13
ATOM     13  N   UNL     1      45.266   4.448  10.503  0.00  0.00    +0.000 NA
ATOM     14  C   UNL     1      44.447   3.227  10.514  0.00  0.00    +0.000 C 
ATOM     15  C   UNL     1      44.733   2.239   9.385  0.00  0.00    +0.000 C 
ATOM     16  C   UNL     1      44.783   2.927   8.031  0.00  0.00    +0.000 C 
ATOM     17  C   UNL     1      45.829   4.029   8.061  0.00  0.00    +0.000 C 
ATOM     18  C   UNL     1      45.566   5.035   9.183  0.00  0.00    +0.000 C 
ENDBRANCH  12  13
ENDBRANCH   4  12
BRANCH   6  19
ATOM     19  C   UNL     1      49.227   7.369  12.579  0.00  0.00    +0.000 C 
BRANCH  19  20
ATOM     20  N   UNL     1      49.313   6.712  13.855  0.00  0.00    +0.000 N 
ATOM     21  C   UNL     1      49.260   7.308  15.075  0.00  0.00    +0.000 C 
ATOM     22  O   UNL     1      49.042   8.507  15.245  0.00  0.00    +0.000 OA
ATOM     23  H   UNL     1      49.199   5.708  13.828  0.00  0.00    +0.000 HD
BRANCH  21  24
ATOM     24  C   UNL     1      49.391   6.362  16.190  0.00  0.00    +0.000 A 
ATOM     25  C   UNL     1      50.369   6.542  17.155  0.00  0.00    +0.000 A 
ATOM     26  S   UNL     1      50.335   5.355  18.381  0.00  0.00    +0.000 S 
ATOM     27  C   UNL     1      49.017   4.554  17.657  0.00  0.00    +0.000 A 
ATOM     28  N   UNL     1      48.499   3.424  18.209  0.00  0.00    +0.000 NA
ATOM     29  C   UNL     1      47.493   2.931  17.570  0.00  0.00    +0.000 A 
ATOM     30  N   UNL     1      46.951   3.466  16.431  0.00  0.00    +0.000 N 
ATOM     31  C   UNL     1      47.459   4.586  15.813  0.00  0.00    +0.000 A 
ATOM     32  O   UNL     1      46.967   4.996  14.769  0.00  0.00    +0.000 OA
ATOM     33  C   UNL     1      48.591   5.191  16.504  0.00  0.00    +0.000 A 
ATOM     34  H   UNL     1      46.164   3.033  15.973  0.00  0.00    +0.000 HD
ENDBRANCH  21  24
ENDBRANCH  19  20
ENDBRANCH   6  19
TORSDOF 6
ENDMDL
MODEL 9
REMARK VINA RESULT:    -7.703      3.599      5.979
REMARK INTER + INTRA:         -11.301
REMARK INTER:                  -9.912
REMARK INTRA:                  -1.389
REMARK UNBOUND:                -0.896
REMARK  Name = 
REMARK  6 active torsions:
REMARK  status: ('A' for Active; 'I' for Inactive)
REMARK    1  A    between atoms: C_2  and  C_4
REMARK    2  A    between atoms: C_7  and  C_8
REMARK    3  A    between atoms: C_8  and  N_9
REMARK    4  A    between atoms: C_16  and  C_17
REMARK    5  A    between atoms: C_17  and  N_18
REMARK    6  A    between atoms: C_19  and  C_21
REMARK                            x       y       z     vdW  Elec       q    Type
REMARK                         _______ _______ _______ _____ _____    ______ ____
ROOT
ATOM      1  C   UNL     1      45.544   4.577  12.375  0.00  0.00    +0.000 A 
ATOM      2  C   UNL     1      45.417   5.679  11.513  0.00  0.00    +0.000 A 
ATOM      3  C   UNL     1      46.235   6.791  11.637  0.00  0.00    +0.000 A 
ATOM      4  C   UNL     1      47.180   6.861  12.663  0.00  0.00    +0.000 A 
ATOM      5  C   UNL     1      47.300   5.764  13.539  0.00  0.00    +0.000 A 
ATOM      6  C   UNL     1      46.522   4.593  13.395  0.00  0.00    +0.000 A 
ENDROOT
BRANCH   1   8
ATOM      7  N   UNL     1      44.820   2.748  10.948  0.00  0.00    +0.000 N 
ATOM      8  C   UNL     1      44.592   3.465  12.112  0.00  0.00    +0.000 C 
ATOM      9  O   UNL     1      43.661   3.216  12.826  0.00  0.00    +0.000 OA
ATOM     10  H   UNL     1      44.232   1.936  10.803  0.00  0.00    +0.000 HD
ATOM     11  H   UNL     1      45.741   2.718  10.545  0.00  0.00    +0.000 HD
ENDBRANCH   1   8
BRANCH   4  12
ATOM     12  C   UNL     1      48.101   8.064  12.794  0.00  0.00    +0.000 C 
BRANCH  12  13
ATOM     13  N   UNL     1      49.549   7.755  12.785  0.00  0.00    +0.000 NA
ATOM     14  C   UNL     1      50.157   8.099  11.491  0.00  0.00    +0.000 C 
ATOM     15  C   UNL     1      51.684   8.142  11.479  0.00  0.00    +0.000 C 
ATOM     16  C   UNL     1      52.236   8.946  12.644  0.00  0.00    +0.000 C 
ATOM     17  C   UNL     1      51.724   8.362  13.950  0.00  0.00    +0.000 C 
ATOM     18  C   UNL     1      50.195   8.308  13.991  0.00  0.00    +0.000 C 
ENDBRANCH  12  13
ENDBRANCH   4  12
BRANCH   6  19
ATOM     19  C   UNL     1      46.831   3.421  14.294  0.00  0.00    +0.000 C 
BRANCH  19  20
ATOM     20  N   UNL     1      47.762   3.766  15.333  0.00  0.00    +0.000 N 
ATOM     21  C   UNL     1      47.542   3.691  16.671  0.00  0.00    +0.000 C 
ATOM     22  O   UNL     1      46.520   3.225  17.174  0.00  0.00    +0.000 OA
ATOM     23  H   UNL     1      48.719   3.880  15.029  0.00  0.00    +0.000 HD
BRANCH  21  24
ATOM     24  C   UNL     1      48.690   4.131  17.474  0.00  0.00    +0.000 A 
ATOM     25  C   UNL     1      48.606   5.272  18.256  0.00  0.00    +0.000 A 
ATOM     26  S   UNL     1      50.032   5.595  19.135  0.00  0.00    +0.000 S 
ATOM     27  C   UNL     1      50.814   4.225  18.493  0.00  0.00    +0.000 A 
ATOM     28  N   UNL     1      52.097   3.929  18.835  0.00  0.00    +0.000 NA
ATOM     29  C   UNL     1      52.560   2.855  18.291  0.00  0.00    +0.000 A 
ATOM     30  N   UNL     1      51.858   2.043  17.441  0.00  0.00    +0.000 N 
ATOM     31  C   UNL     1      50.571   2.316  17.035  0.00  0.00    +0.000 A 
ATOM     32  O   UNL     1      50.004   1.583  16.234  0.00  0.00    +0.000 OA
ATOM     33  C   UNL     1      49.995   3.514  17.632  0.00  0.00    +0.000 A 
ATOM     34  H   UNL     1      52.276   1.216  17.043  0.00  0.00    +0.000 HD
ENDBRANCH  21  24
ENDBRANCH  19  20
ENDBRANCH   6  19
TORSDOF 6
ENDMDL
