MODEL 1
REMARK VINA RESULT:    -8.050      0.000      0.000
REMARK INTER + INTRA:         -12.727
REMARK INTER:                 -11.344
REMARK INTRA:                  -1.383
REMARK UNBOUND:                -1.383
REMARK  Name = 
REMARK  8 active torsions:
REMARK  status: ('A' for Active; 'I' for Inactive)
REMARK    1  A    between atoms: C_1  and  C_2
REMARK    2  A    between atoms: C_2  and  C_3
REMARK    3  A    between atoms: C_3  and  C_4
REMARK    4  A    between atoms: C_4  and  N_5
REMARK    5  A    between atoms: C_4  and  C_18
REMARK    6  A    between atoms: C_6  and  C_8
REMARK    7  A    between atoms: C_21  and  O_22
REMARK    8  A    between atoms: O_22  and  C_23
REMARK                            x       y       z     vdW  Elec       q    Type
REMARK                         _______ _______ _______ _____ _____    ______ ____
ROOT
ATOM      1  C   UNL     1      46.109   8.003  12.414  0.00  0.00    +0.000 C 
ENDROOT
BRANCH   1   2
ATOM      2  C   UNL     1      45.632   6.803  11.604  0.00  0.00    +0.000 A 
ATOM      3  C   UNL     1      44.456   6.127  11.962  0.00  0.00    +0.000 A 
ATOM      4  C   UNL     1      44.008   5.041  11.206  0.00  0.00    +0.000 A 
ATOM      5  C   UNL     1      44.683   4.666  10.043  0.00  0.00    +0.000 A 
ATOM      6  C   UNL     1      45.878   5.297   9.705  0.00  0.00    +0.000 A 
ATOM      7  C   UNL     1      46.350   6.356  10.480  0.00  0.00    +0.000 A 
BRANCH   5   8
ATOM      8  O   UNL     1      44.272   3.654   9.202  0.00  0.00    +0.000 OA
BRANCH   8   9
ATOM      9  C   UNL     1      45.187   3.029   8.386  0.00  0.00    +0.000 A 
ATOM     10  C   UNL     1      45.798   3.616   7.273  0.00  0.00    +0.000 A 
ATOM     11  C   UNL     1      46.668   2.872   6.474  0.00  0.00    +0.000 A 
ATOM     12  C   UNL     1      46.984   1.560   6.824  0.00  0.00    +0.000 A 
ATOM     13  C   UNL     1      46.441   0.997   7.977  0.00  0.00    +0.000 A 
ATOM     14  C   UNL     1      45.543   1.730   8.757  0.00  0.00    +0.000 A 
ENDBRANCH   8   9
ENDBRANCH   5   8
ENDBRANCH   1   2
BRANCH   1  15
ATOM     15  N   UNL     1      46.747   7.501  13.622  0.00  0.00    +0.000 N 
ATOM     16  C   UNL     1      48.075   7.177  13.721  0.00  0.00    +0.000 C 
ATOM     17  O   UNL     1      48.886   7.378  12.823  0.00  0.00    +0.000 OA
ATOM     18  H   UNL     1      46.114   7.059  14.280  0.00  0.00    +0.000 HD
BRANCH  16  19
ATOM     19  C   UNL     1      48.493   6.617  15.011  0.00  0.00    +0.000 A 
ATOM     20  C   UNL     1      49.463   7.258  15.768  0.00  0.00    +0.000 A 
ATOM     21  S   UNL     1      49.822   6.457  17.231  0.00  0.00    +0.000 S 
ATOM     22  C   UNL     1      48.727   5.202  16.878  0.00  0.00    +0.000 A 
ATOM     23  N   UNL     1      48.579   4.140  17.714  0.00  0.00    +0.000 NA
ATOM     24  C   UNL     1      47.740   3.249  17.302  0.00  0.00    +0.000 A 
ATOM     25  N   UNL     1      47.019   3.332  16.138  0.00  0.00    +0.000 N 
ATOM     26  C   UNL     1      47.098   4.406  15.290  0.00  0.00    +0.000 A 
ATOM     27  O   UNL     1      46.376   4.498  14.306  0.00  0.00    +0.000 OA
ATOM     28  C   UNL     1      48.064   5.416  15.684  0.00  0.00    +0.000 A 
ATOM     29  H   UNL     1      46.353   2.616  15.888  0.00  0.00    +0.000 HD
ENDBRANCH  16  19
ENDBRANCH   1  15
BRANCH   1  30
ATOM     30  C   UNL     1      44.944   8.965  12.721  0.00  0.00    +0.000 C 
BRANCH  30  32
ATOM     31  C   UNL     1      43.835   9.908  10.675  0.00  0.00    +0.000 C 
ATOM     32  C   UNL     1      44.874  10.152  11.757  0.00  0.00    +0.000 C 
ENDBRANCH  30  32
ENDBRANCH   1  30
TORSDOF 7
ENDMDL
MODEL 2
REMARK VINA RESULT:    -7.818      1.615      2.255
REMARK INTER + INTRA:         -12.400
REMARK INTER:                 -11.104
REMARK INTRA:                  -1.296
REMARK UNBOUND:                -1.383
REMARK  Name = 
REMARK  8 active torsions:
REMARK  status: ('A' for Active; 'I' for Inactive)
REMARK    1  A    between atoms: C_1  and  C_2
REMARK    2  A    between atoms: C_2  and  C_3
REMARK    3  A    between atoms: C_3  and  C_4
REMARK    4  A    between atoms: C_4  and  N_5
REMARK    5  A    between atoms: C_4  and  C_18
REMARK    6  A    between atoms: C_6  and  C_8
REMARK    7  A    between atoms: C_21  and  O_22
REMARK    8  A    between atoms: O_22  and  C_23
REMARK                            x       y       z     vdW  Elec       q    Type
REMARK                         _______ _______ _______ _____ _____    ______ ____
ROOT
ATOM      1  C   UNL     1      46.503   7.104  12.788  0.00  0.00    +0.000 C 
ENDROOT
BRANCH   1   2
ATOM      2  C   UNL     1      46.043   6.080  11.756  0.00  0.00    +0.000 A 
ATOM      3  C   UNL     1      45.361   4.923  12.160  0.00  0.00    +0.000 A 
ATOM      4  C   UNL     1      44.920   3.996  11.213  0.00  0.00    +0.000 A 
ATOM      5  C   UNL     1      45.084   4.251   9.849  0.00  0.00    +0.000 A 
ATOM      6  C   UNL     1      45.803   5.371   9.438  0.00  0.00    +0.000 A 
ATOM      7  C   UNL     1      46.279   6.278  10.385  0.00  0.00    +0.000 A 
BRANCH   5   8
ATOM      8  O   UNL     1      44.619   3.427   8.847  0.00  0.00    +0.000 OA
BRANCH   8   9
ATOM      9  C   UNL     1      45.511   2.813   7.996  0.00  0.00    +0.000 A 
ATOM     10  C   UNL     1      45.981   3.362   6.799  0.00  0.00    +0.000 A 
ATOM     11  C   UNL     1      46.838   2.629   5.978  0.00  0.00    +0.000 A 
ATOM     12  C   UNL     1      47.283   1.371   6.382  0.00  0.00    +0.000 A 
ATOM     13  C   UNL     1      46.880   0.853   7.613  0.00  0.00    +0.000 A 
ATOM     14  C   UNL     1      45.995   1.572   8.418  0.00  0.00    +0.000 A 
ENDBRANCH   8   9
ENDBRANCH   5   8
ENDBRANCH   1   2
BRANCH   1  15
ATOM     15  N   UNL     1      46.742   6.399  14.039  0.00  0.00    +0.000 N 
ATOM     16  C   UNL     1      47.981   6.044  14.505  0.00  0.00    +0.000 C 
ATOM     17  O   UNL     1      49.027   6.379  13.960  0.00  0.00    +0.000 OA
ATOM     18  H   UNL     1      45.950   5.863  14.380  0.00  0.00    +0.000 HD
BRANCH  16  19
ATOM     19  C   UNL     1      47.988   5.272  15.753  0.00  0.00    +0.000 A 
ATOM     20  C   UNL     1      47.412   4.011  15.796  0.00  0.00    +0.000 A 
ATOM     21  S   UNL     1      47.512   3.270  17.331  0.00  0.00    +0.000 S 
ATOM     22  C   UNL     1      48.285   4.632  17.999  0.00  0.00    +0.000 A 
ATOM     23  N   UNL     1      48.611   4.680  19.318  0.00  0.00    +0.000 NA
ATOM     24  C   UNL     1      49.161   5.787  19.693  0.00  0.00    +0.000 A 
ATOM     25  N   UNL     1      49.433   6.845  18.863  0.00  0.00    +0.000 N 
ATOM     26  C   UNL     1      49.168   6.822  17.518  0.00  0.00    +0.000 A 
ATOM     27  O   UNL     1      49.505   7.743  16.785  0.00  0.00    +0.000 OA
ATOM     28  C   UNL     1      48.505   5.616  17.054  0.00  0.00    +0.000 A 
ATOM     29  H   UNL     1      49.896   7.672  19.211  0.00  0.00    +0.000 HD
ENDBRANCH  16  19
ENDBRANCH   1  15
BRANCH   1  30
ATOM     30  C   UNL     1      45.472   8.241  12.942  0.00  0.00    +0.000 C 
BRANCH  30  32
ATOM     31  C   UNL     1      47.346   9.750  12.223  0.00  0.00    +0.000 C 
ATOM     32  C   UNL     1      45.847   9.502  12.161  0.00  0.00    +0.000 C 
ENDBRANCH  30  32
ENDBRANCH   1  30
TORSDOF 7
ENDMDL
MODEL 3
REMARK VINA RESULT:    -7.500      2.541      4.371
REMARK INTER + INTRA:         -11.951
REMARK INTER:                 -10.652
REMARK INTRA:                  -1.300
REMARK UNBOUND:                -1.383
REMARK  Name = 
REMARK  8 active torsions:
REMARK  status: ('A' for Active; 'I' for Inactive)
REMARK    1  A    between atoms: C_1  and  C_2
REMARK    2  A    between atoms: C_2  and  C_3
REMARK    3  A    between atoms: C_3  and  C_4
REMARK    4  A    between atoms: C_4  and  N_5
REMARK    5  A    between atoms: C_4  and  C_18
REMARK    6  A    between atoms: C_6  and  C_8
REMARK    7  A    between atoms: C_21  and  O_22
REMARK    8  A    between atoms: O_22  and  C_23
REMARK                            x       y       z     vdW  Elec       q    Type
REMARK                         _______ _______ _______ _____ _____    ______ ____
ROOT
ATOM      1  C   UNL     1      46.630   5.404  14.026  0.00  0.00    +0.000 C 
ENDROOT
BRANCH   1   2
ATOM      2  C   UNL     1      46.044   4.929  12.701  0.00  0.00    +0.000 A 
ATOM      3  C   UNL     1      46.003   5.790  11.595  0.00  0.00    +0.000 A 
ATOM      4  C   UNL     1      45.487   5.348  10.374  0.00  0.00    +0.000 A 
ATOM      5  C   UNL     1      45.078   4.021  10.222  0.00  0.00    +0.000 A 
ATOM      6  C   UNL     1      45.067   3.172  11.326  0.00  0.00    +0.000 A 
ATOM      7  C   UNL     1      45.546   3.623  12.556  0.00  0.00    +0.000 A 
BRANCH   5   8
ATOM      8  O   UNL     1      44.623   3.482   9.038  0.00  0.00    +0.000 OA
BRANCH   8   9
ATOM      9  C   UNL     1      45.500   2.835   8.198  0.00  0.00    +0.000 A 
ATOM     10  C   UNL     1      45.949   1.521   8.371  0.00  0.00    +0.000 A 
ATOM     11  C   UNL     1      46.889   0.978   7.493  0.00  0.00    +0.000 A 
ATOM     12  C   UNL     1      47.332   1.722   6.401  0.00  0.00    +0.000 A 
ATOM     13  C   UNL     1      46.827   3.002   6.179  0.00  0.00    +0.000 A 
ATOM     14  C   UNL     1      45.913   3.559   7.077  0.00  0.00    +0.000 A 
ENDBRANCH   8   9
ENDBRANCH   5   8
ENDBRANCH   1   2
BRANCH   1  15
ATOM     15  N   UNL     1      47.816   6.196  13.731  0.00  0.00    +0.000 N 
ATOM     16  C   UNL     1      47.842   7.565  13.682  0.00  0.00    +0.000 C 
ATOM     17  O   UNL     1      46.884   8.269  13.986  0.00  0.00    +0.000 OA
ATOM     18  H   UNL     1      48.534   5.703  13.211  0.00  0.00    +0.000 HD
BRANCH  16  19
ATOM     19  C   UNL     1      49.125   8.158  13.292  0.00  0.00    +0.000 A 
ATOM     20  C   UNL     1      49.206   8.972  12.171  0.00  0.00    +0.000 A 
ATOM     21  S   UNL     1      50.779   9.564  11.873  0.00  0.00    +0.000 S 
ATOM     22  C   UNL     1      51.412   8.713  13.205  0.00  0.00    +0.000 A 
ATOM     23  N   UNL     1      52.741   8.744  13.494  0.00  0.00    +0.000 NA
ATOM     24  C   UNL     1      53.083   8.025  14.511  0.00  0.00    +0.000 A 
ATOM     25  N   UNL     1      52.214   7.292  15.279  0.00  0.00    +0.000 N 
ATOM     26  C   UNL     1      50.861   7.271  15.055  0.00  0.00    +0.000 A 
ATOM     27  O   UNL     1      50.098   6.682  15.811  0.00  0.00    +0.000 OA
ATOM     28  C   UNL     1      50.429   8.026  13.893  0.00  0.00    +0.000 A 
ATOM     29  H   UNL     1      52.540   6.776  16.082  0.00  0.00    +0.000 HD
ENDBRANCH  16  19
ENDBRANCH   1  15
BRANCH   1  30
ATOM     30  C   UNL     1      46.936   4.214  14.957  0.00  0.00    +0.000 C 
BRANCH  30  32
ATOM     31  C   UNL     1      47.245   3.520  17.351  0.00  0.00    +0.000 C 
ATOM     32  C   UNL     1      47.421   4.645  16.344  0.00  0.00    +0.000 C 
ENDBRANCH  30  32
ENDBRANCH   1  30
TORSDOF 7
ENDMDL
MODEL 4
REMARK VINA RESULT:    -7.217      2.424      3.435
REMARK INTER + INTRA:         -11.553
REMARK INTER:                  -9.813
REMARK INTRA:                  -1.740
REMARK UNBOUND:                -1.383
REMARK  Name = 
REMARK  8 active torsions:
REMARK  status: ('A' for Active; 'I' for Inactive)
REMARK    1  A    between atoms: C_1  and  C_2
REMARK    2  A    between atoms: C_2  and  C_3
REMARK    3  A    between atoms: C_3  and  C_4
REMARK    4  A    between atoms: C_4  and  N_5
REMARK    5  A    between atoms: C_4  and  C_18
REMARK    6  A    between atoms: C_6  and  C_8
REMARK    7  A    between atoms: C_21  and  O_22
REMARK    8  A    between atoms: O_22  and  C_23
REMARK                            x       y       z     vdW  Elec       q    Type
REMARK                         _______ _______ _______ _____ _____    ______ ____
ROOT
ATOM      1  C   UNL     1      48.099   7.556  13.998  0.00  0.00    +0.000 C 
ENDROOT
BRANCH   1   2
ATOM      2  C   UNL     1      47.066   6.835  13.139  0.00  0.00    +0.000 A 
ATOM      3  C   UNL     1      46.355   7.531  12.151  0.00  0.00    +0.000 A 
ATOM      4  C   UNL     1      45.425   6.865  11.349  0.00  0.00    +0.000 A 
ATOM      5  C   UNL     1      45.250   5.485  11.470  0.00  0.00    +0.000 A 
ATOM      6  C   UNL     1      45.914   4.792  12.480  0.00  0.00    +0.000 A 
ATOM      7  C   UNL     1      46.814   5.463  13.309  0.00  0.00    +0.000 A 
BRANCH   5   8
ATOM      8  O   UNL     1      44.408   4.738  10.675  0.00  0.00    +0.000 OA
BRANCH   8   9
ATOM      9  C   UNL     1      44.935   3.899   9.719  0.00  0.00    +0.000 A 
ATOM     10  C   UNL     1      44.812   2.506   9.724  0.00  0.00    +0.000 A 
ATOM     11  C   UNL     1      45.437   1.742   8.737  0.00  0.00    +0.000 A 
ATOM     12  C   UNL     1      46.130   2.371   7.704  0.00  0.00    +0.000 A 
ATOM     13  C   UNL     1      46.187   3.763   7.651  0.00  0.00    +0.000 A 
ATOM     14  C   UNL     1      45.591   4.526   8.657  0.00  0.00    +0.000 A 
ENDBRANCH   8   9
ENDBRANCH   5   8
ENDBRANCH   1   2
BRANCH   1  15
ATOM     15  N   UNL     1      48.079   6.951  15.321  0.00  0.00    +0.000 N 
ATOM     16  C   UNL     1      49.185   6.465  15.969  0.00  0.00    +0.000 C 
ATOM     17  O   UNL     1      50.327   6.588  15.538  0.00  0.00    +0.000 OA
ATOM     18  H   UNL     1      47.179   6.573  15.599  0.00  0.00    +0.000 HD
BRANCH  16  19
ATOM     19  C   UNL     1      48.928   5.828  17.265  0.00  0.00    +0.000 A 
ATOM     20  C   UNL     1      49.162   4.470  17.433  0.00  0.00    +0.000 A 
ATOM     21  S   UNL     1      48.799   3.908  19.004  0.00  0.00    +0.000 S 
ATOM     22  C   UNL     1      48.272   5.450  19.495  0.00  0.00    +0.000 A 
ATOM     23  N   UNL     1      47.772   5.660  20.742  0.00  0.00    +0.000 NA
ATOM     24  C   UNL     1      47.380   6.870  20.964  0.00  0.00    +0.000 A 
ATOM     25  N   UNL     1      47.459   7.897  20.057  0.00  0.00    +0.000 N 
ATOM     26  C   UNL     1      48.001   7.744  18.807  0.00  0.00    +0.000 A 
ATOM     27  O   UNL     1      48.143   8.698  18.052  0.00  0.00    +0.000 OA
ATOM     28  C   UNL     1      48.415   6.389  18.490  0.00  0.00    +0.000 A 
ATOM     29  H   UNL     1      47.165   8.830  20.303  0.00  0.00    +0.000 HD
ENDBRANCH  16  19
ENDBRANCH   1  15
BRANCH   1  30
ATOM     30  C   UNL     1      47.825   9.073  14.041  0.00  0.00    +0.000 C 
BRANCH  30  32
ATOM     31  C   UNL     1      49.987   9.011  12.765  0.00  0.00    +0.000 C 
ATOM     32  C   UNL     1      48.956   9.906  13.434  0.00  0.00    +0.000 C 
ENDBRANCH  30  32
ENDBRANCH   1  30
TORSDOF 7
ENDMDL
MODEL 5
REMARK VINA RESULT:    -7.206      1.516      2.031
REMARK INTER + INTRA:         -11.538
REMARK INTER:                 -10.051
REMARK INTRA:                  -1.487
REMARK UNBOUND:                -1.383
REMARK  Name = 
REMARK  8 active torsions:
REMARK  status: ('A' for Active; 'I' for Inactive)
REMARK    1  A    between atoms: C_1  and  C_2
REMARK    2  A    between atoms: C_2  and  C_3
REMARK    3  A    between atoms: C_3  and  C_4
REMARK    4  A    between atoms: C_4  and  N_5
REMARK    5  A    between atoms: C_4  and  C_18
REMARK    6  A    between atoms: C_6  and  C_8
REMARK    7  A    between atoms: C_21  and  O_22
REMARK    8  A    between atoms: O_22  and  C_23
REMARK                            x       y       z     vdW  Elec       q    Type
REMARK                         _______ _______ _______ _____ _____    ______ ____
ROOT
ATOM      1  C   UNL     1      47.469   8.198  13.193  0.00  0.00    +0.000 C 
ENDROOT
BRANCH   1   2
ATOM      2  C   UNL     1      46.554   7.200  12.493  0.00  0.00    +0.000 A 
ATOM      3  C   UNL     1      45.435   7.646  11.775  0.00  0.00    +0.000 A 
ATOM      4  C   UNL     1      44.610   6.732  11.114  0.00  0.00    +0.000 A 
ATOM      5  C   UNL     1      44.934   5.373  11.099  0.00  0.00    +0.000 A 
ATOM      6  C   UNL     1      46.014   4.913  11.849  0.00  0.00    +0.000 A 
ATOM      7  C   UNL     1      46.817   5.820  12.542  0.00  0.00    +0.000 A 
BRANCH   5   8
ATOM      8  O   UNL     1      44.217   4.414  10.416  0.00  0.00    +0.000 OA
BRANCH   8   9
ATOM      9  C   UNL     1      44.851   3.614   9.492  0.00  0.00    +0.000 A 
ATOM     10  C   UNL     1      44.837   2.216   9.504  0.00  0.00    +0.000 A 
ATOM     11  C   UNL     1      45.564   1.498   8.554  0.00  0.00    +0.000 A 
ATOM     12  C   UNL     1      46.253   2.173   7.548  0.00  0.00    +0.000 A 
ATOM     13  C   UNL     1      46.204   3.565   7.485  0.00  0.00    +0.000 A 
ATOM     14  C   UNL     1      45.505   4.285   8.456  0.00  0.00    +0.000 A 
ENDBRANCH   8   9
ENDBRANCH   5   8
ENDBRANCH   1   2
BRANCH   1  15
ATOM     15  N   UNL     1      47.694   7.721  14.550  0.00  0.00    +0.000 N 
ATOM     16  C   UNL     1      48.832   7.082  14.969  0.00  0.00    +0.000 C 
ATOM     17  O   UNL     1      49.824   6.940  14.262  0.00  0.00    +0.000 OA
ATOM     18  H   UNL     1      46.848   7.553  15.084  0.00  0.00    +0.000 HD
BRANCH  16  19
ATOM     19  C   UNL     1      48.819   6.618  16.360  0.00  0.00    +0.000 A 
ATOM     20  C   UNL     1      49.208   7.471  17.384  0.00  0.00    +0.000 A 
ATOM     21  S   UNL     1      49.132   6.754  18.931  0.00  0.00    +0.000 S 
ATOM     22  C   UNL     1      48.624   5.266  18.278  0.00  0.00    +0.000 A 
ATOM     23  N   UNL     1      48.421   4.181  19.072  0.00  0.00    +0.000 NA
ATOM     24  C   UNL     1      48.071   3.112  18.437  0.00  0.00    +0.000 A 
ATOM     25  N   UNL     1      47.886   3.034  17.080  0.00  0.00    +0.000 N 
ATOM     26  C   UNL     1      48.030   4.113  16.247  0.00  0.00    +0.000 A 
ATOM     27  O   UNL     1      47.769   4.038  15.053  0.00  0.00    +0.000 OA
ATOM     28  C   UNL     1      48.469   5.330  16.906  0.00  0.00    +0.000 A 
ATOM     29  H   UNL     1      47.579   2.176  16.647  0.00  0.00    +0.000 HD
ENDBRANCH  16  19
ENDBRANCH   1  15
BRANCH   1  30
ATOM     30  C   UNL     1      46.870   9.619  13.162  0.00  0.00    +0.000 C 
BRANCH  30  32
ATOM     31  C   UNL     1      48.892   9.905  11.702  0.00  0.00    +0.000 C 
ATOM     32  C   UNL     1      47.681  10.595  12.307  0.00  0.00    +0.000 C 
ENDBRANCH  30  32
ENDBRANCH   1  30
TORSDOF 7
ENDMDL
MODEL 6
REMARK VINA RESULT:    -7.182      3.347      7.478
REMARK INTER + INTRA:         -11.504
REMARK INTER:                  -9.923
REMARK INTRA:                  -1.582
REMARK UNBOUND:                -1.383
REMARK  Name = 
REMARK  8 active torsions:
REMARK  status: ('A' for Active; 'I' for Inactive)
REMARK    1  A    between atoms: C_1  and  C_2
REMARK    2  A    between atoms: C_2  and  C_3
REMARK    3  A    between atoms: C_3  and  C_4
REMARK    4  A    between atoms: C_4  and  N_5
REMARK    5  A    between atoms: C_4  and  C_18
REMARK    6  A    between atoms: C_6  and  C_8
REMARK    7  A    between atoms: C_21  and  O_22
REMARK    8  A    between atoms: O_22  and  C_23
REMARK                            x       y       z     vdW  Elec       q    Type
REMARK                         _______ _______ _______ _____ _____    ______ ____
ROOT
ATOM      1  C   UNL     1      48.327   7.575  12.881  0.00  0.00    +0.000 C 
ENDROOT
BRANCH   1   2
ATOM      2  C   UNL     1      48.663   6.926  14.219  0.00  0.00    +0.000 A 
ATOM      3  C   UNL     1      47.838   5.923  14.748  0.00  0.00    +0.000 A 
ATOM      4  C   UNL     1      48.159   5.312  15.963  0.00  0.00    +0.000 A 
ATOM      5  C   UNL     1      49.345   5.639  16.624  0.00  0.00    +0.000 A 
ATOM      6  C   UNL     1      50.146   6.668  16.134  0.00  0.00    +0.000 A 
ATOM      7  C   UNL     1      49.807   7.307  14.941  0.00  0.00    +0.000 A 
BRANCH   5   8
ATOM      8  O   UNL     1      49.774   5.038  17.788  0.00  0.00    +0.000 OA
BRANCH   8   9
ATOM      9  C   UNL     1      50.591   3.932  17.726  0.00  0.00    +0.000 A 
ATOM     10  C   UNL     1      50.181   2.659  17.317  0.00  0.00    +0.000 A 
ATOM     11  C   UNL     1      51.075   1.588  17.349  0.00  0.00    +0.000 A 
ATOM     12  C   UNL     1      52.401   1.799  17.726  0.00  0.00    +0.000 A 
ATOM     13  C   UNL     1      52.834   3.082  18.058  0.00  0.00    +0.000 A 
ATOM     14  C   UNL     1      51.930   4.147  18.059  0.00  0.00    +0.000 A 
ENDBRANCH   8   9
ENDBRANCH   5   8
ENDBRANCH   1   2
BRANCH   1  15
ATOM     15  N   UNL     1      47.578   6.608  12.092  0.00  0.00    +0.000 N 
ATOM     16  C   UNL     1      46.322   6.823  11.587  0.00  0.00    +0.000 C 
ATOM     17  O   UNL     1      45.742   7.901  11.663  0.00  0.00    +0.000 OA
ATOM     18  H   UNL     1      47.860   5.642  12.230  0.00  0.00    +0.000 HD
BRANCH  16  19
ATOM     19  C   UNL     1      45.721   5.685  10.884  0.00  0.00    +0.000 A 
ATOM     20  C   UNL     1      45.857   5.564   9.508  0.00  0.00    +0.000 A 
ATOM     21  S   UNL     1      45.087   4.182   8.869  0.00  0.00    +0.000 S 
ATOM     22  C   UNL     1      44.506   3.727  10.403  0.00  0.00    +0.000 A 
ATOM     23  N   UNL     1      43.713   2.633  10.560  0.00  0.00    +0.000 NA
ATOM     24  C   UNL     1      43.319   2.429  11.773  0.00  0.00    +0.000 A 
ATOM     25  N   UNL     1      43.663   3.207  12.849  0.00  0.00    +0.000 N 
ATOM     26  C   UNL     1      44.500   4.288  12.746  0.00  0.00    +0.000 A 
ATOM     27  O   UNL     1      44.863   4.911  13.736  0.00  0.00    +0.000 OA
ATOM     28  C   UNL     1      44.933   4.591  11.394  0.00  0.00    +0.000 A 
ATOM     29  H   UNL     1      43.349   2.975  13.779  0.00  0.00    +0.000 HD
ENDBRANCH  16  19
ENDBRANCH   1  15
BRANCH   1  30
ATOM     30  C   UNL     1      49.601   8.060  12.162  0.00  0.00    +0.000 C 
BRANCH  30  32
ATOM     31  C   UNL     1      48.305  10.210  12.225  0.00  0.00    +0.000 C 
ATOM     32  C   UNL     1      49.463   9.467  11.577  0.00  0.00    +0.000 C 
ENDBRANCH  30  32
ENDBRANCH   1  30
TORSDOF 7
ENDMDL
MODEL 7
REMARK VINA RESULT:    -7.055      3.949      9.360
REMARK INTER + INTRA:         -11.325
REMARK INTER:                  -9.812
REMARK INTRA:                  -1.512
REMARK UNBOUND:                -1.383
REMARK  Name = 
REMARK  8 active torsions:
REMARK  status: ('A' for Active; 'I' for Inactive)
REMARK    1  A    between atoms: C_1  and  C_2
REMARK    2  A    between atoms: C_2  and  C_3
REMARK    3  A    between atoms: C_3  and  C_4
REMARK    4  A    between atoms: C_4  and  N_5
REMARK    5  A    between atoms: C_4  and  C_18
REMARK    6  A    between atoms: C_6  and  C_8
REMARK    7  A    between atoms: C_21  and  O_22
REMARK    8  A    between atoms: O_22  and  C_23
REMARK                            x       y       z     vdW  Elec       q    Type
REMARK                         _______ _______ _______ _____ _____    ______ ____
ROOT
ATOM      1  C   UNL     1      48.104   4.600  16.185  0.00  0.00    +0.000 C 
ENDROOT
BRANCH   1   2
ATOM      2  C   UNL     1      48.153   5.655  17.284  0.00  0.00    +0.000 A 
ATOM      3  C   UNL     1      49.026   6.748  17.178  0.00  0.00    +0.000 A 
ATOM      4  C   UNL     1      49.055   7.727  18.175  0.00  0.00    +0.000 A 
ATOM      5  C   UNL     1      48.162   7.668  19.247  0.00  0.00    +0.000 A 
ATOM      6  C   UNL     1      47.327   6.562  19.388  0.00  0.00    +0.000 A 
ATOM      7  C   UNL     1      47.324   5.563  18.415  0.00  0.00    +0.000 A 
BRANCH   5   8
ATOM      8  O   UNL     1      48.074   8.624  20.235  0.00  0.00    +0.000 OA
BRANCH   8   9
ATOM      9  C   UNL     1      47.398   9.799  19.993  0.00  0.00    +0.000 A 
ATOM     10  C   UNL     1      47.720  10.712  18.983  0.00  0.00    +0.000 A 
ATOM     11  C   UNL     1      47.006  11.905  18.861  0.00  0.00    +0.000 A 
ATOM     12  C   UNL     1      45.925  12.159  19.703  0.00  0.00    +0.000 A 
ATOM     13  C   UNL     1      45.550  11.215  20.659  0.00  0.00    +0.000 A 
ATOM     14  C   UNL     1      46.286  10.038  20.804  0.00  0.00    +0.000 A 
ENDBRANCH   8   9
ENDBRANCH   5   8
ENDBRANCH   1   2
BRANCH   1  15
ATOM     15  N   UNL     1      47.161   5.054  15.173  0.00  0.00    +0.000 N 
ATOM     16  C   UNL     1      47.514   5.718  14.026  0.00  0.00    +0.000 C 
ATOM     17  O   UNL     1      48.678   5.904  13.687  0.00  0.00    +0.000 OA
ATOM     18  H   UNL     1      46.212   5.186  15.508  0.00  0.00    +0.000 HD
BRANCH  16  19
ATOM     19  C   UNL     1      46.397   6.151  13.180  0.00  0.00    +0.000 A 
ATOM     20  C   UNL     1      46.222   7.497  12.891  0.00  0.00    +0.000 A 
ATOM     21  S   UNL     1      44.869   7.808  11.899  0.00  0.00    +0.000 S 
ATOM     22  C   UNL     1      44.445   6.160  11.863  0.00  0.00    +0.000 A 
ATOM     23  N   UNL     1      43.330   5.733  11.213  0.00  0.00    +0.000 NA
ATOM     24  C   UNL     1      43.115   4.462  11.298  0.00  0.00    +0.000 A 
ATOM     25  N   UNL     1      43.926   3.574  11.959  0.00  0.00    +0.000 N 
ATOM     26  C   UNL     1      45.086   3.951  12.584  0.00  0.00    +0.000 A 
ATOM     27  O   UNL     1      45.838   3.126  13.087  0.00  0.00    +0.000 OA
ATOM     28  C   UNL     1      45.350   5.379  12.558  0.00  0.00    +0.000 A 
ATOM     29  H   UNL     1      43.721   2.587  11.961  0.00  0.00    +0.000 HD
ENDBRANCH  16  19
ENDBRANCH   1  15
BRANCH   1  30
ATOM     30  C   UNL     1      47.730   3.218  16.757  0.00  0.00    +0.000 C 
BRANCH  30  32
ATOM     31  C   UNL     1      50.086   2.635  17.399  0.00  0.00    +0.000 C 
ATOM     32  C   UNL     1      48.855   2.189  16.628  0.00  0.00    +0.000 C 
ENDBRANCH  30  32
ENDBRANCH   1  30
TORSDOF 7
ENDMDL
MODEL 8
REMARK VINA RESULT:    -7.003      2.153      3.220
REMARK INTER + INTRA:         -11.251
REMARK INTER:                  -9.790
REMARK INTRA:                  -1.461
REMARK UNBOUND:                -1.383
REMARK  Name = 
REMARK  8 active torsions:
REMARK  status: ('A' for Active; 'I' for Inactive)
REMARK    1  A    between atoms: C_1  and  C_2
REMARK    2  A    between atoms: C_2  and  C_3
REMARK    3  A    between atoms: C_3  and  C_4
REMARK    4  A    between atoms: C_4  and  N_5
REMARK    5  A    between atoms: C_4  and  C_18
REMARK    6  A    between atoms: C_6  and  C_8
REMARK    7  A    between atoms: C_21  and  O_22
REMARK    8  A    between atoms: O_22  and  C_23
REMARK                            x       y       z     vdW  Elec       q    Type
REMARK                         _______ _______ _______ _____ _____    ______ ____
ROOT
ATOM      1  C   UNL     1      48.502   7.820  13.659  0.00  0.00    +0.000 C 
ENDROOT
BRANCH   1   2
ATOM      2  C   UNL     1      47.338   7.101  12.988  0.00  0.00    +0.000 A 
ATOM      3  C   UNL     1      46.436   7.810  12.181  0.00  0.00    +0.000 A 
ATOM      4  C   UNL     1      45.382   7.146  11.548  0.00  0.00    +0.000 A 
ATOM      5  C   UNL     1      45.261   5.758  11.650  0.00  0.00    +0.000 A 
ATOM      6  C   UNL     1      46.120   5.051  12.489  0.00  0.00    +0.000 A 
ATOM      7  C   UNL     1      47.149   5.718  13.153  0.00  0.00    +0.000 A 
BRANCH   5   8
ATOM      8  O   UNL     1      44.296   5.016  11.004  0.00  0.00    +0.000 OA
BRANCH   8   9
ATOM      9  C   UNL     1      44.665   4.096  10.050  0.00  0.00    +0.000 A 
ATOM     10  C   UNL     1      44.333   2.737  10.079  0.00  0.00    +0.000 A 
ATOM     11  C   UNL     1      44.811   1.875   9.091  0.00  0.00    +0.000 A 
ATOM     12  C   UNL     1      45.565   2.379   8.032  0.00  0.00    +0.000 A 
ATOM     13  C   UNL     1      45.830   3.746   7.956  0.00  0.00    +0.000 A 
ATOM     14  C   UNL     1      45.383   4.603   8.963  0.00  0.00    +0.000 A 
ENDBRANCH   8   9
ENDBRANCH   5   8
ENDBRANCH   1   2
BRANCH   1  15
ATOM     15  N   UNL     1      48.323   7.713  15.099  0.00  0.00    +0.000 N 
ATOM     16  C   UNL     1      49.223   7.129  15.952  0.00  0.00    +0.000 C 
ATOM     17  O   UNL     1      50.326   6.728  15.596  0.00  0.00    +0.000 OA
ATOM     18  H   UNL     1      47.357   7.758  15.409  0.00  0.00    +0.000 HD
BRANCH  16  19
ATOM     19  C   UNL     1      48.807   7.061  17.358  0.00  0.00    +0.000 A 
ATOM     20  C   UNL     1      48.392   8.208  18.018  0.00  0.00    +0.000 A 
ATOM     21  S   UNL     1      47.954   7.933  19.645  0.00  0.00    +0.000 S 
ATOM     22  C   UNL     1      48.352   6.282  19.533  0.00  0.00    +0.000 A 
ATOM     23  N   UNL     1      48.256   5.459  20.611  0.00  0.00    +0.000 NA
ATOM     24  C   UNL     1      48.623   4.241  20.388  0.00  0.00    +0.000 A 
ATOM     25  N   UNL     1      49.060   3.765  19.178  0.00  0.00    +0.000 N 
ATOM     26  C   UNL     1      49.125   4.545  18.052  0.00  0.00    +0.000 A 
ATOM     27  O   UNL     1      49.430   4.073  16.964  0.00  0.00    +0.000 OA
ATOM     28  C   UNL     1      48.767   5.937  18.260  0.00  0.00    +0.000 A 
ATOM     29  H   UNL     1      49.302   2.793  19.059  0.00  0.00    +0.000 HD
ENDBRANCH  16  19
ENDBRANCH   1  15
BRANCH   1  30
ATOM     30  C   UNL     1      48.598   9.285  13.187  0.00  0.00    +0.000 C 
BRANCH  30  32
ATOM     31  C   UNL     1      50.709   8.404  12.151  0.00  0.00    +0.000 C 
ATOM     32  C   UNL     1      49.656   9.499  12.102  0.00  0.00    +0.000 C 
ENDBRANCH  30  32
ENDBRANCH   1  30
TORSDOF 7
ENDMDL
MODEL 9
REMARK VINA RESULT:    -6.697      3.452      5.897
REMARK INTER + INTRA:         -10.820
REMARK INTER:                  -9.291
REMARK INTRA:                  -1.529
REMARK UNBOUND:                -1.383
REMARK  Name = 
REMARK  8 active torsions:
REMARK  status: ('A' for Active; 'I' for Inactive)
REMARK    1  A    between atoms: C_1  and  C_2
REMARK    2  A    between atoms: C_2  and  C_3
REMARK    3  A    between atoms: C_3  and  C_4
REMARK    4  A    between atoms: C_4  and  N_5
REMARK    5  A    between atoms: C_4  and  C_18
REMARK    6  A    between atoms: C_6  and  C_8
REMARK    7  A    between atoms: C_21  and  O_22
REMARK    8  A    between atoms: O_22  and  C_23
REMARK                            x       y       z     vdW  Elec       q    Type
REMARK                         _______ _______ _______ _____ _____    ______ ____
ROOT
ATOM      1  C   UNL     1      49.025   6.509  17.254  0.00  0.00    +0.000 C 
ENDROOT
BRANCH   1   2
ATOM      2  C   UNL     1      48.247   5.758  16.179  0.00  0.00    +0.000 A 
ATOM      3  C   UNL     1      48.131   6.289  14.886  0.00  0.00    +0.000 A 
ATOM      4  C   UNL     1      47.438   5.589  13.895  0.00  0.00    +0.000 A 
ATOM      5  C   UNL     1      46.920   4.320  14.161  0.00  0.00    +0.000 A 
ATOM      6  C   UNL     1      46.985   3.805  15.453  0.00  0.00    +0.000 A 
ATOM      7  C   UNL     1      47.643   4.519  16.455  0.00  0.00    +0.000 A 
BRANCH   5   8
ATOM      8  O   UNL     1      46.284   3.532  13.226  0.00  0.00    +0.000 OA
BRANCH   8   9
ATOM      9  C   UNL     1      45.187   4.020  12.551  0.00  0.00    +0.000 A 
ATOM     10  C   UNL     1      45.041   4.022  11.160  0.00  0.00    +0.000 A 
ATOM     11  C   UNL     1      43.914   4.597  10.573  0.00  0.00    +0.000 A 
ATOM     12  C   UNL     1      42.896   5.111  11.375  0.00  0.00    +0.000 A 
ATOM     13  C   UNL     1      43.001   5.038  12.764  0.00  0.00    +0.000 A 
ATOM     14  C   UNL     1      44.145   4.495  13.351  0.00  0.00    +0.000 A 
ENDBRANCH   8   9
ENDBRANCH   5   8
ENDBRANCH   1   2
BRANCH   1  15
ATOM     15  N   UNL     1      50.066   5.623  17.752  0.00  0.00    +0.000 N 
ATOM     16  C   UNL     1      51.333   5.545  17.233  0.00  0.00    +0.000 C 
ATOM     17  O   UNL     1      51.749   6.295  16.357  0.00  0.00    +0.000 OA
ATOM     18  H   UNL     1      49.725   4.812  18.257  0.00  0.00    +0.000 HD
BRANCH  16  19
ATOM     19  C   UNL     1      52.201   4.529  17.839  0.00  0.00    +0.000 A 
ATOM     20  C   UNL     1      53.334   4.910  18.543  0.00  0.00    +0.000 A 
ATOM     21  S   UNL     1      54.220   3.592  19.168  0.00  0.00    +0.000 S 
ATOM     22  C   UNL     1      53.145   2.469  18.477  0.00  0.00    +0.000 A 
ATOM     23  N   UNL     1      53.355   1.130  18.590  0.00  0.00    +0.000 NA
ATOM     24  C   UNL     1      52.478   0.398  17.988  0.00  0.00    +0.000 A 
ATOM     25  N   UNL     1      51.396   0.883  17.296  0.00  0.00    +0.000 N 
ATOM     26  C   UNL     1      51.117   2.222  17.198  0.00  0.00    +0.000 A 
ATOM     27  O   UNL     1      50.096   2.622  16.654  0.00  0.00    +0.000 OA
ATOM     28  C   UNL     1      52.100   3.091  17.819  0.00  0.00    +0.000 A 
ATOM     29  H   UNL     1      50.727   0.257  16.874  0.00  0.00    +0.000 HD
ENDBRANCH  16  19
ENDBRANCH   1  15
BRANCH   1  30
ATOM     30  C   UNL     1      48.089   7.004  18.375  0.00  0.00    +0.000 C 
BRANCH  30  32
ATOM     31  C   UNL     1      48.382   6.831  20.863  0.00  0.00    +0.000 C 
ATOM     32  C   UNL     1      48.057   6.071  19.587  0.00  0.00    +0.000 C 
ENDBRANCH  30  32
ENDBRANCH   1  30
TORSDOF 7
ENDMDL
