MODEL 1
REMARK VINA RESULT:    -8.413      0.000      0.000
REMARK INTER + INTRA:         -12.985
REMARK INTER:                 -11.856
REMARK INTRA:                  -1.129
REMARK UNBOUND:                -1.129
REMARK  Name = 
REMARK  8 active torsions:
REMARK  status: ('A' for Active; 'I' for Inactive)
REMARK    1  A    between atoms: C_1  and  C_2
REMARK    2  A    between atoms: C_5  and  C_6
REMARK    3  A    between atoms: C_6  and  N_7
REMARK    4  A    between atoms: N_7  and  C_8
REMARK    5  A    between atoms: C_8  and  C_9
REMARK    6  A    between atoms: C_12  and  C_13
REMARK    7  A    between atoms: C_13  and  N_14
REMARK    8  A    between atoms: C_15  and  C_17
REMARK                            x       y       z     vdW  Elec       q    Type
REMARK                         _______ _______ _______ _____ _____    ______ ____
ROOT
ATOM      1  C   UNL     1      44.540   5.580  11.729  0.00  0.00    +0.000 A 
ATOM      2  C   UNL     1      44.841   5.034  12.985  0.00  0.00    +0.000 A 
ATOM      3  C   UNL     1      46.047   5.341  13.623  0.00  0.00    +0.000 A 
ATOM      4  C   UNL     1      46.970   6.204  13.022  0.00  0.00    +0.000 A 
ATOM      5  C   UNL     1      46.683   6.724  11.753  0.00  0.00    +0.000 A 
ATOM      6  C   UNL     1      45.477   6.419  11.114  0.00  0.00    +0.000 A 
ENDROOT
BRANCH   1   7
ATOM      7  C   UNL     1      43.215   5.292  11.064  0.00  0.00    +0.000 C 
BRANCH   7   8
ATOM      8  N   UNL     1      43.340   4.525   9.822  0.00  0.00    +0.000 NA
ATOM      9  H   UNL     1      42.407   4.350   9.451  0.00  0.00    +0.000 HD
BRANCH   8  10
ATOM     10  C   UNL     1      44.004   3.237  10.031  0.00  0.00    +0.000 C 
BRANCH  10  15
ATOM     11  C   UNL     1      48.037   2.091   6.084  0.00  0.00    +0.000 C 
ATOM     12  C   UNL     1      46.985   2.439   7.092  0.00  0.00    +0.000 A 
ATOM     13  C   UNL     1      46.545   3.750   7.243  0.00  0.00    +0.000 A 
ATOM     14  C   UNL     1      45.565   4.022   8.197  0.00  0.00    +0.000 A 
ATOM     15  C   UNL     1      45.045   2.985   8.975  0.00  0.00    +0.000 A 
ATOM     16  C   UNL     1      45.556   1.713   8.758  0.00  0.00    +0.000 A 
ATOM     17  N   UNL     1      46.505   1.418   7.839  0.00  0.00    +0.000 NA
ENDBRANCH  10  15
ENDBRANCH   8  10
ENDBRANCH   7   8
ENDBRANCH   1   7
BRANCH   4  18
ATOM     18  C   UNL     1      48.270   6.545  13.702  0.00  0.00    +0.000 C 
BRANCH  18  19
ATOM     19  N   UNL     1      48.097   6.655  15.128  0.00  0.00    +0.000 N 
ATOM     20  C   UNL     1      49.174   6.641  15.975  0.00  0.00    +0.000 C 
ATOM     21  O   UNL     1      50.327   6.568  15.558  0.00  0.00    +0.000 OA
ATOM     22  H   UNL     1      47.165   6.487  15.496  0.00  0.00    +0.000 HD
BRANCH  20  23
ATOM     23  C   UNL     1      48.884   6.783  17.406  0.00  0.00    +0.000 A 
ATOM     24  C   UNL     1      48.692   8.048  17.945  0.00  0.00    +0.000 A 
ATOM     25  S   UNL     1      48.319   8.034  19.609  0.00  0.00    +0.000 S 
ATOM     26  C   UNL     1      48.451   6.339  19.680  0.00  0.00    +0.000 A 
ATOM     27  N   UNL     1      48.273   5.672  20.852  0.00  0.00    +0.000 NA
ATOM     28  C   UNL     1      48.435   4.394  20.768  0.00  0.00    +0.000 A 
ATOM     29  N   UNL     1      48.750   3.721  19.616  0.00  0.00    +0.000 N 
ATOM     30  C   UNL     1      48.909   4.348  18.404  0.00  0.00    +0.000 A 
ATOM     31  O   UNL     1      49.148   3.711  17.383  0.00  0.00    +0.000 OA
ATOM     32  C   UNL     1      48.755   5.790  18.446  0.00  0.00    +0.000 A 
ATOM     33  H   UNL     1      48.853   2.717  19.615  0.00  0.00    +0.000 HD
ENDBRANCH  20  23
ENDBRANCH  18  19
ENDBRANCH   4  18
TORSDOF 7
ENDMDL
MODEL 2
REMARK VINA RESULT:    -8.083      1.441      2.337
REMARK INTER + INTRA:         -12.520
REMARK INTER:                 -11.498
REMARK INTRA:                  -1.022
REMARK UNBOUND:                -1.129
REMARK  Name = 
REMARK  8 active torsions:
REMARK  status: ('A' for Active; 'I' for Inactive)
REMARK    1  A    between atoms: C_1  and  C_2
REMARK    2  A    between atoms: C_5  and  C_6
REMARK    3  A    between atoms: C_6  and  N_7
REMARK    4  A    between atoms: N_7  and  C_8
REMARK    5  A    between atoms: C_8  and  C_9
REMARK    6  A    between atoms: C_12  and  C_13
REMARK    7  A    between atoms: C_13  and  N_14
REMARK    8  A    between atoms: C_15  and  C_17
REMARK                            x       y       z     vdW  Elec       q    Type
REMARK                         _______ _______ _______ _____ _____    ______ ____
ROOT
ATOM      1  C   UNL     1      44.577   5.760  12.041  0.00  0.00    +0.000 A 
ATOM      2  C   UNL     1      45.285   6.945  11.795  0.00  0.00    +0.000 A 
ATOM      3  C   UNL     1      46.467   7.224  12.488  0.00  0.00    +0.000 A 
ATOM      4  C   UNL     1      46.967   6.321  13.433  0.00  0.00    +0.000 A 
ATOM      5  C   UNL     1      46.243   5.153  13.701  0.00  0.00    +0.000 A 
ATOM      6  C   UNL     1      45.061   4.872  13.009  0.00  0.00    +0.000 A 
ENDROOT
BRANCH   1   7
ATOM      7  C   UNL     1      43.330   5.433  11.254  0.00  0.00    +0.000 C 
BRANCH   7   8
ATOM      8  N   UNL     1      43.607   4.873   9.928  0.00  0.00    +0.000 NA
ATOM      9  H   UNL     1      42.771   4.969   9.353  0.00  0.00    +0.000 HD
BRANCH   8  10
ATOM     10  C   UNL     1      43.966   3.454   9.990  0.00  0.00    +0.000 C 
BRANCH  10  15
ATOM     11  C   UNL     1      47.899   2.323   5.939  0.00  0.00    +0.000 C 
ATOM     12  C   UNL     1      46.882   2.568   7.013  0.00  0.00    +0.000 A 
ATOM     13  C   UNL     1      46.460   1.538   7.847  0.00  0.00    +0.000 A 
ATOM     14  C   UNL     1      45.512   1.818   8.830  0.00  0.00    +0.000 A 
ATOM     15  C   UNL     1      45.008   3.113   8.961  0.00  0.00    +0.000 A 
ATOM     16  C   UNL     1      45.482   4.070   8.074  0.00  0.00    +0.000 A 
ATOM     17  N   UNL     1      46.403   3.829   7.112  0.00  0.00    +0.000 NA
ENDBRANCH  10  15
ENDBRANCH   8  10
ENDBRANCH   7   8
ENDBRANCH   1   7
BRANCH   4  18
ATOM     18  C   UNL     1      48.242   6.609  14.182  0.00  0.00    +0.000 C 
BRANCH  18  19
ATOM     19  N   UNL     1      48.072   6.399  15.597  0.00  0.00    +0.000 N 
ATOM     20  C   UNL     1      49.149   6.168  16.413  0.00  0.00    +0.000 C 
ATOM     21  O   UNL     1      50.300   6.163  15.983  0.00  0.00    +0.000 OA
ATOM     22  H   UNL     1      47.137   6.174  15.923  0.00  0.00    +0.000 HD
BRANCH  20  23
ATOM     23  C   UNL     1      48.864   5.990  17.841  0.00  0.00    +0.000 A 
ATOM     24  C   UNL     1      49.119   4.765  18.443  0.00  0.00    +0.000 A 
ATOM     25  S   UNL     1      48.777   4.740  20.114  0.00  0.00    +0.000 S 
ATOM     26  C   UNL     1      48.226   6.349  20.081  0.00  0.00    +0.000 A 
ATOM     27  N   UNL     1      47.753   6.950  21.205  0.00  0.00    +0.000 NA
ATOM     28  C   UNL     1      47.339   8.160  21.030  0.00  0.00    +0.000 A 
ATOM     29  N   UNL     1      47.362   8.827  19.833  0.00  0.00    +0.000 N 
ATOM     30  C   UNL     1      47.859   8.273  18.677  0.00  0.00    +0.000 A 
ATOM     31  O   UNL     1      47.906   8.913  17.632  0.00  0.00    +0.000 OA
ATOM     32  C   UNL     1      48.323   6.905  18.817  0.00  0.00    +0.000 A 
ATOM     33  H   UNL     1      47.032   9.779  19.764  0.00  0.00    +0.000 HD
ENDBRANCH  20  23
ENDBRANCH  18  19
ENDBRANCH   4  18
TORSDOF 7
ENDMDL
MODEL 3
REMARK VINA RESULT:    -7.701      2.112      2.588
REMARK INTER + INTRA:         -11.981
REMARK INTER:                 -10.805
REMARK INTRA:                  -1.176
REMARK UNBOUND:                -1.129
REMARK  Name = 
REMARK  8 active torsions:
REMARK  status: ('A' for Active; 'I' for Inactive)
REMARK    1  A    between atoms: C_1  and  C_2
REMARK    2  A    between atoms: C_5  and  C_6
REMARK    3  A    between atoms: C_6  and  N_7
REMARK    4  A    between atoms: N_7  and  C_8
REMARK    5  A    between atoms: C_8  and  C_9
REMARK    6  A    between atoms: C_12  and  C_13
REMARK    7  A    between atoms: C_13  and  N_14
REMARK    8  A    between atoms: C_15  and  C_17
REMARK                            x       y       z     vdW  Elec       q    Type
REMARK                         _______ _______ _______ _____ _____    ______ ____
ROOT
ATOM      1  C   UNL     1      45.527   4.927  12.552  0.00  0.00    +0.000 A 
ATOM      2  C   UNL     1      45.632   5.981  11.632  0.00  0.00    +0.000 A 
ATOM      3  C   UNL     1      46.709   6.870  11.690  0.00  0.00    +0.000 A 
ATOM      4  C   UNL     1      47.704   6.719  12.662  0.00  0.00    +0.000 A 
ATOM      5  C   UNL     1      47.582   5.687  13.600  0.00  0.00    +0.000 A 
ATOM      6  C   UNL     1      46.506   4.796  13.544  0.00  0.00    +0.000 A 
ENDROOT
BRANCH   1   7
ATOM      7  C   UNL     1      44.393   3.934  12.456  0.00  0.00    +0.000 C 
BRANCH   7   8
ATOM      8  N   UNL     1      44.671   2.818  11.547  0.00  0.00    +0.000 NA
ATOM      9  H   UNL     1      45.678   2.755  11.405  0.00  0.00    +0.000 HD
BRANCH   8  10
ATOM     10  C   UNL     1      44.029   2.994  10.242  0.00  0.00    +0.000 C 
BRANCH  10  15
ATOM     11  C   UNL     1      47.912   2.300   6.046  0.00  0.00    +0.000 C 
ATOM     12  C   UNL     1      46.897   2.532   7.124  0.00  0.00    +0.000 A 
ATOM     13  C   UNL     1      46.422   3.810   7.396  0.00  0.00    +0.000 A 
ATOM     14  C   UNL     1      45.478   3.973   8.409  0.00  0.00    +0.000 A 
ATOM     15  C   UNL     1      45.028   2.862   9.125  0.00  0.00    +0.000 A 
ATOM     16  C   UNL     1      45.569   1.629   8.787  0.00  0.00    +0.000 A 
ATOM     17  N   UNL     1      46.485   1.440   7.808  0.00  0.00    +0.000 NA
ENDBRANCH  10  15
ENDBRANCH   8  10
ENDBRANCH   7   8
ENDBRANCH   1   7
BRANCH   4  18
ATOM     18  C   UNL     1      48.871   7.669  12.731  0.00  0.00    +0.000 C 
BRANCH  18  19
ATOM     19  N   UNL     1      49.891   7.176  13.621  0.00  0.00    +0.000 N 
ATOM     20  C   UNL     1      50.025   7.675  14.890  0.00  0.00    +0.000 C 
ATOM     21  O   UNL     1      49.267   8.535  15.334  0.00  0.00    +0.000 OA
ATOM     22  H   UNL     1      50.652   6.647  13.205  0.00  0.00    +0.000 HD
BRANCH  20  23
ATOM     23  C   UNL     1      51.082   7.085  15.718  0.00  0.00    +0.000 A 
ATOM     24  C   UNL     1      52.397   7.503  15.554  0.00  0.00    +0.000 A 
ATOM     25  S   UNL     1      53.492   6.753  16.624  0.00  0.00    +0.000 S 
ATOM     26  C   UNL     1      52.257   5.805  17.311  0.00  0.00    +0.000 A 
ATOM     27  N   UNL     1      52.531   4.905  18.292  0.00  0.00    +0.000 NA
ATOM     28  C   UNL     1      51.507   4.231  18.699  0.00  0.00    +0.000 A 
ATOM     29  N   UNL     1      50.233   4.382  18.219  0.00  0.00    +0.000 N 
ATOM     30  C   UNL     1      49.903   5.301  17.250  0.00  0.00    +0.000 A 
ATOM     31  O   UNL     1      48.744   5.441  16.874  0.00  0.00    +0.000 OA
ATOM     32  C   UNL     1      51.022   6.073  16.746  0.00  0.00    +0.000 A 
ATOM     33  H   UNL     1      49.472   3.831  18.587  0.00  0.00    +0.000 HD
ENDBRANCH  20  23
ENDBRANCH  18  19
ENDBRANCH   4  18
TORSDOF 7
ENDMDL
MODEL 4
REMARK VINA RESULT:    -6.959      3.104      4.061
REMARK INTER + INTRA:         -10.936
REMARK INTER:                  -9.839
REMARK INTRA:                  -1.097
REMARK UNBOUND:                -1.129
REMARK  Name = 
REMARK  8 active torsions:
REMARK  status: ('A' for Active; 'I' for Inactive)
REMARK    1  A    between atoms: C_1  and  C_2
REMARK    2  A    between atoms: C_5  and  C_6
REMARK    3  A    between atoms: C_6  and  N_7
REMARK    4  A    between atoms: N_7  and  C_8
REMARK    5  A    between atoms: C_8  and  C_9
REMARK    6  A    between atoms: C_12  and  C_13
REMARK    7  A    between atoms: C_13  and  N_14
REMARK    8  A    between atoms: C_15  and  C_17
REMARK                            x       y       z     vdW  Elec       q    Type
REMARK                         _______ _______ _______ _____ _____    ______ ____
ROOT
ATOM      1  C   UNL     1      45.575   4.857  12.531  0.00  0.00    +0.000 A 
ATOM      2  C   UNL     1      45.643   5.893  11.588  0.00  0.00    +0.000 A 
ATOM      3  C   UNL     1      46.730   6.772  11.574  0.00  0.00    +0.000 A 
ATOM      4  C   UNL     1      47.772   6.628  12.497  0.00  0.00    +0.000 A 
ATOM      5  C   UNL     1      47.688   5.613  13.459  0.00  0.00    +0.000 A 
ATOM      6  C   UNL     1      46.602   4.733  13.474  0.00  0.00    +0.000 A 
ENDROOT
BRANCH   1   7
ATOM      7  C   UNL     1      44.428   3.874  12.512  0.00  0.00    +0.000 C 
BRANCH   7   8
ATOM      8  N   UNL     1      44.620   2.773  11.564  0.00  0.00    +0.000 NA
ATOM      9  H   UNL     1      45.619   2.633  11.424  0.00  0.00    +0.000 HD
BRANCH   8  10
ATOM     10  C   UNL     1      44.004   3.048  10.263  0.00  0.00    +0.000 C 
BRANCH  10  15
ATOM     11  C   UNL     1      47.872   2.242   6.074  0.00  0.00    +0.000 C 
ATOM     12  C   UNL     1      46.861   2.503   7.149  0.00  0.00    +0.000 A 
ATOM     13  C   UNL     1      46.409   3.792   7.408  0.00  0.00    +0.000 A 
ATOM     14  C   UNL     1      45.469   3.982   8.420  0.00  0.00    +0.000 A 
ATOM     15  C   UNL     1      44.999   2.887   9.148  0.00  0.00    +0.000 A 
ATOM     16  C   UNL     1      45.519   1.641   8.822  0.00  0.00    +0.000 A 
ATOM     17  N   UNL     1      46.430   1.425   7.845  0.00  0.00    +0.000 NA
ENDBRANCH  10  15
ENDBRANCH   8  10
ENDBRANCH   7   8
ENDBRANCH   1   7
BRANCH   4  18
ATOM     18  C   UNL     1      48.950   7.566  12.489  0.00  0.00    +0.000 C 
BRANCH  18  19
ATOM     19  N   UNL     1      49.943   7.162  13.450  0.00  0.00    +0.000 N 
ATOM     20  C   UNL     1      50.248   7.952  14.528  0.00  0.00    +0.000 C 
ATOM     21  O   UNL     1      49.669   9.015  14.739  0.00  0.00    +0.000 OA
ATOM     22  H   UNL     1      50.579   6.419  13.175  0.00  0.00    +0.000 HD
BRANCH  20  23
ATOM     23  C   UNL     1      51.258   7.433  15.457  0.00  0.00    +0.000 A 
ATOM     24  C   UNL     1      50.922   6.410  16.335  0.00  0.00    +0.000 A 
ATOM     25  S   UNL     1      52.220   5.891  17.310  0.00  0.00    +0.000 S 
ATOM     26  C   UNL     1      53.265   7.050  16.631  0.00  0.00    +0.000 A 
ATOM     27  N   UNL     1      54.553   7.162  17.053  0.00  0.00    +0.000 NA
ATOM     28  C   UNL     1      55.223   8.103  16.475  0.00  0.00    +0.000 A 
ATOM     29  N   UNL     1      54.724   8.936  15.508  0.00  0.00    +0.000 N 
ATOM     30  C   UNL     1      53.439   8.839  15.028  0.00  0.00    +0.000 A 
ATOM     31  O   UNL     1      53.038   9.572  14.130  0.00  0.00    +0.000 OA
ATOM     32  C   UNL     1      52.638   7.807  15.657  0.00  0.00    +0.000 A 
ATOM     33  H   UNL     1      55.304   9.647  15.087  0.00  0.00    +0.000 HD
ENDBRANCH  20  23
ENDBRANCH  18  19
ENDBRANCH   4  18
TORSDOF 7
ENDMDL
MODEL 5
REMARK VINA RESULT:    -6.748      3.355      8.875
REMARK INTER + INTRA:         -10.639
REMARK INTER:                  -9.044
REMARK INTRA:                  -1.595
REMARK UNBOUND:                -1.129
REMARK  Name = 
REMARK  8 active torsions:
REMARK  status: ('A' for Active; 'I' for Inactive)
REMARK    1  A    between atoms: C_1  and  C_2
REMARK    2  A    between atoms: C_5  and  C_6
REMARK    3  A    between atoms: C_6  and  N_7
REMARK    4  A    between atoms: N_7  and  C_8
REMARK    5  A    between atoms: C_8  and  C_9
REMARK    6  A    between atoms: C_12  and  C_13
REMARK    7  A    between atoms: C_13  and  N_14
REMARK    8  A    between atoms: C_15  and  C_17
REMARK                            x       y       z     vdW  Elec       q    Type
REMARK                         _______ _______ _______ _____ _____    ______ ____
ROOT
ATOM      1  C   UNL     1      50.046   8.501  15.446  0.00  0.00    +0.000 A 
ATOM      2  C   UNL     1      48.673   8.782  15.399  0.00  0.00    +0.000 A 
ATOM      3  C   UNL     1      47.963   8.656  14.201  0.00  0.00    +0.000 A 
ATOM      4  C   UNL     1      48.609   8.239  13.032  0.00  0.00    +0.000 A 
ATOM      5  C   UNL     1      49.987   7.989  13.073  0.00  0.00    +0.000 A 
ATOM      6  C   UNL     1      50.699   8.114  14.269  0.00  0.00    +0.000 A 
ENDROOT
BRANCH   1   7
ATOM      7  C   UNL     1      50.803   8.584  16.751  0.00  0.00    +0.000 C 
BRANCH   7   8
ATOM      8  N   UNL     1      49.952   8.409  17.931  0.00  0.00    +0.000 NA
ATOM      9  H   UNL     1      50.041   9.233  18.524  0.00  0.00    +0.000 HD
BRANCH   8  10
ATOM     10  C   UNL     1      50.329   7.231  18.716  0.00  0.00    +0.000 C 
BRANCH  10  15
ATOM     11  C   UNL     1      48.255   2.382  16.404  0.00  0.00    +0.000 C 
ATOM     12  C   UNL     1      48.745   3.661  17.013  0.00  0.00    +0.000 A 
ATOM     13  C   UNL     1      47.860   4.685  17.334  0.00  0.00    +0.000 A 
ATOM     14  C   UNL     1      48.366   5.855  17.898  0.00  0.00    +0.000 A 
ATOM     15  C   UNL     1      49.737   5.978  18.132  0.00  0.00    +0.000 A 
ATOM     16  C   UNL     1      50.541   4.906  17.768  0.00  0.00    +0.000 A 
ATOM     17  N   UNL     1      50.078   3.757  17.220  0.00  0.00    +0.000 NA
ENDBRANCH  10  15
ENDBRANCH   8  10
ENDBRANCH   7   8
ENDBRANCH   1   7
BRANCH   4  18
ATOM     18  C   UNL     1      47.853   8.095  11.737  0.00  0.00    +0.000 C 
BRANCH  18  19
ATOM     19  N   UNL     1      47.095   6.871  11.712  0.00  0.00    +0.000 N 
ATOM     20  C   UNL     1      45.724   6.886  11.713  0.00  0.00    +0.000 C 
ATOM     21  O   UNL     1      45.086   7.936  11.704  0.00  0.00    +0.000 OA
ATOM     22  H   UNL     1      47.589   6.015  11.948  0.00  0.00    +0.000 HD
BRANCH  20  23
ATOM     23  C   UNL     1      45.054   5.582  11.663  0.00  0.00    +0.000 A 
ATOM     24  C   UNL     1      44.381   5.113  12.784  0.00  0.00    +0.000 A 
ATOM     25  S   UNL     1      43.619   3.607  12.543  0.00  0.00    +0.000 S 
ATOM     26  C   UNL     1      44.204   3.503  10.949  0.00  0.00    +0.000 A 
ATOM     27  N   UNL     1      43.932   2.420  10.173  0.00  0.00    +0.000 NA
ATOM     28  C   UNL     1      44.465   2.459   8.997  0.00  0.00    +0.000 A 
ATOM     29  N   UNL     1      45.239   3.486   8.525  0.00  0.00    +0.000 N 
ATOM     30  C   UNL     1      45.515   4.614   9.261  0.00  0.00    +0.000 A 
ATOM     31  O   UNL     1      46.175   5.535   8.791  0.00  0.00    +0.000 OA
ATOM     32  C   UNL     1      44.953   4.613  10.598  0.00  0.00    +0.000 A 
ATOM     33  H   UNL     1      45.619   3.460   7.590  0.00  0.00    +0.000 HD
ENDBRANCH  20  23
ENDBRANCH  18  19
ENDBRANCH   4  18
TORSDOF 7
ENDMDL
MODEL 6
REMARK VINA RESULT:    -6.739      4.214      6.118
REMARK INTER + INTRA:         -10.625
REMARK INTER:                  -9.508
REMARK INTRA:                  -1.118
REMARK UNBOUND:                -1.129
REMARK  Name = 
REMARK  8 active torsions:
REMARK  status: ('A' for Active; 'I' for Inactive)
REMARK    1  A    between atoms: C_1  and  C_2
REMARK    2  A    between atoms: C_5  and  C_6
REMARK    3  A    between atoms: C_6  and  N_7
REMARK    4  A    between atoms: N_7  and  C_8
REMARK    5  A    between atoms: C_8  and  C_9
REMARK    6  A    between atoms: C_12  and  C_13
REMARK    7  A    between atoms: C_13  and  N_14
REMARK    8  A    between atoms: C_15  and  C_17
REMARK                            x       y       z     vdW  Elec       q    Type
REMARK                         _______ _______ _______ _____ _____    ______ ____
ROOT
ATOM      1  C   UNL     1      46.104   6.217  12.212  0.00  0.00    +0.000 A 
ATOM      2  C   UNL     1      46.788   7.387  11.853  0.00  0.00    +0.000 A 
ATOM      3  C   UNL     1      47.903   7.811  12.581  0.00  0.00    +0.000 A 
ATOM      4  C   UNL     1      48.360   7.070  13.677  0.00  0.00    +0.000 A 
ATOM      5  C   UNL     1      47.658   5.918  14.055  0.00  0.00    +0.000 A 
ATOM      6  C   UNL     1      46.542   5.493  13.327  0.00  0.00    +0.000 A 
ENDROOT
BRANCH   1   7
ATOM      7  C   UNL     1      44.932   5.730  11.392  0.00  0.00    +0.000 C 
BRANCH   7   8
ATOM      8  N   UNL     1      44.858   4.270  11.291  0.00  0.00    +0.000 NA
ATOM      9  H   UNL     1      45.806   3.895  11.272  0.00  0.00    +0.000 HD
BRANCH   8  10
ATOM     10  C   UNL     1      44.163   3.833  10.077  0.00  0.00    +0.000 C 
BRANCH  10  15
ATOM     11  C   UNL     1      47.860   2.220   5.967  0.00  0.00    +0.000 C 
ATOM     12  C   UNL     1      46.899   2.590   7.056  0.00  0.00    +0.000 A 
ATOM     13  C   UNL     1      46.372   1.622   7.904  0.00  0.00    +0.000 A 
ATOM     14  C   UNL     1      45.481   2.018   8.901  0.00  0.00    +0.000 A 
ATOM     15  C   UNL     1      45.138   3.365   9.033  0.00  0.00    +0.000 A 
ATOM     16  C   UNL     1      45.708   4.255   8.131  0.00  0.00    +0.000 A 
ATOM     17  N   UNL     1      46.577   3.900   7.155  0.00  0.00    +0.000 NA
ENDBRANCH  10  15
ENDBRANCH   8  10
ENDBRANCH   7   8
ENDBRANCH   1   7
BRANCH   4  18
ATOM     18  C   UNL     1      49.563   7.514  14.466  0.00  0.00    +0.000 C 
BRANCH  18  19
ATOM     19  N   UNL     1      50.741   7.556  13.638  0.00  0.00    +0.000 N 
ATOM     20  C   UNL     1      51.481   8.703  13.515  0.00  0.00    +0.000 C 
ATOM     21  O   UNL     1      51.193   9.730  14.126  0.00  0.00    +0.000 OA
ATOM     22  H   UNL     1      50.860   6.806  12.963  0.00  0.00    +0.000 HD
BRANCH  20  23
ATOM     23  C   UNL     1      52.674   8.626  12.665  0.00  0.00    +0.000 A 
ATOM     24  C   UNL     1      53.884   9.120  13.136  0.00  0.00    +0.000 A 
ATOM     25  S   UNL     1      55.178   8.911  12.045  0.00  0.00    +0.000 S 
ATOM     26  C   UNL     1      54.157   8.201  10.884  0.00  0.00    +0.000 A 
ATOM     27  N   UNL     1      54.641   7.806   9.676  0.00  0.00    +0.000 NA
ATOM     28  C   UNL     1      53.750   7.313   8.881  0.00  0.00    +0.000 A 
ATOM     29  N   UNL     1      52.422   7.172   9.187  0.00  0.00    +0.000 N 
ATOM     30  C   UNL     1      51.894   7.529  10.405  0.00  0.00    +0.000 A 
ATOM     31  O   UNL     1      50.709   7.348  10.663  0.00  0.00    +0.000 OA
ATOM     32  C   UNL     1      52.851   8.104  11.331  0.00  0.00    +0.000 A 
ATOM     33  H   UNL     1      51.778   6.769   8.523  0.00  0.00    +0.000 HD
ENDBRANCH  20  23
ENDBRANCH  18  19
ENDBRANCH   4  18
TORSDOF 7
ENDMDL
MODEL 7
REMARK VINA RESULT:    -6.616      5.580      8.081
REMARK INTER + INTRA:         -10.452
REMARK INTER:                  -9.268
REMARK INTRA:                  -1.184
REMARK UNBOUND:                -1.129
REMARK  Name = 
REMARK  8 active torsions:
REMARK  status: ('A' for Active; 'I' for Inactive)
REMARK    1  A    between atoms: C_1  and  C_2
REMARK    2  A    between atoms: C_5  and  C_6
REMARK    3  A    between atoms: C_6  and  N_7
REMARK    4  A    between atoms: N_7  and  C_8
REMARK    5  A    between atoms: C_8  and  C_9
REMARK    6  A    between atoms: C_12  and  C_13
REMARK    7  A    between atoms: C_13  and  N_14
REMARK    8  A    between atoms: C_15  and  C_17
REMARK                            x       y       z     vdW  Elec       q    Type
REMARK                         _______ _______ _______ _____ _____    ______ ____
ROOT
ATOM      1  C   UNL     1      47.090   7.875  12.356  0.00  0.00    +0.000 A 
ATOM      2  C   UNL     1      47.997   6.805  12.387  0.00  0.00    +0.000 A 
ATOM      3  C   UNL     1      49.359   7.021  12.155  0.00  0.00    +0.000 A 
ATOM      4  C   UNL     1      49.840   8.309  11.896  0.00  0.00    +0.000 A 
ATOM      5  C   UNL     1      48.930   9.372  11.833  0.00  0.00    +0.000 A 
ATOM      6  C   UNL     1      47.568   9.158  12.065  0.00  0.00    +0.000 A 
ENDROOT
BRANCH   1   7
ATOM      7  C   UNL     1      45.628   7.650  12.660  0.00  0.00    +0.000 C 
BRANCH   7   8
ATOM      8  N   UNL     1      44.865   7.143  11.516  0.00  0.00    +0.000 NA
ATOM      9  H   UNL     1      43.975   7.637  11.473  0.00  0.00    +0.000 HD
BRANCH   8  10
ATOM     10  C   UNL     1      44.594   5.708  11.624  0.00  0.00    +0.000 C 
BRANCH  10  15
ATOM     11  C   UNL     1      46.201   3.124   6.735  0.00  0.00    +0.000 C 
ATOM     12  C   UNL     1      45.760   3.751   8.022  0.00  0.00    +0.000 A 
ATOM     13  C   UNL     1      44.913   3.074   8.894  0.00  0.00    +0.000 A 
ATOM     14  C   UNL     1      44.531   3.701  10.079  0.00  0.00    +0.000 A 
ATOM     15  C   UNL     1      45.000   4.984  10.370  0.00  0.00    +0.000 A 
ATOM     16  C   UNL     1      45.832   5.582   9.432  0.00  0.00    +0.000 A 
ATOM     17  N   UNL     1      46.221   4.997   8.275  0.00  0.00    +0.000 NA
ENDBRANCH  10  15
ENDBRANCH   8  10
ENDBRANCH   7   8
ENDBRANCH   1   7
BRANCH   4  18
ATOM     18  C   UNL     1      51.306   8.554  11.649  0.00  0.00    +0.000 C 
BRANCH  18  19
ATOM     19  N   UNL     1      51.696   8.096  10.340  0.00  0.00    +0.000 N 
ATOM     20  C   UNL     1      52.679   8.735   9.630  0.00  0.00    +0.000 C 
ATOM     21  O   UNL     1      53.290   9.698  10.088  0.00  0.00    +0.000 OA
ATOM     22  H   UNL     1      51.061   7.463   9.863  0.00  0.00    +0.000 HD
BRANCH  20  23
ATOM     23  C   UNL     1      53.012   8.170   8.318  0.00  0.00    +0.000 A 
ATOM     24  C   UNL     1      52.978   8.984   7.192  0.00  0.00    +0.000 A 
ATOM     25  S   UNL     1      53.436   8.185   5.757  0.00  0.00    +0.000 S 
ATOM     26  C   UNL     1      53.648   6.711   6.580  0.00  0.00    +0.000 A 
ATOM     27  N   UNL     1      54.018   5.585   5.913  0.00  0.00    +0.000 NA
ATOM     28  C   UNL     1      54.110   4.532   6.655  0.00  0.00    +0.000 A 
ATOM     29  N   UNL     1      53.873   4.504   8.004  0.00  0.00    +0.000 N 
ATOM     30  C   UNL     1      53.526   5.622   8.725  0.00  0.00    +0.000 A 
ATOM     31  O   UNL     1      53.364   5.572   9.940  0.00  0.00    +0.000 OA
ATOM     32  C   UNL     1      53.393   6.831   7.935  0.00  0.00    +0.000 A 
ATOM     33  H   UNL     1      53.972   3.648   8.530  0.00  0.00    +0.000 HD
ENDBRANCH  20  23
ENDBRANCH  18  19
ENDBRANCH   4  18
TORSDOF 7
ENDMDL
MODEL 8
REMARK VINA RESULT:    -6.579      5.096      9.522
REMARK INTER + INTRA:         -10.401
REMARK INTER:                  -9.263
REMARK INTRA:                  -1.137
REMARK UNBOUND:                -1.129
REMARK  Name = 
REMARK  8 active torsions:
REMARK  status: ('A' for Active; 'I' for Inactive)
REMARK    1  A    between atoms: C_1  and  C_2
REMARK    2  A    between atoms: C_5  and  C_6
REMARK    3  A    between atoms: C_6  and  N_7
REMARK    4  A    between atoms: N_7  and  C_8
REMARK    5  A    between atoms: C_8  and  C_9
REMARK    6  A    between atoms: C_12  and  C_13
REMARK    7  A    between atoms: C_13  and  N_14
REMARK    8  A    between atoms: C_15  and  C_17
REMARK                            x       y       z     vdW  Elec       q    Type
REMARK                         _______ _______ _______ _____ _____    ______ ____
ROOT
ATOM      1  C   UNL     1      51.379   3.140  17.752  0.00  0.00    +0.000 A 
ATOM      2  C   UNL     1      50.693   4.351  17.923  0.00  0.00    +0.000 A 
ATOM      3  C   UNL     1      49.338   4.453  17.594  0.00  0.00    +0.000 A 
ATOM      4  C   UNL     1      48.643   3.346  17.094  0.00  0.00    +0.000 A 
ATOM      5  C   UNL     1      49.336   2.146  16.892  0.00  0.00    +0.000 A 
ATOM      6  C   UNL     1      50.691   2.042  17.222  0.00  0.00    +0.000 A 
ENDROOT
BRANCH   1   7
ATOM      7  C   UNL     1      52.829   3.014  18.159  0.00  0.00    +0.000 C 
BRANCH   7   8
ATOM      8  N   UNL     1      53.167   1.700  18.712  0.00  0.00    +0.000 NA
ATOM      9  H   UNL     1      53.017   1.722  19.720  0.00  0.00    +0.000 HD
BRANCH   8  10
ATOM     10  C   UNL     1      54.563   1.336  18.460  0.00  0.00    +0.000 C 
BRANCH  10  15
ATOM     11  C   UNL     1      54.997  -4.049  16.465  0.00  0.00    +0.000 C 
ATOM     12  C   UNL     1      54.887  -2.629  16.934  0.00  0.00    +0.000 A 
ATOM     13  C   UNL     1      55.044  -1.570  16.048  0.00  0.00    +0.000 A 
ATOM     14  C   UNL     1      54.933  -0.268  16.534  0.00  0.00    +0.000 A 
ATOM     15  C   UNL     1      54.667  -0.051  17.888  0.00  0.00    +0.000 A 
ATOM     16  C   UNL     1      54.538  -1.173  18.695  0.00  0.00    +0.000 A 
ATOM     17  N   UNL     1      54.638  -2.448  18.251  0.00  0.00    +0.000 NA
ENDBRANCH  10  15
ENDBRANCH   8  10
ENDBRANCH   7   8
ENDBRANCH   1   7
BRANCH   4  18
ATOM     18  C   UNL     1      47.182   3.444  16.739  0.00  0.00    +0.000 C 
BRANCH  18  19
ATOM     19  N   UNL     1      46.953   4.478  15.763  0.00  0.00    +0.000 N 
ATOM     20  C   UNL     1      46.977   4.203  14.421  0.00  0.00    +0.000 C 
ATOM     21  O   UNL     1      47.162   3.066  13.994  0.00  0.00    +0.000 OA
ATOM     22  H   UNL     1      47.027   5.440  16.082  0.00  0.00    +0.000 HD
BRANCH  20  23
ATOM     23  C   UNL     1      46.707   5.327  13.517  0.00  0.00    +0.000 A 
ATOM     24  C   UNL     1      45.597   5.284  12.682  0.00  0.00    +0.000 A 
ATOM     25  S   UNL     1      45.403   6.686  11.731  0.00  0.00    +0.000 S 
ATOM     26  C   UNL     1      46.823   7.378  12.363  0.00  0.00    +0.000 A 
ATOM     27  N   UNL     1      47.256   8.596  11.938  0.00  0.00    +0.000 NA
ATOM     28  C   UNL     1      48.363   8.985  12.477  0.00  0.00    +0.000 A 
ATOM     29  N   UNL     1      49.072   8.272  13.408  0.00  0.00    +0.000 N 
ATOM     30  C   UNL     1      48.658   7.052  13.889  0.00  0.00    +0.000 A 
ATOM     31  O   UNL     1      49.293   6.460  14.755  0.00  0.00    +0.000 OA
ATOM     32  C   UNL     1      47.426   6.560  13.302  0.00  0.00    +0.000 A 
ATOM     33  H   UNL     1      49.927   8.638  13.799  0.00  0.00    +0.000 HD
ENDBRANCH  20  23
ENDBRANCH  18  19
ENDBRANCH   4  18
TORSDOF 7
ENDMDL
MODEL 9
REMARK VINA RESULT:    -6.546      3.572      9.543
REMARK INTER + INTRA:         -10.354
REMARK INTER:                  -8.722
REMARK INTRA:                  -1.632
REMARK UNBOUND:                -1.129
REMARK  Name = 
REMARK  8 active torsions:
REMARK  status: ('A' for Active; 'I' for Inactive)
REMARK    1  A    between atoms: C_1  and  C_2
REMARK    2  A    between atoms: C_5  and  C_6
REMARK    3  A    between atoms: C_6  and  N_7
REMARK    4  A    between atoms: N_7  and  C_8
REMARK    5  A    between atoms: C_8  and  C_9
REMARK    6  A    between atoms: C_12  and  C_13
REMARK    7  A    between atoms: C_13  and  N_14
REMARK    8  A    between atoms: C_15  and  C_17
REMARK                            x       y       z     vdW  Elec       q    Type
REMARK                         _______ _______ _______ _____ _____    ______ ____
ROOT
ATOM      1  C   UNL     1      49.948   4.980  17.411  0.00  0.00    +0.000 A 
ATOM      2  C   UNL     1      50.704   6.038  16.886  0.00  0.00    +0.000 A 
ATOM      3  C   UNL     1      50.175   6.863  15.889  0.00  0.00    +0.000 A 
ATOM      4  C   UNL     1      48.880   6.651  15.404  0.00  0.00    +0.000 A 
ATOM      5  C   UNL     1      48.137   5.574  15.906  0.00  0.00    +0.000 A 
ATOM      6  C   UNL     1      48.664   4.748  16.903  0.00  0.00    +0.000 A 
ENDROOT
BRANCH   1   7
ATOM      7  C   UNL     1      50.499   4.122  18.526  0.00  0.00    +0.000 C 
BRANCH   7   8
ATOM      8  N   UNL     1      49.769   4.267  19.789  0.00  0.00    +0.000 NA
ATOM      9  H   UNL     1      48.783   4.421  19.580  0.00  0.00    +0.000 HD
BRANCH   8  10
ATOM     10  C   UNL     1      50.256   5.397  20.584  0.00  0.00    +0.000 C 
BRANCH  10  15
ATOM     11  C   UNL     1      47.156  10.194  19.850  0.00  0.00    +0.000 C 
ATOM     12  C   UNL     1      47.920   8.917  20.025  0.00  0.00    +0.000 A 
ATOM     13  C   UNL     1      47.292   7.683  19.890  0.00  0.00    +0.000 A 
ATOM     14  C   UNL     1      48.048   6.525  20.063  0.00  0.00    +0.000 A 
ATOM     15  C   UNL     1      49.409   6.620  20.364  0.00  0.00    +0.000 A 
ATOM     16  C   UNL     1      49.942   7.896  20.489  0.00  0.00    +0.000 A 
ATOM     17  N   UNL     1      49.234   9.038  20.325  0.00  0.00    +0.000 NA
ENDBRANCH  10  15
ENDBRANCH   8  10
ENDBRANCH   7   8
ENDBRANCH   1   7
BRANCH   4  18
ATOM     18  C   UNL     1      48.298   7.536  14.333  0.00  0.00    +0.000 C 
BRANCH  18  19
ATOM     19  N   UNL     1      47.055   7.004  13.837  0.00  0.00    +0.000 N 
ATOM     20  C   UNL     1      46.811   6.912  12.492  0.00  0.00    +0.000 C 
ATOM     21  O   UNL     1      47.647   7.245  11.656  0.00  0.00    +0.000 OA
ATOM     22  H   UNL     1      46.283   6.942  14.494  0.00  0.00    +0.000 HD
BRANCH  20  23
ATOM     23  C   UNL     1      45.521   6.333  12.098  0.00  0.00    +0.000 A 
ATOM     24  C   UNL     1      44.539   7.153  11.558  0.00  0.00    +0.000 A 
ATOM     25  S   UNL     1      43.121   6.317  11.111  0.00  0.00    +0.000 S 
ATOM     26  C   UNL     1      43.750   4.839  11.670  0.00  0.00    +0.000 A 
ATOM     27  N   UNL     1      43.015   3.697  11.605  0.00  0.00    +0.000 NA
ATOM     28  C   UNL     1      43.602   2.656  12.094  0.00  0.00    +0.000 A 
ATOM     29  N   UNL     1      44.861   2.652  12.634  0.00  0.00    +0.000 N 
ATOM     30  C   UNL     1      45.653   3.774  12.693  0.00  0.00    +0.000 A 
ATOM     31  O   UNL     1      46.793   3.726  13.143  0.00  0.00    +0.000 OA
ATOM     32  C   UNL     1      45.033   4.977  12.171  0.00  0.00    +0.000 A 
ATOM     33  H   UNL     1      45.269   1.800  12.991  0.00  0.00    +0.000 HD
ENDBRANCH  20  23
ENDBRANCH  18  19
ENDBRANCH   4  18
TORSDOF 7
ENDMDL
