MODEL 1
REMARK VINA RESULT:    -8.437      0.000      0.000
REMARK INTER + INTRA:         -12.396
REMARK INTER:                 -11.397
REMARK INTRA:                  -0.999
REMARK UNBOUND:                -0.999
REMARK  Name = 
REMARK  6 active torsions:
REMARK  status: ('A' for Active; 'I' for Inactive)
REMARK    1  A    between atoms: C_2  and  C_4
REMARK    2  A    between atoms: C_7  and  N_8
REMARK    3  A    between atoms: N_8  and  C_9
REMARK    4  A    between atoms: C_9  and  C_10
REMARK    5  A    between atoms: C_10  and  C_11
REMARK    6  A    between atoms: C_15  and  C_16
REMARK                            x       y       z     vdW  Elec       q    Type
REMARK                         _______ _______ _______ _____ _____    ______ ____
ROOT
ATOM      1  N   UNL     1      43.849   3.509  10.539  0.00  0.00    +0.000 N 
ATOM      2  H   UNL     1      44.079   2.965  11.367  0.00  0.00    +0.000 HD
ENDROOT
BRANCH   1   6
ATOM      3  C   UNL     1      46.444   2.886   7.317  0.00  0.00    +0.000 A 
ATOM      4  N   UNL     1      45.997   4.151   7.590  0.00  0.00    +0.000 NA
ATOM      5  C   UNL     1      45.143   4.286   8.637  0.00  0.00    +0.000 A 
ATOM      6  C   UNL     1      44.666   3.244   9.434  0.00  0.00    +0.000 A 
ATOM      7  C   UNL     1      45.174   1.978   9.132  0.00  0.00    +0.000 A 
ATOM      8  C   UNL     1      46.062   1.776   8.066  0.00  0.00    +0.000 A 
ATOM      9 CL   UNL     1      46.599   0.159   7.795  0.00  0.00    +0.000 Cl
BRANCH   3  11
ATOM     10  N   UNL     1      48.703   2.615   6.468  0.00  0.00    +0.000 N 
ATOM     11  C   UNL     1      47.387   2.801   6.140  0.00  0.00    +0.000 C 
ATOM     12  O   UNL     1      47.056   2.893   4.963  0.00  0.00    +0.000 OA
ATOM     13  H   UNL     1      49.391   2.557   5.731  0.00  0.00    +0.000 HD
ATOM     14  H   UNL     1      48.979   2.542   7.441  0.00  0.00    +0.000 HD
ENDBRANCH   3  11
ENDBRANCH   1   6
BRANCH   1  15
ATOM     15  C   UNL     1      43.413   4.882  10.803  0.00  0.00    +0.000 C 
BRANCH  15  16
ATOM     16  C   UNL     1      43.651   5.279  12.264  0.00  0.00    +0.000 C 
BRANCH  16  17
ATOM     17  C   UNL     1      45.121   5.540  12.502  0.00  0.00    +0.000 A 
ATOM     18  C   UNL     1      45.849   6.382  11.659  0.00  0.00    +0.000 A 
ATOM     19  C   UNL     1      47.179   6.678  11.951  0.00  0.00    +0.000 A 
ATOM     20  C   UNL     1      47.783   6.152  13.096  0.00  0.00    +0.000 A 
ATOM     21  C   UNL     1      47.073   5.328  13.987  0.00  0.00    +0.000 A 
ATOM     22  C   UNL     1      45.743   5.016  13.648  0.00  0.00    +0.000 A 
BRANCH  21  23
ATOM     23  C   UNL     1      47.656   4.877  15.274  0.00  0.00    +0.000 A 
ATOM     24  C   UNL     1      48.462   5.737  16.045  0.00  0.00    +0.000 A 
ATOM     25  C   UNL     1      48.941   5.360  17.304  0.00  0.00    +0.000 A 
ATOM     26  C   UNL     1      48.619   4.112  17.827  0.00  0.00    +0.000 A 
ATOM     27  C   UNL     1      47.839   3.234  17.080  0.00  0.00    +0.000 A 
ATOM     28  C   UNL     1      47.373   3.610  15.815  0.00  0.00    +0.000 A 
ENDBRANCH  21  23
ENDBRANCH  16  17
ENDBRANCH  15  16
ENDBRANCH   1  15
TORSDOF 6
ENDMDL
MODEL 2
REMARK VINA RESULT:    -8.426      1.643      3.669
REMARK INTER + INTRA:         -12.381
REMARK INTER:                 -11.414
REMARK INTRA:                  -0.967
REMARK UNBOUND:                -0.999
REMARK  Name = 
REMARK  6 active torsions:
REMARK  status: ('A' for Active; 'I' for Inactive)
REMARK    1  A    between atoms: C_2  and  C_4
REMARK    2  A    between atoms: C_7  and  N_8
REMARK    3  A    between atoms: N_8  and  C_9
REMARK    4  A    between atoms: C_9  and  C_10
REMARK    5  A    between atoms: C_10  and  C_11
REMARK    6  A    between atoms: C_15  and  C_16
REMARK                            x       y       z     vdW  Elec       q    Type
REMARK                         _______ _______ _______ _____ _____    ______ ____
ROOT
ATOM      1  N   UNL     1      43.801   3.449  10.634  0.00  0.00    +0.000 N 
ATOM      2  H   UNL     1      44.017   2.867  11.439  0.00  0.00    +0.000 HD
ENDROOT
BRANCH   1   6
ATOM      3  C   UNL     1      46.369   2.891   7.379  0.00  0.00    +0.000 A 
ATOM      4  N   UNL     1      45.913   4.148   7.672  0.00  0.00    +0.000 NA
ATOM      5  C   UNL     1      45.069   4.263   8.729  0.00  0.00    +0.000 A 
ATOM      6  C   UNL     1      44.610   3.206   9.518  0.00  0.00    +0.000 A 
ATOM      7  C   UNL     1      45.126   1.949   9.195  0.00  0.00    +0.000 A 
ATOM      8  C   UNL     1      46.005   1.768   8.117  0.00  0.00    +0.000 A 
ATOM      9 CL   UNL     1      46.555   0.160   7.822  0.00  0.00    +0.000 Cl
BRANCH   3  11
ATOM     10  N   UNL     1      48.614   2.597   6.501  0.00  0.00    +0.000 N 
ATOM     11  C   UNL     1      47.300   2.830   6.191  0.00  0.00    +0.000 C 
ATOM     12  O   UNL     1      46.964   2.977   5.022  0.00  0.00    +0.000 OA
ATOM     13  H   UNL     1      49.295   2.551   5.755  0.00  0.00    +0.000 HD
ATOM     14  H   UNL     1      48.895   2.477   7.467  0.00  0.00    +0.000 HD
ENDBRANCH   3  11
ENDBRANCH   1   6
BRANCH   1  15
ATOM     15  C   UNL     1      43.403   4.822  10.952  0.00  0.00    +0.000 C 
BRANCH  15  16
ATOM     16  C   UNL     1      43.450   5.089  12.461  0.00  0.00    +0.000 C 
BRANCH  16  17
ATOM     17  C   UNL     1      44.857   5.439  12.886  0.00  0.00    +0.000 A 
ATOM     18  C   UNL     1      45.661   4.513  13.553  0.00  0.00    +0.000 A 
ATOM     19  C   UNL     1      46.984   4.830  13.855  0.00  0.00    +0.000 A 
ATOM     20  C   UNL     1      47.519   6.064  13.472  0.00  0.00    +0.000 A 
ATOM     21  C   UNL     1      46.751   7.009  12.769  0.00  0.00    +0.000 A 
ATOM     22  C   UNL     1      45.407   6.678  12.511  0.00  0.00    +0.000 A 
BRANCH  21  23
ATOM     23  C   UNL     1      47.342   8.261  12.237  0.00  0.00    +0.000 A 
ATOM     24  C   UNL     1      46.597   9.456  12.201  0.00  0.00    +0.000 A 
ATOM     25  C   UNL     1      47.170  10.664  11.791  0.00  0.00    +0.000 A 
ATOM     26  C   UNL     1      48.507  10.708  11.411  0.00  0.00    +0.000 A 
ATOM     27  C   UNL     1      49.263   9.540  11.418  0.00  0.00    +0.000 A 
ATOM     28  C   UNL     1      48.682   8.330  11.816  0.00  0.00    +0.000 A 
ENDBRANCH  21  23
ENDBRANCH  16  17
ENDBRANCH  15  16
ENDBRANCH   1  15
TORSDOF 6
ENDMDL
MODEL 3
REMARK VINA RESULT:    -8.199      2.333      3.955
REMARK INTER + INTRA:         -12.074
REMARK INTER:                 -11.124
REMARK INTRA:                  -0.950
REMARK UNBOUND:                -0.999
REMARK  Name = 
REMARK  6 active torsions:
REMARK  status: ('A' for Active; 'I' for Inactive)
REMARK    1  A    between atoms: C_2  and  C_4
REMARK    2  A    between atoms: C_7  and  N_8
REMARK    3  A    between atoms: N_8  and  C_9
REMARK    4  A    between atoms: C_9  and  C_10
REMARK    5  A    between atoms: C_10  and  C_11
REMARK    6  A    between atoms: C_15  and  C_16
REMARK                            x       y       z     vdW  Elec       q    Type
REMARK                         _______ _______ _______ _____ _____    ______ ____
ROOT
ATOM      1  N   UNL     1      43.624   4.748  10.021  0.00  0.00    +0.000 N 
ATOM      2  H   UNL     1      42.995   5.242   9.393  0.00  0.00    +0.000 HD
ENDROOT
BRANCH   1   6
ATOM      3  C   UNL     1      46.164   2.053   8.075  0.00  0.00    +0.000 A 
ATOM      4  N   UNL     1      45.499   1.659   9.205  0.00  0.00    +0.000 NA
ATOM      5  C   UNL     1      44.703   2.584   9.801  0.00  0.00    +0.000 A 
ATOM      6  C   UNL     1      44.532   3.902   9.374  0.00  0.00    +0.000 A 
ATOM      7  C   UNL     1      45.209   4.245   8.201  0.00  0.00    +0.000 A 
ATOM      8  C   UNL     1      46.042   3.332   7.538  0.00  0.00    +0.000 A 
ATOM      9 CL   UNL     1      46.830   3.892   6.110  0.00  0.00    +0.000 Cl
BRANCH   3  11
ATOM     10  N   UNL     1      46.583  -0.299   7.641  0.00  0.00    +0.000 N 
ATOM     11  C   UNL     1      47.034   0.981   7.462  0.00  0.00    +0.000 C 
ATOM     12  O   UNL     1      48.075   1.183   6.847  0.00  0.00    +0.000 OA
ATOM     13  H   UNL     1      47.120  -1.068   7.264  0.00  0.00    +0.000 HD
ATOM     14  H   UNL     1      45.724  -0.469   8.152  0.00  0.00    +0.000 HD
ENDBRANCH   3  11
ENDBRANCH   1   6
BRANCH   1  15
ATOM     15  C   UNL     1      43.027   4.331  11.291  0.00  0.00    +0.000 C 
BRANCH  15  16
ATOM     16  C   UNL     1      43.188   5.406  12.371  0.00  0.00    +0.000 C 
BRANCH  16  17
ATOM     17  C   UNL     1      44.641   5.532  12.770  0.00  0.00    +0.000 A 
ATOM     18  C   UNL     1      45.345   4.441  13.282  0.00  0.00    +0.000 A 
ATOM     19  C   UNL     1      46.706   4.558  13.559  0.00  0.00    +0.000 A 
ATOM     20  C   UNL     1      47.376   5.759  13.305  0.00  0.00    +0.000 A 
ATOM     21  C   UNL     1      46.708   6.869  12.758  0.00  0.00    +0.000 A 
ATOM     22  C   UNL     1      45.327   6.734  12.524  0.00  0.00    +0.000 A 
BRANCH  21  23
ATOM     23  C   UNL     1      47.432   8.099  12.355  0.00  0.00    +0.000 A 
ATOM     24  C   UNL     1      48.775   8.046  11.933  0.00  0.00    +0.000 A 
ATOM     25  C   UNL     1      49.440   9.181  11.462  0.00  0.00    +0.000 A 
ATOM     26  C   UNL     1      48.776  10.401  11.394  0.00  0.00    +0.000 A 
ATOM     27  C   UNL     1      47.455  10.489  11.821  0.00  0.00    +0.000 A 
ATOM     28  C   UNL     1      46.796   9.353  12.306  0.00  0.00    +0.000 A 
ENDBRANCH  21  23
ENDBRANCH  16  17
ENDBRANCH  15  16
ENDBRANCH   1  15
TORSDOF 6
ENDMDL
MODEL 4
REMARK VINA RESULT:    -8.196      3.979      7.892
REMARK INTER + INTRA:         -12.071
REMARK INTER:                 -11.079
REMARK INTRA:                  -0.992
REMARK UNBOUND:                -0.999
REMARK  Name = 
REMARK  6 active torsions:
REMARK  status: ('A' for Active; 'I' for Inactive)
REMARK    1  A    between atoms: C_2  and  C_4
REMARK    2  A    between atoms: C_7  and  N_8
REMARK    3  A    between atoms: N_8  and  C_9
REMARK    4  A    between atoms: C_9  and  C_10
REMARK    5  A    between atoms: C_10  and  C_11
REMARK    6  A    between atoms: C_15  and  C_16
REMARK                            x       y       z     vdW  Elec       q    Type
REMARK                         _______ _______ _______ _____ _____    ______ ____
ROOT
ATOM      1  N   UNL     1      46.504   6.486  12.542  0.00  0.00    +0.000 N 
ATOM      2  H   UNL     1      46.836   6.160  11.638  0.00  0.00    +0.000 HD
ENDROOT
BRANCH   1   6
ATOM      3  C   UNL     1      47.739   3.910  15.599  0.00  0.00    +0.000 A 
ATOM      4  N   UNL     1      47.033   3.410  14.538  0.00  0.00    +0.000 NA
ATOM      5  C   UNL     1      46.645   4.298  13.587  0.00  0.00    +0.000 A 
ATOM      6  C   UNL     1      46.882   5.674  13.618  0.00  0.00    +0.000 A 
ATOM      7  C   UNL     1      47.631   6.129  14.706  0.00  0.00    +0.000 A 
ATOM      8  C   UNL     1      48.063   5.259  15.718  0.00  0.00    +0.000 A 
ATOM      9 CL   UNL     1      48.966   5.956  17.011  0.00  0.00    +0.000 Cl
BRANCH   3  11
ATOM     10  N   UNL     1      47.313   2.794  17.713  0.00  0.00    +0.000 N 
ATOM     11  C   UNL     1      48.137   2.873  16.623  0.00  0.00    +0.000 C 
ATOM     12  O   UNL     1      49.114   2.138  16.539  0.00  0.00    +0.000 OA
ATOM     13  H   UNL     1      47.524   2.127  18.442  0.00  0.00    +0.000 HD
ATOM     14  H   UNL     1      46.506   3.403  17.786  0.00  0.00    +0.000 HD
ENDBRANCH   3  11
ENDBRANCH   1   6
BRANCH   1  15
ATOM     15  C   UNL     1      45.173   7.095  12.531  0.00  0.00    +0.000 C 
BRANCH  15  16
ATOM     16  C   UNL     1      44.439   6.822  11.213  0.00  0.00    +0.000 C 
BRANCH  16  17
ATOM     17  C   UNL     1      44.383   5.336  10.944  0.00  0.00    +0.000 A 
ATOM     18  C   UNL     1      43.465   4.517  11.604  0.00  0.00    +0.000 A 
ATOM     19  C   UNL     1      43.375   3.166  11.274  0.00  0.00    +0.000 A 
ATOM     20  C   UNL     1      44.184   2.630  10.268  0.00  0.00    +0.000 A 
ATOM     21  C   UNL     1      45.096   3.430   9.557  0.00  0.00    +0.000 A 
ATOM     22  C   UNL     1      45.193   4.782   9.937  0.00  0.00    +0.000 A 
BRANCH  21  23
ATOM     23  C   UNL     1      45.859   2.909   8.397  0.00  0.00    +0.000 A 
ATOM     24  C   UNL     1      46.226   1.551   8.322  0.00  0.00    +0.000 A 
ATOM     25  C   UNL     1      46.862   1.025   7.193  0.00  0.00    +0.000 A 
ATOM     26  C   UNL     1      47.142   1.846   6.105  0.00  0.00    +0.000 A 
ATOM     27  C   UNL     1      46.807   3.195   6.158  0.00  0.00    +0.000 A 
ATOM     28  C   UNL     1      46.183   3.721   7.295  0.00  0.00    +0.000 A 
ENDBRANCH  21  23
ENDBRANCH  16  17
ENDBRANCH  15  16
ENDBRANCH   1  15
TORSDOF 6
ENDMDL
MODEL 5
REMARK VINA RESULT:    -7.533      1.512      2.065
REMARK INTER + INTRA:         -11.175
REMARK INTER:                 -10.404
REMARK INTRA:                  -0.771
REMARK UNBOUND:                -0.999
REMARK  Name = 
REMARK  6 active torsions:
REMARK  status: ('A' for Active; 'I' for Inactive)
REMARK    1  A    between atoms: C_2  and  C_4
REMARK    2  A    between atoms: C_7  and  N_8
REMARK    3  A    between atoms: N_8  and  C_9
REMARK    4  A    between atoms: C_9  and  C_10
REMARK    5  A    between atoms: C_10  and  C_11
REMARK    6  A    between atoms: C_15  and  C_16
REMARK                            x       y       z     vdW  Elec       q    Type
REMARK                         _______ _______ _______ _____ _____    ______ ____
ROOT
ATOM      1  N   UNL     1      43.800   3.466  10.550  0.00  0.00    +0.000 N 
ATOM      2  H   UNL     1      43.482   2.624  11.022  0.00  0.00    +0.000 HD
ENDROOT
BRANCH   1   6
ATOM      3  C   UNL     1      46.385   2.918   7.306  0.00  0.00    +0.000 A 
ATOM      4  N   UNL     1      45.901   4.169   7.581  0.00  0.00    +0.000 NA
ATOM      5  C   UNL     1      45.053   4.280   8.635  0.00  0.00    +0.000 A 
ATOM      6  C   UNL     1      44.616   3.225   9.438  0.00  0.00    +0.000 A 
ATOM      7  C   UNL     1      45.161   1.975   9.134  0.00  0.00    +0.000 A 
ATOM      8  C   UNL     1      46.045   1.798   8.060  0.00  0.00    +0.000 A 
ATOM      9 CL   UNL     1      46.631   0.199   7.788  0.00  0.00    +0.000 Cl
BRANCH   3  11
ATOM     10  N   UNL     1      48.640   2.684   6.436  0.00  0.00    +0.000 N 
ATOM     11  C   UNL     1      47.320   2.861   6.121  0.00  0.00    +0.000 C 
ATOM     12  O   UNL     1      46.979   2.966   4.948  0.00  0.00    +0.000 OA
ATOM     13  H   UNL     1      49.323   2.644   5.693  0.00  0.00    +0.000 HD
ATOM     14  H   UNL     1      48.924   2.599   7.406  0.00  0.00    +0.000 HD
ENDBRANCH   3  11
ENDBRANCH   1   6
BRANCH   1  15
ATOM     15  C   UNL     1      44.098   4.596  11.432  0.00  0.00    +0.000 C 
BRANCH  15  16
ATOM     16  C   UNL     1      45.443   4.417  12.145  0.00  0.00    +0.000 C 
BRANCH  16  17
ATOM     17  C   UNL     1      46.018   5.763  12.522  0.00  0.00    +0.000 A 
ATOM     18  C   UNL     1      45.294   6.939  12.316  0.00  0.00    +0.000 A 
ATOM     19  C   UNL     1      45.808   8.158  12.754  0.00  0.00    +0.000 A 
ATOM     20  C   UNL     1      47.037   8.207  13.420  0.00  0.00    +0.000 A 
ATOM     21  C   UNL     1      47.778   7.040  13.676  0.00  0.00    +0.000 A 
ATOM     22  C   UNL     1      47.253   5.828  13.189  0.00  0.00    +0.000 A 
BRANCH  21  23
ATOM     23  C   UNL     1      49.012   7.059  14.499  0.00  0.00    +0.000 A 
ATOM     24  C   UNL     1      50.149   7.780  14.086  0.00  0.00    +0.000 A 
ATOM     25  C   UNL     1      51.284   7.885  14.895  0.00  0.00    +0.000 A 
ATOM     26  C   UNL     1      51.309   7.275  16.144  0.00  0.00    +0.000 A 
ATOM     27  C   UNL     1      50.207   6.540  16.573  0.00  0.00    +0.000 A 
ATOM     28  C   UNL     1      49.077   6.426  15.754  0.00  0.00    +0.000 A 
ENDBRANCH  21  23
ENDBRANCH  16  17
ENDBRANCH  15  16
ENDBRANCH   1  15
TORSDOF 6
ENDMDL
MODEL 6
REMARK VINA RESULT:    -7.517      2.231      3.975
REMARK INTER + INTRA:         -11.152
REMARK INTER:                 -10.413
REMARK INTRA:                  -0.740
REMARK UNBOUND:                -0.999
REMARK  Name = 
REMARK  6 active torsions:
REMARK  status: ('A' for Active; 'I' for Inactive)
REMARK    1  A    between atoms: C_2  and  C_4
REMARK    2  A    between atoms: C_7  and  N_8
REMARK    3  A    between atoms: N_8  and  C_9
REMARK    4  A    between atoms: C_9  and  C_10
REMARK    5  A    between atoms: C_10  and  C_11
REMARK    6  A    between atoms: C_15  and  C_16
REMARK                            x       y       z     vdW  Elec       q    Type
REMARK                         _______ _______ _______ _____ _____    ______ ____
ROOT
ATOM      1  N   UNL     1      43.597   4.753   9.941  0.00  0.00    +0.000 N 
ATOM      2  H   UNL     1      42.685   4.334  10.107  0.00  0.00    +0.000 HD
ENDROOT
BRANCH   1   6
ATOM      3  C   UNL     1      46.163   2.044   8.050  0.00  0.00    +0.000 A 
ATOM      4  N   UNL     1      45.448   1.645   9.147  0.00  0.00    +0.000 NA
ATOM      5  C   UNL     1      44.646   2.573   9.727  0.00  0.00    +0.000 A 
ATOM      6  C   UNL     1      44.514   3.901   9.316  0.00  0.00    +0.000 A 
ATOM      7  C   UNL     1      45.243   4.251   8.176  0.00  0.00    +0.000 A 
ATOM      8  C   UNL     1      46.084   3.333   7.530  0.00  0.00    +0.000 A 
ATOM      9 CL   UNL     1      46.937   3.902   6.142  0.00  0.00    +0.000 Cl
BRANCH   3  11
ATOM     10  N   UNL     1      46.591  -0.312   7.650  0.00  0.00    +0.000 N 
ATOM     11  C   UNL     1      47.038   0.967   7.453  0.00  0.00    +0.000 C 
ATOM     12  O   UNL     1      48.079   1.164   6.837  0.00  0.00    +0.000 OA
ATOM     13  H   UNL     1      47.131  -1.085   7.284  0.00  0.00    +0.000 HD
ATOM     14  H   UNL     1      45.732  -0.478   8.162  0.00  0.00    +0.000 HD
ENDBRANCH   3  11
ENDBRANCH   1   6
BRANCH   1  15
ATOM     15  C   UNL     1      44.058   5.666  10.990  0.00  0.00    +0.000 C 
BRANCH  15  16
ATOM     16  C   UNL     1      44.263   4.937  12.322  0.00  0.00    +0.000 C 
BRANCH  16  17
ATOM     17  C   UNL     1      45.544   5.399  12.979  0.00  0.00    +0.000 A 
ATOM     18  C   UNL     1      46.121   4.675  14.023  0.00  0.00    +0.000 A 
ATOM     19  C   UNL     1      47.348   5.073  14.551  0.00  0.00    +0.000 A 
ATOM     20  C   UNL     1      48.015   6.183  14.025  0.00  0.00    +0.000 A 
ATOM     21  C   UNL     1      47.482   6.917  12.951  0.00  0.00    +0.000 A 
ATOM     22  C   UNL     1      46.224   6.516  12.462  0.00  0.00    +0.000 A 
BRANCH  21  23
ATOM     23  C   UNL     1      48.240   8.009  12.293  0.00  0.00    +0.000 A 
ATOM     24  C   UNL     1      47.666   9.282  12.108  0.00  0.00    +0.000 A 
ATOM     25  C   UNL     1      48.400  10.346  11.575  0.00  0.00    +0.000 A 
ATOM     26  C   UNL     1      49.732  10.166  11.220  0.00  0.00    +0.000 A 
ATOM     27  C   UNL     1      50.322   8.915  11.374  0.00  0.00    +0.000 A 
ATOM     28  C   UNL     1      49.580   7.848  11.895  0.00  0.00    +0.000 A 
ENDBRANCH  21  23
ENDBRANCH  16  17
ENDBRANCH  15  16
ENDBRANCH   1  15
TORSDOF 6
ENDMDL
MODEL 7
REMARK VINA RESULT:    -7.330      4.557      8.237
REMARK INTER + INTRA:         -10.900
REMARK INTER:                 -10.317
REMARK INTRA:                  -0.583
REMARK UNBOUND:                -0.999
REMARK  Name = 
REMARK  6 active torsions:
REMARK  status: ('A' for Active; 'I' for Inactive)
REMARK    1  A    between atoms: C_2  and  C_4
REMARK    2  A    between atoms: C_7  and  N_8
REMARK    3  A    between atoms: N_8  and  C_9
REMARK    4  A    between atoms: C_9  and  C_10
REMARK    5  A    between atoms: C_10  and  C_11
REMARK    6  A    between atoms: C_15  and  C_16
REMARK                            x       y       z     vdW  Elec       q    Type
REMARK                         _______ _______ _______ _____ _____    ______ ____
ROOT
ATOM      1  N   UNL     1      46.014   5.401  13.686  0.00  0.00    +0.000 N 
ATOM      2  H   UNL     1      45.113   5.075  14.025  0.00  0.00    +0.000 HD
ENDROOT
BRANCH   1   6
ATOM      3  C   UNL     1      49.084   5.306  16.527  0.00  0.00    +0.000 A 
ATOM      4  N   UNL     1      49.112   6.248  15.533  0.00  0.00    +0.000 NA
ATOM      5  C   UNL     1      48.098   6.216  14.631  0.00  0.00    +0.000 A 
ATOM      6  C   UNL     1      47.052   5.292  14.619  0.00  0.00    +0.000 A 
ATOM      7  C   UNL     1      47.054   4.371  15.670  0.00  0.00    +0.000 A 
ATOM      8  C   UNL     1      48.072   4.356  16.634  0.00  0.00    +0.000 A 
ATOM      9 CL   UNL     1      47.959   3.157  17.868  0.00  0.00    +0.000 Cl
BRANCH   3  11
ATOM     10  N   UNL     1      51.102   4.328  17.459  0.00  0.00    +0.000 N 
ATOM     11  C   UNL     1      50.241   5.392  17.495  0.00  0.00    +0.000 C 
ATOM     12  O   UNL     1      50.439   6.314  18.277  0.00  0.00    +0.000 OA
ATOM     13  H   UNL     1      51.895   4.315  18.086  0.00  0.00    +0.000 HD
ATOM     14  H   UNL     1      50.938   3.563  16.815  0.00  0.00    +0.000 HD
ENDBRANCH   3  11
ENDBRANCH   1   6
BRANCH   1  15
ATOM     15  C   UNL     1      45.957   6.568  12.804  0.00  0.00    +0.000 C 
BRANCH  15  16
ATOM     16  C   UNL     1      44.734   6.519  11.881  0.00  0.00    +0.000 C 
BRANCH  16  17
ATOM     17  C   UNL     1      44.488   5.102  11.415  0.00  0.00    +0.000 A 
ATOM     18  C   UNL     1      43.467   4.327  11.968  0.00  0.00    +0.000 A 
ATOM     19  C   UNL     1      43.204   3.057  11.460  0.00  0.00    +0.000 A 
ATOM     20  C   UNL     1      43.944   2.562  10.382  0.00  0.00    +0.000 A 
ATOM     21  C   UNL     1      44.957   3.325   9.776  0.00  0.00    +0.000 A 
ATOM     22  C   UNL     1      45.227   4.590  10.334  0.00  0.00    +0.000 A 
BRANCH  21  23
ATOM     23  C   UNL     1      45.654   2.871   8.548  0.00  0.00    +0.000 A 
ATOM     24  C   UNL     1      45.936   3.770   7.500  0.00  0.00    +0.000 A 
ATOM     25  C   UNL     1      46.675   3.378   6.379  0.00  0.00    +0.000 A 
ATOM     26  C   UNL     1      47.157   2.078   6.281  0.00  0.00    +0.000 A 
ATOM     27  C   UNL     1      46.878   1.163   7.291  0.00  0.00    +0.000 A 
ATOM     28  C   UNL     1      46.126   1.554   8.406  0.00  0.00    +0.000 A 
ENDBRANCH  21  23
ENDBRANCH  16  17
ENDBRANCH  15  16
ENDBRANCH   1  15
TORSDOF 6
ENDMDL
MODEL 8
REMARK VINA RESULT:    -7.009      4.461      7.833
REMARK INTER + INTRA:         -10.467
REMARK INTER:                  -9.504
REMARK INTRA:                  -0.963
REMARK UNBOUND:                -0.999
REMARK  Name = 
REMARK  6 active torsions:
REMARK  status: ('A' for Active; 'I' for Inactive)
REMARK    1  A    between atoms: C_2  and  C_4
REMARK    2  A    between atoms: C_7  and  N_8
REMARK    3  A    between atoms: N_8  and  C_9
REMARK    4  A    between atoms: C_9  and  C_10
REMARK    5  A    between atoms: C_10  and  C_11
REMARK    6  A    between atoms: C_15  and  C_16
REMARK                            x       y       z     vdW  Elec       q    Type
REMARK                         _______ _______ _______ _____ _____    ______ ____
ROOT
ATOM      1  N   UNL     1      46.369   6.514  13.094  0.00  0.00    +0.000 N 
ATOM      2  H   UNL     1      46.394   5.838  13.853  0.00  0.00    +0.000 HD
ENDROOT
BRANCH   1   6
ATOM      3  C   UNL     1      49.788   8.925  13.104  0.00  0.00    +0.000 A 
ATOM      4  N   UNL     1      48.795   9.156  14.017  0.00  0.00    +0.000 NA
ATOM      5  C   UNL     1      47.703   8.353  13.953  0.00  0.00    +0.000 A 
ATOM      6  C   UNL     1      47.501   7.335  13.019  0.00  0.00    +0.000 A 
ATOM      7  C   UNL     1      48.554   7.120  12.128  0.00  0.00    +0.000 A 
ATOM      8  C   UNL     1      49.710   7.915  12.148  0.00  0.00    +0.000 A 
ATOM      9 CL   UNL     1      50.927   7.551  10.982  0.00  0.00    +0.000 Cl
BRANCH   3  11
ATOM     10  N   UNL     1      51.638   9.785  14.421  0.00  0.00    +0.000 N 
ATOM     11  C   UNL     1      50.973   9.854  13.226  0.00  0.00    +0.000 C 
ATOM     12  O   UNL     1      51.351  10.633  12.359  0.00  0.00    +0.000 OA
ATOM     13  H   UNL     1      52.437  10.384  14.575  0.00  0.00    +0.000 HD
ATOM     14  H   UNL     1      51.326   9.143  15.141  0.00  0.00    +0.000 HD
ENDBRANCH   3  11
ENDBRANCH   1   6
BRANCH   1  15
ATOM     15  C   UNL     1      45.048   7.079  12.812  0.00  0.00    +0.000 C 
BRANCH  15  16
ATOM     16  C   UNL     1      44.641   6.863  11.350  0.00  0.00    +0.000 C 
BRANCH  16  17
ATOM     17  C   UNL     1      44.484   5.387  11.065  0.00  0.00    +0.000 A 
ATOM     18  C   UNL     1      43.539   4.617  11.746  0.00  0.00    +0.000 A 
ATOM     19  C   UNL     1      43.353   3.280  11.401  0.00  0.00    +0.000 A 
ATOM     20  C   UNL     1      44.093   2.709  10.362  0.00  0.00    +0.000 A 
ATOM     21  C   UNL     1      45.029   3.461   9.631  0.00  0.00    +0.000 A 
ATOM     22  C   UNL     1      45.224   4.799  10.024  0.00  0.00    +0.000 A 
BRANCH  21  23
ATOM     23  C   UNL     1      45.720   2.911   8.439  0.00  0.00    +0.000 A 
ATOM     24  C   UNL     1      46.053   3.737   7.348  0.00  0.00    +0.000 A 
ATOM     25  C   UNL     1      46.786   3.254   6.260  0.00  0.00    +0.000 A 
ATOM     26  C   UNL     1      47.212   1.930   6.239  0.00  0.00    +0.000 A 
ATOM     27  C   UNL     1      46.882   1.085   7.294  0.00  0.00    +0.000 A 
ATOM     28  C   UNL     1      46.136   1.568   8.375  0.00  0.00    +0.000 A 
ENDBRANCH  21  23
ENDBRANCH  16  17
ENDBRANCH  15  16
ENDBRANCH   1  15
TORSDOF 6
ENDMDL
MODEL 9
REMARK VINA RESULT:    -6.837      4.829      8.173
REMARK INTER + INTRA:         -10.235
REMARK INTER:                  -9.413
REMARK INTRA:                  -0.822
REMARK UNBOUND:                -0.999
REMARK  Name = 
REMARK  6 active torsions:
REMARK  status: ('A' for Active; 'I' for Inactive)
REMARK    1  A    between atoms: C_2  and  C_4
REMARK    2  A    between atoms: C_7  and  N_8
REMARK    3  A    between atoms: N_8  and  C_9
REMARK    4  A    between atoms: C_9  and  C_10
REMARK    5  A    between atoms: C_10  and  C_11
REMARK    6  A    between atoms: C_15  and  C_16
REMARK                            x       y       z     vdW  Elec       q    Type
REMARK                         _______ _______ _______ _____ _____    ______ ____
ROOT
ATOM      1  N   UNL     1      48.201   7.638  16.025  0.00  0.00    +0.000 N 
ATOM      2  H   UNL     1      48.182   8.286  16.809  0.00  0.00    +0.000 HD
ENDROOT
BRANCH   1   6
ATOM      3  C   UNL     1      49.951   3.997  17.114  0.00  0.00    +0.000 A 
ATOM      4  N   UNL     1      50.750   5.073  16.832  0.00  0.00    +0.000 NA
ATOM      5  C   UNL     1      50.124   6.222  16.468  0.00  0.00    +0.000 A 
ATOM      6  C   UNL     1      48.744   6.384  16.332  0.00  0.00    +0.000 A 
ATOM      7  C   UNL     1      47.973   5.266  16.658  0.00  0.00    +0.000 A 
ATOM      8  C   UNL     1      48.562   4.054  17.045  0.00  0.00    +0.000 A 
ATOM      9 CL   UNL     1      47.494   2.749  17.406  0.00  0.00    +0.000 Cl
BRANCH   3  11
ATOM     10  N   UNL     1      51.578   2.912  18.554  0.00  0.00    +0.000 N 
ATOM     11  C   UNL     1      50.708   2.751  17.510  0.00  0.00    +0.000 C 
ATOM     12  O   UNL     1      50.595   1.656  16.969  0.00  0.00    +0.000 OA
ATOM     13  H   UNL     1      52.124   2.121  18.867  0.00  0.00    +0.000 HD
ATOM     14  H   UNL     1      51.675   3.817  19.001  0.00  0.00    +0.000 HD
ENDBRANCH   3  11
ENDBRANCH   1   6
BRANCH   1  15
ATOM     15  C   UNL     1      48.483   8.248  14.724  0.00  0.00    +0.000 C 
BRANCH  15  16
ATOM     16  C   UNL     1      48.451   7.212  13.595  0.00  0.00    +0.000 C 
BRANCH  16  17
ATOM     17  C   UNL     1      47.108   7.236  12.902  0.00  0.00    +0.000 A 
ATOM     18  C   UNL     1      46.315   8.385  12.907  0.00  0.00    +0.000 A 
ATOM     19  C   UNL     1      45.123   8.410  12.187  0.00  0.00    +0.000 A 
ATOM     20  C   UNL     1      44.726   7.296  11.440  0.00  0.00    +0.000 A 
ATOM     21  C   UNL     1      45.515   6.134  11.383  0.00  0.00    +0.000 A 
ATOM     22  C   UNL     1      46.695   6.122  12.150  0.00  0.00    +0.000 A 
BRANCH  21  23
ATOM     23  C   UNL     1      45.179   5.000  10.488  0.00  0.00    +0.000 A 
ATOM     24  C   UNL     1      45.539   5.019   9.127  0.00  0.00    +0.000 A 
ATOM     25  C   UNL     1      45.312   3.920   8.293  0.00  0.00    +0.000 A 
ATOM     26  C   UNL     1      44.725   2.767   8.804  0.00  0.00    +0.000 A 
ATOM     27  C   UNL     1      44.342   2.725  10.141  0.00  0.00    +0.000 A 
ATOM     28  C   UNL     1      44.557   3.833  10.969  0.00  0.00    +0.000 A 
ENDBRANCH  21  23
ENDBRANCH  16  17
ENDBRANCH  15  16
ENDBRANCH   1  15
TORSDOF 6
ENDMDL
