MODEL 1
REMARK VINA RESULT:    -8.600      0.000      0.000
REMARK INTER + INTRA:         -12.722
REMARK INTER:                 -11.617
REMARK INTRA:                  -1.105
REMARK UNBOUND:                -1.105
REMARK  Name = 
REMARK  6 active torsions:
REMARK  status: ('A' for Active; 'I' for Inactive)
REMARK    1  A    between atoms: C_2  and  C_4
REMARK    2  A    between atoms: C_7  and  C_8
REMARK    3  A    between atoms: C_8  and  C_9
REMARK    4  A    between atoms: C_9  and  N_10
REMARK    5  A    between atoms: N_10  and  C_11
REMARK    6  A    between atoms: C_15  and  C_16
REMARK                            x       y       z     vdW  Elec       q    Type
REMARK                         _______ _______ _______ _____ _____    ______ ____
ROOT
ATOM      1  N   UNL     1      43.739   5.590  12.270  0.00  0.00    +0.000 N 
ATOM      2  H   UNL     1      43.187   6.369  12.615  0.00  0.00    +0.000 HD
ENDROOT
BRANCH   1   3
ATOM      3  C   UNL     1      45.101   5.719  12.566  0.00  0.00    +0.000 A 
ATOM      4  C   UNL     1      45.981   6.477  11.790  0.00  0.00    +0.000 A 
ATOM      5  C   UNL     1      47.330   6.576  12.132  0.00  0.00    +0.000 A 
ATOM      6  C   UNL     1      47.818   5.901  13.253  0.00  0.00    +0.000 A 
ATOM      7  C   UNL     1      46.978   5.094  14.035  0.00  0.00    +0.000 A 
ATOM      8  C   UNL     1      45.626   5.001  13.650  0.00  0.00    +0.000 A 
BRANCH   7   9
ATOM      9  C   UNL     1      47.481   4.421  15.250  0.00  0.00    +0.000 A 
ATOM     10  C   UNL     1      47.751   5.102  16.438  0.00  0.00    +0.000 A 
ATOM     11  C   UNL     1      48.303   4.407  17.512  0.00  0.00    +0.000 A 
ATOM     12  C   UNL     1      48.565   3.050  17.382  0.00  0.00    +0.000 A 
ATOM     13  C   UNL     1      48.251   2.439  16.182  0.00  0.00    +0.000 A 
ATOM     14  N   UNL     1      47.716   3.089  15.126  0.00  0.00    +0.000 NA
ENDBRANCH   7   9
ENDBRANCH   1   3
BRANCH   1  15
ATOM     15  C   UNL     1      43.364   5.160  10.922  0.00  0.00    +0.000 C 
BRANCH  15  16
ATOM     16  C   UNL     1      43.635   3.661  10.721  0.00  0.00    +0.000 C 
BRANCH  16  20
ATOM     17  C   UNL     1      46.435   2.722   7.564  0.00  0.00    +0.000 A 
ATOM     18  C   UNL     1      46.023   4.043   7.767  0.00  0.00    +0.000 A 
ATOM     19  C   UNL     1      45.111   4.342   8.785  0.00  0.00    +0.000 A 
ATOM     20  C   UNL     1      44.597   3.326   9.605  0.00  0.00    +0.000 A 
ATOM     21  C   UNL     1      45.010   2.005   9.388  0.00  0.00    +0.000 A 
ATOM     22  C   UNL     1      45.915   1.704   8.368  0.00  0.00    +0.000 A 
BRANCH  17  24
ATOM     23  N   UNL     1      47.449   3.151   5.392  0.00  0.00    +0.000 N 
ATOM     24  C   UNL     1      47.410   2.356   6.504  0.00  0.00    +0.000 C 
ATOM     25  O   UNL     1      48.181   1.414   6.632  0.00  0.00    +0.000 OA
ATOM     26  H   UNL     1      48.200   2.963   4.741  0.00  0.00    +0.000 HD
ATOM     27  H   UNL     1      47.036   4.073   5.376  0.00  0.00    +0.000 HD
ENDBRANCH  17  24
ENDBRANCH  16  20
ENDBRANCH  15  16
ENDBRANCH   1  15
TORSDOF 6
ENDMDL
MODEL 2
REMARK VINA RESULT:    -8.173      2.264      4.277
REMARK INTER + INTRA:         -12.145
REMARK INTER:                 -11.166
REMARK INTRA:                  -0.979
REMARK UNBOUND:                -1.105
REMARK  Name = 
REMARK  6 active torsions:
REMARK  status: ('A' for Active; 'I' for Inactive)
REMARK    1  A    between atoms: C_2  and  C_4
REMARK    2  A    between atoms: C_7  and  C_8
REMARK    3  A    between atoms: C_8  and  C_9
REMARK    4  A    between atoms: C_9  and  N_10
REMARK    5  A    between atoms: N_10  and  C_11
REMARK    6  A    between atoms: C_15  and  C_16
REMARK                            x       y       z     vdW  Elec       q    Type
REMARK                         _______ _______ _______ _____ _____    ______ ____
ROOT
ATOM      1  N   UNL     1      43.698   4.611  12.903  0.00  0.00    +0.000 N 
ATOM      2  H   UNL     1      42.899   5.222  13.043  0.00  0.00    +0.000 HD
ENDROOT
BRANCH   1   3
ATOM      3  C   UNL     1      44.919   5.295  12.961  0.00  0.00    +0.000 A 
ATOM      4  C   UNL     1      46.129   4.668  13.268  0.00  0.00    +0.000 A 
ATOM      5  C   UNL     1      47.318   5.397  13.309  0.00  0.00    +0.000 A 
ATOM      6  C   UNL     1      47.307   6.769  13.055  0.00  0.00    +0.000 A 
ATOM      7  C   UNL     1      46.107   7.446  12.784  0.00  0.00    +0.000 A 
ATOM      8  C   UNL     1      44.922   6.684  12.771  0.00  0.00    +0.000 A 
BRANCH   7   9
ATOM      9  C   UNL     1      46.099   8.888  12.465  0.00  0.00    +0.000 A 
ATOM     10  C   UNL     1      44.940   9.582  12.117  0.00  0.00    +0.000 A 
ATOM     11  C   UNL     1      45.032  10.923  11.749  0.00  0.00    +0.000 A 
ATOM     12  C   UNL     1      46.274  11.543  11.743  0.00  0.00    +0.000 A 
ATOM     13  C   UNL     1      47.375  10.797  12.119  0.00  0.00    +0.000 A 
ATOM     14  N   UNL     1      47.314   9.497  12.481  0.00  0.00    +0.000 NA
ENDBRANCH   7   9
ENDBRANCH   1   3
BRANCH   1  15
ATOM     15  C   UNL     1      43.505   3.634  11.830  0.00  0.00    +0.000 C 
BRANCH  15  16
ATOM     16  C   UNL     1      43.587   4.302  10.448  0.00  0.00    +0.000 C 
BRANCH  16  20
ATOM     17  C   UNL     1      46.420   2.497   7.728  0.00  0.00    +0.000 A 
ATOM     18  C   UNL     1      46.219   3.881   7.715  0.00  0.00    +0.000 A 
ATOM     19  C   UNL     1      45.296   4.461   8.592  0.00  0.00    +0.000 A 
ATOM     20  C   UNL     1      44.561   3.666   9.485  0.00  0.00    +0.000 A 
ATOM     21  C   UNL     1      44.763   2.280   9.482  0.00  0.00    +0.000 A 
ATOM     22  C   UNL     1      45.680   1.698   8.603  0.00  0.00    +0.000 A 
BRANCH  17  24
ATOM     23  N   UNL     1      48.523   2.542   6.500  0.00  0.00    +0.000 N 
ATOM     24  C   UNL     1      47.397   1.837   6.823  0.00  0.00    +0.000 C 
ATOM     25  O   UNL     1      47.232   0.693   6.419  0.00  0.00    +0.000 OA
ATOM     26  H   UNL     1      49.231   2.031   5.988  0.00  0.00    +0.000 HD
ATOM     27  H   UNL     1      48.817   3.353   7.023  0.00  0.00    +0.000 HD
ENDBRANCH  17  24
ENDBRANCH  16  20
ENDBRANCH  15  16
ENDBRANCH   1  15
TORSDOF 6
ENDMDL
MODEL 3
REMARK VINA RESULT:    -7.989      1.915      3.702
REMARK INTER + INTRA:         -11.897
REMARK INTER:                 -10.919
REMARK INTRA:                  -0.977
REMARK UNBOUND:                -1.105
REMARK  Name = 
REMARK  6 active torsions:
REMARK  status: ('A' for Active; 'I' for Inactive)
REMARK    1  A    between atoms: C_2  and  C_4
REMARK    2  A    between atoms: C_7  and  C_8
REMARK    3  A    between atoms: C_8  and  C_9
REMARK    4  A    between atoms: C_9  and  N_10
REMARK    5  A    between atoms: N_10  and  C_11
REMARK    6  A    between atoms: C_15  and  C_16
REMARK                            x       y       z     vdW  Elec       q    Type
REMARK                         _______ _______ _______ _____ _____    ______ ____
ROOT
ATOM      1  N   UNL     1      43.647   5.796  12.260  0.00  0.00    +0.000 N 
ATOM      2  H   UNL     1      43.150   6.646  12.509  0.00  0.00    +0.000 HD
ENDROOT
BRANCH   1   3
ATOM      3  C   UNL     1      44.965   5.782  12.731  0.00  0.00    +0.000 A 
ATOM      4  C   UNL     1      45.456   4.799  13.594  0.00  0.00    +0.000 A 
ATOM      5  C   UNL     1      46.781   4.831  14.030  0.00  0.00    +0.000 A 
ATOM      6  C   UNL     1      47.629   5.859  13.616  0.00  0.00    +0.000 A 
ATOM      7  C   UNL     1      47.165   6.890  12.784  0.00  0.00    +0.000 A 
ATOM      8  C   UNL     1      45.817   6.839  12.378  0.00  0.00    +0.000 A 
BRANCH   7   9
ATOM      9  C   UNL     1      48.074   7.950  12.303  0.00  0.00    +0.000 A 
ATOM     10  C   UNL     1      47.654   9.259  12.063  0.00  0.00    +0.000 A 
ATOM     11  C   UNL     1      48.555  10.178  11.531  0.00  0.00    +0.000 A 
ATOM     12  C   UNL     1      49.856   9.777  11.258  0.00  0.00    +0.000 A 
ATOM     13  C   UNL     1      50.205   8.469  11.542  0.00  0.00    +0.000 A 
ATOM     14  N   UNL     1      49.351   7.559  12.058  0.00  0.00    +0.000 NA
ENDBRANCH   7   9
ENDBRANCH   1   3
BRANCH   1  15
ATOM     15  C   UNL     1      43.400   5.356  10.886  0.00  0.00    +0.000 C 
BRANCH  15  16
ATOM     16  C   UNL     1      43.641   3.846  10.733  0.00  0.00    +0.000 C 
BRANCH  16  20
ATOM     17  C   UNL     1      46.412   2.746   7.604  0.00  0.00    +0.000 A 
ATOM     18  C   UNL     1      46.104   4.091   7.827  0.00  0.00    +0.000 A 
ATOM     19  C   UNL     1      45.201   4.443   8.836  0.00  0.00    +0.000 A 
ATOM     20  C   UNL     1      44.593   3.457   9.627  0.00  0.00    +0.000 A 
ATOM     21  C   UNL     1      44.902   2.111   9.389  0.00  0.00    +0.000 A 
ATOM     22  C   UNL     1      45.798   1.757   8.378  0.00  0.00    +0.000 A 
BRANCH  17  24
ATOM     23  N   UNL     1      47.339   3.005   5.367  0.00  0.00    +0.000 N 
ATOM     24  C   UNL     1      47.373   2.323   6.552  0.00  0.00    +0.000 C 
ATOM     25  O   UNL     1      48.194   1.436   6.745  0.00  0.00    +0.000 OA
ATOM     26  H   UNL     1      48.080   2.788   4.712  0.00  0.00    +0.000 HD
ATOM     27  H   UNL     1      46.880   3.899   5.275  0.00  0.00    +0.000 HD
ENDBRANCH  17  24
ENDBRANCH  16  20
ENDBRANCH  15  16
ENDBRANCH   1  15
TORSDOF 6
ENDMDL
MODEL 4
REMARK VINA RESULT:    -7.926      2.540      7.333
REMARK INTER + INTRA:         -11.811
REMARK INTER:                 -10.860
REMARK INTRA:                  -0.951
REMARK UNBOUND:                -1.105
REMARK  Name = 
REMARK  6 active torsions:
REMARK  status: ('A' for Active; 'I' for Inactive)
REMARK    1  A    between atoms: C_2  and  C_4
REMARK    2  A    between atoms: C_7  and  C_8
REMARK    3  A    between atoms: C_8  and  C_9
REMARK    4  A    between atoms: C_9  and  N_10
REMARK    5  A    between atoms: N_10  and  C_11
REMARK    6  A    between atoms: C_15  and  C_16
REMARK                            x       y       z     vdW  Elec       q    Type
REMARK                         _______ _______ _______ _____ _____    ______ ____
ROOT
ATOM      1  N   UNL     1      43.870   6.528  10.806  0.00  0.00    +0.000 N 
ATOM      2  H   UNL     1      42.911   6.863  10.790  0.00  0.00    +0.000 HD
ENDROOT
BRANCH   1   3
ATOM      3  C   UNL     1      43.961   5.139  10.656  0.00  0.00    +0.000 A 
ATOM      4  C   UNL     1      43.279   4.238  11.476  0.00  0.00    +0.000 A 
ATOM      5  C   UNL     1      43.401   2.862  11.281  0.00  0.00    +0.000 A 
ATOM      6  C   UNL     1      44.224   2.371  10.266  0.00  0.00    +0.000 A 
ATOM      7  C   UNL     1      44.961   3.240   9.446  0.00  0.00    +0.000 A 
ATOM      8  C   UNL     1      44.830   4.622   9.684  0.00  0.00    +0.000 A 
BRANCH   7   9
ATOM      9  C   UNL     1      45.792   2.724   8.339  0.00  0.00    +0.000 A 
ATOM     10  C   UNL     1      46.129   3.490   7.223  0.00  0.00    +0.000 A 
ATOM     11  C   UNL     1      46.846   2.901   6.183  0.00  0.00    +0.000 A 
ATOM     12  C   UNL     1      47.218   1.568   6.283  0.00  0.00    +0.000 A 
ATOM     13  C   UNL     1      46.867   0.879   7.428  0.00  0.00    +0.000 A 
ATOM     14  N   UNL     1      46.173   1.424   8.450  0.00  0.00    +0.000 NA
ENDBRANCH   7   9
ENDBRANCH   1   3
BRANCH   1  15
ATOM     15  C   UNL     1      44.694   7.166  11.834  0.00  0.00    +0.000 C 
BRANCH  15  16
ATOM     16  C   UNL     1      46.153   6.690  11.751  0.00  0.00    +0.000 C 
BRANCH  16  20
ATOM     17  C   UNL     1      47.569   4.640  15.284  0.00  0.00    +0.000 A 
ATOM     18  C   UNL     1      48.051   5.916  14.972  0.00  0.00    +0.000 A 
ATOM     19  C   UNL     1      47.596   6.573  13.824  0.00  0.00    +0.000 A 
ATOM     20  C   UNL     1      46.661   5.963  12.974  0.00  0.00    +0.000 A 
ATOM     21  C   UNL     1      46.192   4.681  13.290  0.00  0.00    +0.000 A 
ATOM     22  C   UNL     1      46.650   4.021  14.432  0.00  0.00    +0.000 A 
BRANCH  17  24
ATOM     23  N   UNL     1      47.069   3.178  17.166  0.00  0.00    +0.000 N 
ATOM     24  C   UNL     1      48.013   3.906  16.497  0.00  0.00    +0.000 C 
ATOM     25  O   UNL     1      49.182   3.909  16.862  0.00  0.00    +0.000 OA
ATOM     26  H   UNL     1      47.414   2.587  17.912  0.00  0.00    +0.000 HD
ATOM     27  H   UNL     1      46.184   2.934  16.747  0.00  0.00    +0.000 HD
ENDBRANCH  17  24
ENDBRANCH  16  20
ENDBRANCH  15  16
ENDBRANCH   1  15
TORSDOF 6
ENDMDL
MODEL 5
REMARK VINA RESULT:    -7.667      1.678      2.047
REMARK INTER + INTRA:         -11.461
REMARK INTER:                 -10.870
REMARK INTRA:                  -0.591
REMARK UNBOUND:                -1.105
REMARK  Name = 
REMARK  6 active torsions:
REMARK  status: ('A' for Active; 'I' for Inactive)
REMARK    1  A    between atoms: C_2  and  C_4
REMARK    2  A    between atoms: C_7  and  C_8
REMARK    3  A    between atoms: C_8  and  C_9
REMARK    4  A    between atoms: C_9  and  N_10
REMARK    5  A    between atoms: N_10  and  C_11
REMARK    6  A    between atoms: C_15  and  C_16
REMARK                            x       y       z     vdW  Elec       q    Type
REMARK                         _______ _______ _______ _____ _____    ______ ____
ROOT
ATOM      1  N   UNL     1      45.246   4.218  12.157  0.00  0.00    +0.000 N 
ATOM      2  H   UNL     1      45.484   3.492  12.828  0.00  0.00    +0.000 HD
ENDROOT
BRANCH   1   3
ATOM      3  C   UNL     1      45.881   5.435  12.430  0.00  0.00    +0.000 A 
ATOM      4  C   UNL     1      45.536   6.632  11.798  0.00  0.00    +0.000 A 
ATOM      5  C   UNL     1      46.199   7.820  12.110  0.00  0.00    +0.000 A 
ATOM      6  C   UNL     1      47.228   7.819  13.052  0.00  0.00    +0.000 A 
ATOM      7  C   UNL     1      47.636   6.631  13.679  0.00  0.00    +0.000 A 
ATOM      8  C   UNL     1      46.959   5.447  13.326  0.00  0.00    +0.000 A 
BRANCH   7   9
ATOM      9  C   UNL     1      48.690   6.636  14.714  0.00  0.00    +0.000 A 
ATOM     10  C   UNL     1      49.841   7.420  14.620  0.00  0.00    +0.000 A 
ATOM     11  C   UNL     1      50.827   7.304  15.598  0.00  0.00    +0.000 A 
ATOM     12  C   UNL     1      50.640   6.418  16.651  0.00  0.00    +0.000 A 
ATOM     13  C   UNL     1      49.464   5.691  16.688  0.00  0.00    +0.000 A 
ATOM     14  N   UNL     1      48.494   5.784  15.754  0.00  0.00    +0.000 NA
ENDBRANCH   7   9
ENDBRANCH   1   3
BRANCH   1  15
ATOM     15  C   UNL     1      43.826   4.244  11.804  0.00  0.00    +0.000 C 
BRANCH  15  16
ATOM     16  C   UNL     1      43.630   4.517  10.305  0.00  0.00    +0.000 C 
BRANCH  16  20
ATOM     17  C   UNL     1      46.438   2.477   7.728  0.00  0.00    +0.000 A 
ATOM     18  C   UNL     1      46.354   3.873   7.708  0.00  0.00    +0.000 A 
ATOM     19  C   UNL     1      45.439   4.529   8.538  0.00  0.00    +0.000 A 
ATOM     20  C   UNL     1      44.596   3.800   9.391  0.00  0.00    +0.000 A 
ATOM     21  C   UNL     1      44.682   2.401   9.395  0.00  0.00    +0.000 A 
ATOM     22  C   UNL     1      45.590   1.744   8.563  0.00  0.00    +0.000 A 
BRANCH  17  24
ATOM     23  N   UNL     1      48.491   2.425   6.420  0.00  0.00    +0.000 N 
ATOM     24  C   UNL     1      47.401   1.735   6.873  0.00  0.00    +0.000 C 
ATOM     25  O   UNL     1      47.258   0.546   6.620  0.00  0.00    +0.000 OA
ATOM     26  H   UNL     1      49.197   1.874   5.947  0.00  0.00    +0.000 HD
ATOM     27  H   UNL     1      48.779   3.302   6.827  0.00  0.00    +0.000 HD
ENDBRANCH  17  24
ENDBRANCH  16  20
ENDBRANCH  15  16
ENDBRANCH   1  15
TORSDOF 6
ENDMDL
MODEL 6
REMARK VINA RESULT:    -7.274      2.998      5.789
REMARK INTER + INTRA:         -10.931
REMARK INTER:                 -10.356
REMARK INTRA:                  -0.575
REMARK UNBOUND:                -1.105
REMARK  Name = 
REMARK  6 active torsions:
REMARK  status: ('A' for Active; 'I' for Inactive)
REMARK    1  A    between atoms: C_2  and  C_4
REMARK    2  A    between atoms: C_7  and  C_8
REMARK    3  A    between atoms: C_8  and  C_9
REMARK    4  A    between atoms: C_9  and  N_10
REMARK    5  A    between atoms: N_10  and  C_11
REMARK    6  A    between atoms: C_15  and  C_16
REMARK                            x       y       z     vdW  Elec       q    Type
REMARK                         _______ _______ _______ _____ _____    ______ ____
ROOT
ATOM      1  N   UNL     1      45.525   5.329  11.642  0.00  0.00    +0.000 N 
ATOM      2  H   UNL     1      46.340   4.827  11.981  0.00  0.00    +0.000 HD
ENDROOT
BRANCH   1   3
ATOM      3  C   UNL     1      45.561   6.693  11.955  0.00  0.00    +0.000 A 
ATOM      4  C   UNL     1      46.376   7.223  12.959  0.00  0.00    +0.000 A 
ATOM      5  C   UNL     1      46.377   8.592  13.228  0.00  0.00    +0.000 A 
ATOM      6  C   UNL     1      45.547   9.448  12.502  0.00  0.00    +0.000 A 
ATOM      7  C   UNL     1      44.681   8.952  11.514  0.00  0.00    +0.000 A 
ATOM      8  C   UNL     1      44.691   7.563  11.282  0.00  0.00    +0.000 A 
BRANCH   7   9
ATOM      9  C   UNL     1      43.841   9.862  10.710  0.00  0.00    +0.000 A 
ATOM     10  C   UNL     1      44.361  10.939   9.991  0.00  0.00    +0.000 A 
ATOM     11  C   UNL     1      43.490  11.799   9.325  0.00  0.00    +0.000 A 
ATOM     12  C   UNL     1      42.124  11.563   9.383  0.00  0.00    +0.000 A 
ATOM     13  C   UNL     1      41.683  10.464  10.098  0.00  0.00    +0.000 A 
ATOM     14  N   UNL     1      42.505   9.615  10.752  0.00  0.00    +0.000 NA
ENDBRANCH   7   9
ENDBRANCH   1   3
BRANCH   1  15
ATOM     15  C   UNL     1      44.267   4.608  11.845  0.00  0.00    +0.000 C 
BRANCH  15  16
ATOM     16  C   UNL     1      43.687   4.114  10.511  0.00  0.00    +0.000 C 
BRANCH  16  20
ATOM     17  C   UNL     1      46.564   2.737   7.592  0.00  0.00    +0.000 A 
ATOM     18  C   UNL     1      45.915   1.820   8.426  0.00  0.00    +0.000 A 
ATOM     19  C   UNL     1      44.990   2.270   9.374  0.00  0.00    +0.000 A 
ATOM     20  C   UNL     1      44.708   3.638   9.505  0.00  0.00    +0.000 A 
ATOM     21  C   UNL     1      45.370   4.549   8.671  0.00  0.00    +0.000 A 
ATOM     22  C   UNL     1      46.299   4.103   7.728  0.00  0.00    +0.000 A 
BRANCH  17  24
ATOM     23  N   UNL     1      47.406   2.836   5.310  0.00  0.00    +0.000 N 
ATOM     24  C   UNL     1      47.545   2.307   6.563  0.00  0.00    +0.000 C 
ATOM     25  O   UNL     1      48.471   1.551   6.828  0.00  0.00    +0.000 OA
ATOM     26  H   UNL     1      48.153   2.631   4.659  0.00  0.00    +0.000 HD
ATOM     27  H   UNL     1      46.841   3.654   5.132  0.00  0.00    +0.000 HD
ENDBRANCH  17  24
ENDBRANCH  16  20
ENDBRANCH  15  16
ENDBRANCH   1  15
TORSDOF 6
ENDMDL
MODEL 7
REMARK VINA RESULT:    -7.014      3.238      7.351
REMARK INTER + INTRA:         -10.579
REMARK INTER:                  -9.497
REMARK INTRA:                  -1.081
REMARK UNBOUND:                -1.105
REMARK  Name = 
REMARK  6 active torsions:
REMARK  status: ('A' for Active; 'I' for Inactive)
REMARK    1  A    between atoms: C_2  and  C_4
REMARK    2  A    between atoms: C_7  and  C_8
REMARK    3  A    between atoms: C_8  and  C_9
REMARK    4  A    between atoms: C_9  and  N_10
REMARK    5  A    between atoms: N_10  and  C_11
REMARK    6  A    between atoms: C_15  and  C_16
REMARK                            x       y       z     vdW  Elec       q    Type
REMARK                         _______ _______ _______ _____ _____    ______ ____
ROOT
ATOM      1  N   UNL     1      45.799   3.924  13.820  0.00  0.00    +0.000 N 
ATOM      2  H   UNL     1      46.346   3.068  13.841  0.00  0.00    +0.000 HD
ENDROOT
BRANCH   1   3
ATOM      3  C   UNL     1      45.039   4.051  12.651  0.00  0.00    +0.000 A 
ATOM      4  C   UNL     1      43.760   4.611  12.632  0.00  0.00    +0.000 A 
ATOM      5  C   UNL     1      43.046   4.719  11.437  0.00  0.00    +0.000 A 
ATOM      6  C   UNL     1      43.603   4.251  10.246  0.00  0.00    +0.000 A 
ATOM      7  C   UNL     1      44.868   3.642  10.228  0.00  0.00    +0.000 A 
ATOM      8  C   UNL     1      45.552   3.532  11.454  0.00  0.00    +0.000 A 
BRANCH   7   9
ATOM      9  C   UNL     1      45.480   3.193   8.961  0.00  0.00    +0.000 A 
ATOM     10  C   UNL     1      45.768   1.855   8.689  0.00  0.00    +0.000 A 
ATOM     11  C   UNL     1      46.423   1.525   7.504  0.00  0.00    +0.000 A 
ATOM     12  C   UNL     1      46.767   2.532   6.614  0.00  0.00    +0.000 A 
ATOM     13  C   UNL     1      46.431   3.832   6.941  0.00  0.00    +0.000 A 
ATOM     14  N   UNL     1      45.797   4.180   8.082  0.00  0.00    +0.000 NA
ENDBRANCH   7   9
ENDBRANCH   1   3
BRANCH   1  15
ATOM     15  C   UNL     1      46.532   5.097  14.298  0.00  0.00    +0.000 C 
BRANCH  15  16
ATOM     16  C   UNL     1      47.449   5.664  13.203  0.00  0.00    +0.000 C 
BRANCH  16  20
ATOM     17  C   UNL     1      46.664   9.750  12.032  0.00  0.00    +0.000 A 
ATOM     18  C   UNL     1      47.962   9.235  11.957  0.00  0.00    +0.000 A 
ATOM     19  C   UNL     1      48.214   7.915  12.344  0.00  0.00    +0.000 A 
ATOM     20  C   UNL     1      47.175   7.097  12.815  0.00  0.00    +0.000 A 
ATOM     21  C   UNL     1      45.880   7.626  12.895  0.00  0.00    +0.000 A 
ATOM     22  C   UNL     1      45.628   8.946  12.516  0.00  0.00    +0.000 A 
BRANCH  17  24
ATOM     23  N   UNL     1      45.206  11.697  12.137  0.00  0.00    +0.000 N 
ATOM     24  C   UNL     1      46.345  11.142  11.623  0.00  0.00    +0.000 C 
ATOM     25  O   UNL     1      47.088  11.789  10.897  0.00  0.00    +0.000 OA
ATOM     26  H   UNL     1      45.071  12.683  11.949  0.00  0.00    +0.000 HD
ATOM     27  H   UNL     1      44.731  11.304  12.937  0.00  0.00    +0.000 HD
ENDBRANCH  17  24
ENDBRANCH  16  20
ENDBRANCH  15  16
ENDBRANCH   1  15
TORSDOF 6
ENDMDL
MODEL 8
REMARK VINA RESULT:    -6.940      3.796      7.500
REMARK INTER + INTRA:         -10.480
REMARK INTER:                  -9.624
REMARK INTRA:                  -0.855
REMARK UNBOUND:                -1.105
REMARK  Name = 
REMARK  6 active torsions:
REMARK  status: ('A' for Active; 'I' for Inactive)
REMARK    1  A    between atoms: C_2  and  C_4
REMARK    2  A    between atoms: C_7  and  C_8
REMARK    3  A    between atoms: C_8  and  C_9
REMARK    4  A    between atoms: C_9  and  N_10
REMARK    5  A    between atoms: N_10  and  C_11
REMARK    6  A    between atoms: C_15  and  C_16
REMARK                            x       y       z     vdW  Elec       q    Type
REMARK                         _______ _______ _______ _____ _____    ______ ____
ROOT
ATOM      1  N   UNL     1      44.612   6.867  11.071  0.00  0.00    +0.000 N 
ATOM      2  H   UNL     1      43.824   7.424  10.753  0.00  0.00    +0.000 HD
ENDROOT
BRANCH   1   3
ATOM      3  C   UNL     1      44.441   5.499  10.825  0.00  0.00    +0.000 A 
ATOM      4  C   UNL     1      43.605   4.686  11.593  0.00  0.00    +0.000 A 
ATOM      5  C   UNL     1      43.467   3.328  11.302  0.00  0.00    +0.000 A 
ATOM      6  C   UNL     1      44.179   2.765  10.242  0.00  0.00    +0.000 A 
ATOM      7  C   UNL     1      45.063   3.537   9.472  0.00  0.00    +0.000 A 
ATOM      8  C   UNL     1      45.194   4.899   9.805  0.00  0.00    +0.000 A 
BRANCH   7   9
ATOM      9  C   UNL     1      45.779   2.954   8.318  0.00  0.00    +0.000 A 
ATOM     10  C   UNL     1      46.213   1.628   8.285  0.00  0.00    +0.000 A 
ATOM     11  C   UNL     1      46.954   1.180   7.194  0.00  0.00    +0.000 A 
ATOM     12  C   UNL     1      47.239   2.059   6.157  0.00  0.00    +0.000 A 
ATOM     13  C   UNL     1      46.757   3.352   6.250  0.00  0.00    +0.000 A 
ATOM     14  N   UNL     1      46.036   3.811   7.296  0.00  0.00    +0.000 NA
ENDBRANCH   7   9
ENDBRANCH   1   3
BRANCH   1  15
ATOM     15  C   UNL     1      45.125   7.273  12.380  0.00  0.00    +0.000 C 
BRANCH  15  16
ATOM     16  C   UNL     1      46.531   6.705  12.627  0.00  0.00    +0.000 C 
BRANCH  16  20
ATOM     17  C   UNL     1      49.784   9.360  11.599  0.00  0.00    +0.000 A 
ATOM     18  C   UNL     1      50.025   7.995  11.789  0.00  0.00    +0.000 A 
ATOM     19  C   UNL     1      48.971   7.141  12.129  0.00  0.00    +0.000 A 
ATOM     20  C   UNL     1      47.669   7.639  12.288  0.00  0.00    +0.000 A 
ATOM     21  C   UNL     1      47.440   9.009  12.105  0.00  0.00    +0.000 A 
ATOM     22  C   UNL     1      48.492   9.865  11.772  0.00  0.00    +0.000 A 
BRANCH  17  24
ATOM     23  N   UNL     1      51.756   9.892  10.273  0.00  0.00    +0.000 N 
ATOM     24  C   UNL     1      50.868  10.306  11.227  0.00  0.00    +0.000 C 
ATOM     25  O   UNL     1      50.943  11.427  11.712  0.00  0.00    +0.000 OA
ATOM     26  H   UNL     1      52.408  10.592   9.943  0.00  0.00    +0.000 HD
ATOM     27  H   UNL     1      51.565   9.108   9.666  0.00  0.00    +0.000 HD
ENDBRANCH  17  24
ENDBRANCH  16  20
ENDBRANCH  15  16
ENDBRANCH   1  15
TORSDOF 6
ENDMDL
MODEL 9
REMARK VINA RESULT:    -6.709      3.042      7.112
REMARK INTER + INTRA:         -10.167
REMARK INTER:                  -9.072
REMARK INTRA:                  -1.095
REMARK UNBOUND:                -1.105
REMARK  Name = 
REMARK  6 active torsions:
REMARK  status: ('A' for Active; 'I' for Inactive)
REMARK    1  A    between atoms: C_2  and  C_4
REMARK    2  A    between atoms: C_7  and  C_8
REMARK    3  A    between atoms: C_8  and  C_9
REMARK    4  A    between atoms: C_9  and  N_10
REMARK    5  A    between atoms: N_10  and  C_11
REMARK    6  A    between atoms: C_15  and  C_16
REMARK                            x       y       z     vdW  Elec       q    Type
REMARK                         _______ _______ _______ _____ _____    ______ ____
ROOT
ATOM      1  N   UNL     1      45.440   4.470  14.054  0.00  0.00    +0.000 N 
ATOM      2  H   UNL     1      44.968   3.824  14.681  0.00  0.00    +0.000 HD
ENDROOT
BRANCH   1   3
ATOM      3  C   UNL     1      44.776   4.616  12.830  0.00  0.00    +0.000 A 
ATOM      4  C   UNL     1      43.578   5.322  12.693  0.00  0.00    +0.000 A 
ATOM      5  C   UNL     1      42.959   5.441  11.448  0.00  0.00    +0.000 A 
ATOM      6  C   UNL     1      43.528   4.839  10.324  0.00  0.00    +0.000 A 
ATOM      7  C   UNL     1      44.707   4.084  10.425  0.00  0.00    +0.000 A 
ATOM      8  C   UNL     1      45.294   3.967  11.700  0.00  0.00    +0.000 A 
BRANCH   7   9
ATOM      9  C   UNL     1      45.337   3.489   9.229  0.00  0.00    +0.000 A 
ATOM     10  C   UNL     1      45.538   2.116   9.081  0.00  0.00    +0.000 A 
ATOM     11  C   UNL     1      46.216   1.643   7.959  0.00  0.00    +0.000 A 
ATOM     12  C   UNL     1      46.669   2.546   7.007  0.00  0.00    +0.000 A 
ATOM     13  C   UNL     1      46.414   3.890   7.212  0.00  0.00    +0.000 A 
ATOM     14  N   UNL     1      45.760   4.374   8.290  0.00  0.00    +0.000 NA
ENDBRANCH   7   9
ENDBRANCH   1   3
BRANCH   1  15
ATOM     15  C   UNL     1      46.894   4.308  14.034  0.00  0.00    +0.000 C 
BRANCH  15  16
ATOM     16  C   UNL     1      47.593   5.467  14.762  0.00  0.00    +0.000 C 
BRANCH  16  20
ATOM     17  C   UNL     1      48.600   8.838  12.250  0.00  0.00    +0.000 A 
ATOM     18  C   UNL     1      48.331   7.590  11.677  0.00  0.00    +0.000 A 
ATOM     19  C   UNL     1      48.012   6.500  12.493  0.00  0.00    +0.000 A 
ATOM     20  C   UNL     1      47.965   6.642  13.888  0.00  0.00    +0.000 A 
ATOM     21  C   UNL     1      48.245   7.893  14.453  0.00  0.00    +0.000 A 
ATOM     22  C   UNL     1      48.570   8.981  13.640  0.00  0.00    +0.000 A 
BRANCH  17  24
ATOM     23  N   UNL     1      47.931  10.932  11.204  0.00  0.00    +0.000 N 
ATOM     24  C   UNL     1      48.932  10.027  11.424  0.00  0.00    +0.000 C 
ATOM     25  O   UNL     1      50.062  10.222  10.996  0.00  0.00    +0.000 OA
ATOM     26  H   UNL     1      48.207  11.793  10.748  0.00  0.00    +0.000 HD
ATOM     27  H   UNL     1      47.088  10.946  11.759  0.00  0.00    +0.000 HD
ENDBRANCH  17  24
ENDBRANCH  16  20
ENDBRANCH  15  16
ENDBRANCH   1  15
TORSDOF 6
ENDMDL
