MODEL 1
REMARK VINA RESULT:    -8.629      0.000      0.000
REMARK INTER + INTRA:         -11.633
REMARK INTER:                 -11.151
REMARK INTRA:                  -0.483
REMARK UNBOUND:                -0.483
REMARK  Name = 
REMARK  6 active torsions:
REMARK  status: ('A' for Active; 'I' for Inactive)
REMARK    1  A    between atoms: C_1  and  C_2
REMARK    2  A    between atoms: C_6  and  C_7
REMARK    3  A    between atoms: C_7  and  C_8
REMARK    4  A    between atoms: C_11  and  C_12
REMARK    5  A    between atoms: C_12  and  N_13
REMARK    6  A    between atoms: C_14  and  C_16
REMARK                            x       y       z     vdW  Elec       q    Type
REMARK                         _______ _______ _______ _____ _____    ______ ____
ROOT
ATOM      1  C   UNL     1      46.683   7.729  13.089  0.00  0.00    +0.000 C 
ENDROOT
BRANCH   1   5
ATOM      2  C   UNL     1      44.921   4.602  10.670  0.00  0.00    +0.000 A 
ATOM      3  C   UNL     1      45.806   5.529  10.100  0.00  0.00    +0.000 A 
ATOM      4  C   UNL     1      46.363   6.552  10.874  0.00  0.00    +0.000 A 
ATOM      5  C   UNL     1      46.039   6.672  12.231  0.00  0.00    +0.000 A 
ATOM      6  C   UNL     1      45.097   5.792  12.780  0.00  0.00    +0.000 A 
ATOM      7  C   UNL     1      44.554   4.759  12.012  0.00  0.00    +0.000 A 
BRANCH   2   8
ATOM      8  C   UNL     1      44.410   3.428   9.864  0.00  0.00    +0.000 C 
BRANCH   8  14
ATOM      9  C   UNL     1      46.808  -0.255   7.743  0.00  0.00    +0.000 C 
ATOM     10  C   UNL     1      46.449   1.200   7.720  0.00  0.00    +0.000 A 
ATOM     11  C   UNL     1      46.915   2.030   6.707  0.00  0.00    +0.000 A 
ATOM     12  C   UNL     1      46.578   3.377   6.742  0.00  0.00    +0.000 A 
ATOM     13  C   UNL     1      45.782   3.854   7.777  0.00  0.00    +0.000 A 
ATOM     14  C   UNL     1      45.338   2.968   8.756  0.00  0.00    +0.000 A 
ATOM     15  N   UNL     1      45.665   1.650   8.732  0.00  0.00    +0.000 NA
ENDBRANCH   8  14
ENDBRANCH   2   8
ENDBRANCH   1   5
BRANCH   1  16
ATOM     16  N   UNL     1      47.190   7.179  14.319  0.00  0.00    +0.000 N 
ATOM     17  C   UNL     1      48.482   6.731  14.409  0.00  0.00    +0.000 C 
ATOM     18  O   UNL     1      49.273   6.829  13.475  0.00  0.00    +0.000 OA
ATOM     19  H   UNL     1      46.505   6.877  15.005  0.00  0.00    +0.000 HD
BRANCH  17  20
ATOM     20  C   UNL     1      48.896   6.179  15.705  0.00  0.00    +0.000 A 
ATOM     21  C   UNL     1      49.939   6.774  16.403  0.00  0.00    +0.000 A 
ATOM     22  S   UNL     1      50.274   6.028  17.900  0.00  0.00    +0.000 S 
ATOM     23  C   UNL     1      49.067   4.855  17.648  0.00  0.00    +0.000 A 
ATOM     24  N   UNL     1      48.849   3.870  18.558  0.00  0.00    +0.000 NA
ATOM     25  C   UNL     1      47.923   3.033  18.227  0.00  0.00    +0.000 A 
ATOM     26  N   UNL     1      47.189   3.098  17.071  0.00  0.00    +0.000 N 
ATOM     27  C   UNL     1      47.357   4.091  16.136  0.00  0.00    +0.000 A 
ATOM     28  O   UNL     1      46.650   4.146  15.132  0.00  0.00    +0.000 OA
ATOM     29  C   UNL     1      48.400   5.045  16.449  0.00  0.00    +0.000 A 
ATOM     30  H   UNL     1      46.466   2.421  16.878  0.00  0.00    +0.000 HD
ENDBRANCH  17  20
ENDBRANCH   1  16
TORSDOF 5
ENDMDL
MODEL 2
REMARK VINA RESULT:    -8.361      1.159      1.754
REMARK INTER + INTRA:         -11.287
REMARK INTER:                 -10.274
REMARK INTRA:                  -1.013
REMARK UNBOUND:                -0.483
REMARK  Name = 
REMARK  6 active torsions:
REMARK  status: ('A' for Active; 'I' for Inactive)
REMARK    1  A    between atoms: C_1  and  C_2
REMARK    2  A    between atoms: C_6  and  C_7
REMARK    3  A    between atoms: C_7  and  C_8
REMARK    4  A    between atoms: C_11  and  C_12
REMARK    5  A    between atoms: C_12  and  N_13
REMARK    6  A    between atoms: C_14  and  C_16
REMARK                            x       y       z     vdW  Elec       q    Type
REMARK                         _______ _______ _______ _____ _____    ______ ____
ROOT
ATOM      1  C   UNL     1      47.477   8.312  13.642  0.00  0.00    +0.000 C 
ENDROOT
BRANCH   1   5
ATOM      2  C   UNL     1      44.830   6.037  11.082  0.00  0.00    +0.000 A 
ATOM      3  C   UNL     1      46.072   5.511  11.468  0.00  0.00    +0.000 A 
ATOM      4  C   UNL     1      46.937   6.251  12.280  0.00  0.00    +0.000 A 
ATOM      5  C   UNL     1      46.582   7.533  12.714  0.00  0.00    +0.000 A 
ATOM      6  C   UNL     1      45.375   8.086  12.266  0.00  0.00    +0.000 A 
ATOM      7  C   UNL     1      44.501   7.341  11.470  0.00  0.00    +0.000 A 
BRANCH   2   8
ATOM      8  C   UNL     1      43.844   5.194  10.302  0.00  0.00    +0.000 C 
BRANCH   8  14
ATOM      9  C   UNL     1      46.728   3.800   6.622  0.00  0.00    +0.000 C 
ATOM     10  C   UNL     1      45.878   3.391   7.786  0.00  0.00    +0.000 A 
ATOM     11  C   UNL     1      45.734   2.051   8.124  0.00  0.00    +0.000 A 
ATOM     12  C   UNL     1      44.914   1.718   9.195  0.00  0.00    +0.000 A 
ATOM     13  C   UNL     1      44.272   2.728   9.901  0.00  0.00    +0.000 A 
ATOM     14  C   UNL     1      44.467   4.054   9.519  0.00  0.00    +0.000 A 
ATOM     15  N   UNL     1      45.263   4.389   8.471  0.00  0.00    +0.000 NA
ENDBRANCH   8  14
ENDBRANCH   2   8
ENDBRANCH   1   5
BRANCH   1  16
ATOM     16  N   UNL     1      47.786   7.565  14.833  0.00  0.00    +0.000 N 
ATOM     17  C   UNL     1      49.014   6.977  14.995  0.00  0.00    +0.000 C 
ATOM     18  O   UNL     1      49.913   7.106  14.169  0.00  0.00    +0.000 OA
ATOM     19  H   UNL     1      47.002   7.254  15.399  0.00  0.00    +0.000 HD
BRANCH  17  20
ATOM     20  C   UNL     1      49.223   6.230  16.242  0.00  0.00    +0.000 A 
ATOM     21  C   UNL     1      50.219   6.631  17.124  0.00  0.00    +0.000 A 
ATOM     22  S   UNL     1      50.311   5.675  18.533  0.00  0.00    +0.000 S 
ATOM     23  C   UNL     1      49.053   4.663  17.995  0.00  0.00    +0.000 A 
ATOM     24  N   UNL     1      48.649   3.596  18.733  0.00  0.00    +0.000 NA
ATOM     25  C   UNL     1      47.706   2.899  18.193  0.00  0.00    +0.000 A 
ATOM     26  N   UNL     1      47.124   3.178  16.983  0.00  0.00    +0.000 N 
ATOM     27  C   UNL     1      47.482   4.260  16.216  0.00  0.00    +0.000 A 
ATOM     28  O   UNL     1      46.907   4.508  15.158  0.00  0.00    +0.000 OA
ATOM     29  C   UNL     1      48.552   5.064  16.767  0.00  0.00    +0.000 A 
ATOM     30  H   UNL     1      46.378   2.602  16.623  0.00  0.00    +0.000 HD
ENDBRANCH  17  20
ENDBRANCH   1  16
TORSDOF 5
ENDMDL
MODEL 3
REMARK VINA RESULT:    -8.058      2.533      4.396
REMARK INTER + INTRA:         -10.896
REMARK INTER:                  -9.797
REMARK INTRA:                  -1.099
REMARK UNBOUND:                -0.483
REMARK  Name = 
REMARK  6 active torsions:
REMARK  status: ('A' for Active; 'I' for Inactive)
REMARK    1  A    between atoms: C_1  and  C_2
REMARK    2  A    between atoms: C_6  and  C_7
REMARK    3  A    between atoms: C_7  and  C_8
REMARK    4  A    between atoms: C_11  and  C_12
REMARK    5  A    between atoms: C_12  and  N_13
REMARK    6  A    between atoms: C_14  and  C_16
REMARK                            x       y       z     vdW  Elec       q    Type
REMARK                         _______ _______ _______ _____ _____    ______ ____
ROOT
ATOM      1  C   UNL     1      46.964   5.444  14.244  0.00  0.00    +0.000 C 
ENDROOT
BRANCH   1   5
ATOM      2  C   UNL     1      44.981   4.118  10.632  0.00  0.00    +0.000 A 
ATOM      3  C   UNL     1      45.453   5.435  10.742  0.00  0.00    +0.000 A 
ATOM      4  C   UNL     1      46.077   5.872  11.914  0.00  0.00    +0.000 A 
ATOM      5  C   UNL     1      46.234   5.003  13.001  0.00  0.00    +0.000 A 
ATOM      6  C   UNL     1      45.696   3.713  12.917  0.00  0.00    +0.000 A 
ATOM      7  C   UNL     1      45.088   3.270  11.740  0.00  0.00    +0.000 A 
BRANCH   2   8
ATOM      8  C   UNL     1      44.412   3.610   9.325  0.00  0.00    +0.000 C 
BRANCH   8  14
ATOM      9  C   UNL     1      46.792  -0.347   7.747  0.00  0.00    +0.000 C 
ATOM     10  C   UNL     1      46.541   1.123   7.593  0.00  0.00    +0.000 A 
ATOM     11  C   UNL     1      47.186   1.854   6.602  0.00  0.00    +0.000 A 
ATOM     12  C   UNL     1      46.943   3.218   6.516  0.00  0.00    +0.000 A 
ATOM     13  C   UNL     1      46.059   3.812   7.410  0.00  0.00    +0.000 A 
ATOM     14  C   UNL     1      45.436   3.021   8.374  0.00  0.00    +0.000 A 
ATOM     15  N   UNL     1      45.671   1.687   8.468  0.00  0.00    +0.000 NA
ENDBRANCH   8  14
ENDBRANCH   2   8
ENDBRANCH   1   5
BRANCH   1  16
ATOM     16  N   UNL     1      47.345   6.829  14.173  0.00  0.00    +0.000 N 
ATOM     17  C   UNL     1      48.568   7.246  14.633  0.00  0.00    +0.000 C 
ATOM     18  O   UNL     1      49.404   6.460  15.068  0.00  0.00    +0.000 OA
ATOM     19  H   UNL     1      46.600   7.507  14.045  0.00  0.00    +0.000 HD
BRANCH  17  20
ATOM     20  C   UNL     1      48.855   8.682  14.524  0.00  0.00    +0.000 A 
ATOM     21  C   UNL     1      49.012   9.441  15.676  0.00  0.00    +0.000 A 
ATOM     22  S   UNL     1      49.367  11.082  15.372  0.00  0.00    +0.000 S 
ATOM     23  C   UNL     1      49.278  10.846  13.689  0.00  0.00    +0.000 A 
ATOM     24  N   UNL     1      49.453  11.883  12.828  0.00  0.00    +0.000 NA
ATOM     25  C   UNL     1      49.331  11.567  11.581  0.00  0.00    +0.000 A 
ATOM     26  N   UNL     1      49.059  10.306  11.118  0.00  0.00    +0.000 N 
ATOM     27  C   UNL     1      48.900   9.224  11.950  0.00  0.00    +0.000 A 
ATOM     28  O   UNL     1      48.703   8.098  11.500  0.00  0.00    +0.000 OA
ATOM     29  C   UNL     1      49.006   9.527  13.362  0.00  0.00    +0.000 A 
ATOM     30  H   UNL     1      48.993  10.121  10.128  0.00  0.00    +0.000 HD
ENDBRANCH  17  20
ENDBRANCH   1  16
TORSDOF 5
ENDMDL
MODEL 4
REMARK VINA RESULT:    -7.663      1.974      2.625
REMARK INTER + INTRA:         -10.385
REMARK INTER:                  -9.405
REMARK INTRA:                  -0.980
REMARK UNBOUND:                -0.483
REMARK  Name = 
REMARK  6 active torsions:
REMARK  status: ('A' for Active; 'I' for Inactive)
REMARK    1  A    between atoms: C_1  and  C_2
REMARK    2  A    between atoms: C_6  and  C_7
REMARK    3  A    between atoms: C_7  and  C_8
REMARK    4  A    between atoms: C_11  and  C_12
REMARK    5  A    between atoms: C_12  and  N_13
REMARK    6  A    between atoms: C_14  and  C_16
REMARK                            x       y       z     vdW  Elec       q    Type
REMARK                         _______ _______ _______ _____ _____    ______ ____
ROOT
ATOM      1  C   UNL     1      48.681   6.864  14.042  0.00  0.00    +0.000 C 
ENDROOT
BRANCH   1   5
ATOM      2  C   UNL     1      45.346   5.656  11.562  0.00  0.00    +0.000 A 
ATOM      3  C   UNL     1      45.965   6.899  11.365  0.00  0.00    +0.000 A 
ATOM      4  C   UNL     1      47.030   7.301  12.177  0.00  0.00    +0.000 A 
ATOM      5  C   UNL     1      47.492   6.471  13.205  0.00  0.00    +0.000 A 
ATOM      6  C   UNL     1      46.825   5.263  13.448  0.00  0.00    +0.000 A 
ATOM      7  C   UNL     1      45.771   4.853  12.627  0.00  0.00    +0.000 A 
BRANCH   2   8
ATOM      8  C   UNL     1      44.272   5.170  10.613  0.00  0.00    +0.000 C 
BRANCH   8  14
ATOM      9  C   UNL     1      46.794   3.825   6.658  0.00  0.00    +0.000 C 
ATOM     10  C   UNL     1      45.945   3.405   7.820  0.00  0.00    +0.000 A 
ATOM     11  C   UNL     1      45.639   2.065   8.027  0.00  0.00    +0.000 A 
ATOM     12  C   UNL     1      44.826   1.726   9.101  0.00  0.00    +0.000 A 
ATOM     13  C   UNL     1      44.352   2.728   9.940  0.00  0.00    +0.000 A 
ATOM     14  C   UNL     1      44.706   4.051   9.685  0.00  0.00    +0.000 A 
ATOM     15  N   UNL     1      45.497   4.393   8.634  0.00  0.00    +0.000 NA
ENDBRANCH   8  14
ENDBRANCH   2   8
ENDBRANCH   1   5
BRANCH   1  16
ATOM     16  N   UNL     1      48.411   6.723  15.448  0.00  0.00    +0.000 N 
ATOM     17  C   UNL     1      48.928   7.612  16.356  0.00  0.00    +0.000 C 
ATOM     18  O   UNL     1      49.588   8.587  16.011  0.00  0.00    +0.000 OA
ATOM     19  H   UNL     1      48.080   5.817  15.766  0.00  0.00    +0.000 HD
BRANCH  17  20
ATOM     20  C   UNL     1      48.600   7.373  17.767  0.00  0.00    +0.000 A 
ATOM     21  C   UNL     1      48.076   8.404  18.535  0.00  0.00    +0.000 A 
ATOM     22  S   UNL     1      47.726   7.952  20.142  0.00  0.00    +0.000 S 
ATOM     23  C   UNL     1      48.304   6.373  19.882  0.00  0.00    +0.000 A 
ATOM     24  N   UNL     1      48.321   5.459  20.888  0.00  0.00    +0.000 NA
ATOM     25  C   UNL     1      48.811   4.311  20.558  0.00  0.00    +0.000 A 
ATOM     26  N   UNL     1      49.278   3.991  19.310  0.00  0.00    +0.000 N 
ATOM     27  C   UNL     1      49.257   4.873  18.257  0.00  0.00    +0.000 A 
ATOM     28  O   UNL     1      49.641   4.539  17.138  0.00  0.00    +0.000 OA
ATOM     29  C   UNL     1      48.736   6.185  18.578  0.00  0.00    +0.000 A 
ATOM     30  H   UNL     1      49.635   3.068  19.112  0.00  0.00    +0.000 HD
ENDBRANCH  17  20
ENDBRANCH   1  16
TORSDOF 5
ENDMDL
MODEL 5
REMARK VINA RESULT:    -7.615      2.686      3.533
REMARK INTER + INTRA:         -10.324
REMARK INTER:                  -9.363
REMARK INTRA:                  -0.961
REMARK UNBOUND:                -0.483
REMARK  Name = 
REMARK  6 active torsions:
REMARK  status: ('A' for Active; 'I' for Inactive)
REMARK    1  A    between atoms: C_1  and  C_2
REMARK    2  A    between atoms: C_6  and  C_7
REMARK    3  A    between atoms: C_7  and  C_8
REMARK    4  A    between atoms: C_11  and  C_12
REMARK    5  A    between atoms: C_12  and  N_13
REMARK    6  A    between atoms: C_14  and  C_16
REMARK                            x       y       z     vdW  Elec       q    Type
REMARK                         _______ _______ _______ _____ _____    ______ ____
ROOT
ATOM      1  C   UNL     1      48.584   6.901  14.141  0.00  0.00    +0.000 C 
ENDROOT
BRANCH   1   5
ATOM      2  C   UNL     1      45.277   5.687  11.627  0.00  0.00    +0.000 A 
ATOM      3  C   UNL     1      45.867   6.949  11.465  0.00  0.00    +0.000 A 
ATOM      4  C   UNL     1      46.923   7.352  12.288  0.00  0.00    +0.000 A 
ATOM      5  C   UNL     1      47.404   6.504  13.293  0.00  0.00    +0.000 A 
ATOM      6  C   UNL     1      46.764   5.275  13.502  0.00  0.00    +0.000 A 
ATOM      7  C   UNL     1      45.720   4.865  12.669  0.00  0.00    +0.000 A 
BRANCH   2   8
ATOM      8  C   UNL     1      44.214   5.204  10.664  0.00  0.00    +0.000 C 
BRANCH   8  14
ATOM      9  C   UNL     1      46.786   3.899   6.728  0.00  0.00    +0.000 C 
ATOM     10  C   UNL     1      45.924   3.467   7.876  0.00  0.00    +0.000 A 
ATOM     11  C   UNL     1      45.618   2.124   8.068  0.00  0.00    +0.000 A 
ATOM     12  C   UNL     1      44.794   1.775   9.129  0.00  0.00    +0.000 A 
ATOM     13  C   UNL     1      44.308   2.768   9.972  0.00  0.00    +0.000 A 
ATOM     14  C   UNL     1      44.661   4.094   9.732  0.00  0.00    +0.000 A 
ATOM     15  N   UNL     1      45.463   4.446   8.694  0.00  0.00    +0.000 NA
ENDBRANCH   8  14
ENDBRANCH   2   8
ENDBRANCH   1   5
BRANCH   1  16
ATOM     16  N   UNL     1      48.221   7.035  15.527  0.00  0.00    +0.000 N 
ATOM     17  C   UNL     1      48.974   6.446  16.511  0.00  0.00    +0.000 C 
ATOM     18  O   UNL     1      50.009   5.835  16.263  0.00  0.00    +0.000 OA
ATOM     19  H   UNL     1      47.268   7.321  15.729  0.00  0.00    +0.000 HD
BRANCH  17  20
ATOM     20  C   UNL     1      48.511   6.636  17.892  0.00  0.00    +0.000 A 
ATOM     21  C   UNL     1      48.445   5.546  18.750  0.00  0.00    +0.000 A 
ATOM     22  S   UNL     1      47.914   5.943  20.321  0.00  0.00    +0.000 S 
ATOM     23  C   UNL     1      47.712   7.579  19.899  0.00  0.00    +0.000 A 
ATOM     24  N   UNL     1      47.240   8.481  20.800  0.00  0.00    +0.000 NA
ATOM     25  C   UNL     1      47.110   9.680  20.337  0.00  0.00    +0.000 A 
ATOM     26  N   UNL     1      47.419  10.060  19.057  0.00  0.00    +0.000 N 
ATOM     27  C   UNL     1      47.923   9.189  18.121  0.00  0.00    +0.000 A 
ATOM     28  O   UNL     1      48.233   9.574  16.996  0.00  0.00    +0.000 OA
ATOM     29  C   UNL     1      48.069   7.825  18.583  0.00  0.00    +0.000 A 
ATOM     30  H   UNL     1      47.310  11.019  18.761  0.00  0.00    +0.000 HD
ENDBRANCH  17  20
ENDBRANCH   1  16
TORSDOF 5
ENDMDL
MODEL 6
REMARK VINA RESULT:    -7.578      4.134      8.841
REMARK INTER + INTRA:         -10.276
REMARK INTER:                  -9.547
REMARK INTRA:                  -0.728
REMARK UNBOUND:                -0.483
REMARK  Name = 
REMARK  6 active torsions:
REMARK  status: ('A' for Active; 'I' for Inactive)
REMARK    1  A    between atoms: C_1  and  C_2
REMARK    2  A    between atoms: C_6  and  C_7
REMARK    3  A    between atoms: C_7  and  C_8
REMARK    4  A    between atoms: C_11  and  C_12
REMARK    5  A    between atoms: C_12  and  N_13
REMARK    6  A    between atoms: C_14  and  C_16
REMARK                            x       y       z     vdW  Elec       q    Type
REMARK                         _______ _______ _______ _____ _____    ______ ____
ROOT
ATOM      1  C   UNL     1      47.371   3.491  17.030  0.00  0.00    +0.000 C 
ENDROOT
BRANCH   1   5
ATOM      2  C   UNL     1      51.555   3.285  18.118  0.00  0.00    +0.000 A 
ATOM      3  C   UNL     1      50.801   4.432  18.406  0.00  0.00    +0.000 A 
ATOM      4  C   UNL     1      49.454   4.510  18.039  0.00  0.00    +0.000 A 
ATOM      5  C   UNL     1      48.837   3.445  17.371  0.00  0.00    +0.000 A 
ATOM      6  C   UNL     1      49.611   2.331  17.018  0.00  0.00    +0.000 A 
ATOM      7  C   UNL     1      50.952   2.246  17.399  0.00  0.00    +0.000 A 
BRANCH   2   8
ATOM      8  C   UNL     1      52.978   3.152  18.617  0.00  0.00    +0.000 C 
BRANCH   8  14
ATOM      9  C   UNL     1      53.910  -1.633  18.842  0.00  0.00    +0.000 C 
ATOM     10  C   UNL     1      54.148  -0.330  18.140  0.00  0.00    +0.000 A 
ATOM     11  C   UNL     1      54.976  -0.265  17.025  0.00  0.00    +0.000 A 
ATOM     12  C   UNL     1      55.188   0.969  16.424  0.00  0.00    +0.000 A 
ATOM     13  C   UNL     1      54.563   2.097  16.944  0.00  0.00    +0.000 A 
ATOM     14  C   UNL     1      53.736   1.963  18.057  0.00  0.00    +0.000 A 
ATOM     15  N   UNL     1      53.526   0.761  18.654  0.00  0.00    +0.000 NA
ENDBRANCH   8  14
ENDBRANCH   2   8
ENDBRANCH   1   5
BRANCH   1  16
ATOM     16  N   UNL     1      47.084   4.505  16.050  0.00  0.00    +0.000 N 
ATOM     17  C   UNL     1      47.118   4.216  14.710  0.00  0.00    +0.000 C 
ATOM     18  O   UNL     1      47.334   3.082  14.291  0.00  0.00    +0.000 OA
ATOM     19  H   UNL     1      47.139   5.471  16.357  0.00  0.00    +0.000 HD
BRANCH  17  20
ATOM     20  C   UNL     1      46.819   5.324  13.793  0.00  0.00    +0.000 A 
ATOM     21  C   UNL     1      47.768   6.317  13.585  0.00  0.00    +0.000 A 
ATOM     22  S   UNL     1      47.274   7.513  12.473  0.00  0.00    +0.000 S 
ATOM     23  C   UNL     1      45.757   6.770  12.264  0.00  0.00    +0.000 A 
ATOM     24  N   UNL     1      44.817   7.316  11.448  0.00  0.00    +0.000 NA
ATOM     25  C   UNL     1      43.704   6.664  11.405  0.00  0.00    +0.000 A 
ATOM     26  N   UNL     1      43.448   5.508  12.098  0.00  0.00    +0.000 N 
ATOM     27  C   UNL     1      44.376   4.907  12.913  0.00  0.00    +0.000 A 
ATOM     28  O   UNL     1      44.131   3.846  13.484  0.00  0.00    +0.000 OA
ATOM     29  C   UNL     1      45.638   5.611  13.014  0.00  0.00    +0.000 A 
ATOM     30  H   UNL     1      42.561   5.037  12.008  0.00  0.00    +0.000 HD
ENDBRANCH  17  20
ENDBRANCH   1  16
TORSDOF 5
ENDMDL
MODEL 7
REMARK VINA RESULT:    -7.268      4.097      9.756
REMARK INTER + INTRA:          -9.875
REMARK INTER:                  -8.845
REMARK INTRA:                  -1.030
REMARK UNBOUND:                -0.483
REMARK  Name = 
REMARK  6 active torsions:
REMARK  status: ('A' for Active; 'I' for Inactive)
REMARK    1  A    between atoms: C_1  and  C_2
REMARK    2  A    between atoms: C_6  and  C_7
REMARK    3  A    between atoms: C_7  and  C_8
REMARK    4  A    between atoms: C_11  and  C_12
REMARK    5  A    between atoms: C_12  and  N_13
REMARK    6  A    between atoms: C_14  and  C_16
REMARK                            x       y       z     vdW  Elec       q    Type
REMARK                         _______ _______ _______ _____ _____    ______ ____
ROOT
ATOM      1  C   UNL     1      47.846   4.121  16.155  0.00  0.00    +0.000 C 
ENDROOT
BRANCH   1   5
ATOM      2  C   UNL     1      48.325   6.863  19.469  0.00  0.00    +0.000 A 
ATOM      3  C   UNL     1      47.153   6.104  19.338  0.00  0.00    +0.000 A 
ATOM      4  C   UNL     1      46.987   5.231  18.259  0.00  0.00    +0.000 A 
ATOM      5  C   UNL     1      47.986   5.106  17.285  0.00  0.00    +0.000 A 
ATOM      6  C   UNL     1      49.122   5.920  17.377  0.00  0.00    +0.000 A 
ATOM      7  C   UNL     1      49.297   6.780  18.465  0.00  0.00    +0.000 A 
BRANCH   2   8
ATOM      8  C   UNL     1      48.556   7.719  20.695  0.00  0.00    +0.000 C 
BRANCH   8  14
ATOM      9  C   UNL     1      47.109  11.912  18.661  0.00  0.00    +0.000 C 
ATOM     10  C   UNL     1      46.957  10.934  19.787  0.00  0.00    +0.000 A 
ATOM     11  C   UNL     1      46.028  11.153  20.798  0.00  0.00    +0.000 A 
ATOM     12  C   UNL     1      45.942  10.233  21.834  0.00  0.00    +0.000 A 
ATOM     13  C   UNL     1      46.775   9.120  21.829  0.00  0.00    +0.000 A 
ATOM     14  C   UNL     1      47.678   8.953  20.781  0.00  0.00    +0.000 A 
ATOM     15  N   UNL     1      47.771   9.849  19.765  0.00  0.00    +0.000 NA
ENDBRANCH   8  14
ENDBRANCH   2   8
ENDBRANCH   1   5
BRANCH   1  16
ATOM     16  N   UNL     1      46.909   4.579  15.163  0.00  0.00    +0.000 N 
ATOM     17  C   UNL     1      47.306   5.418  14.154  0.00  0.00    +0.000 C 
ATOM     18  O   UNL     1      48.476   5.767  14.018  0.00  0.00    +0.000 OA
ATOM     19  H   UNL     1      45.922   4.499  15.390  0.00  0.00    +0.000 HD
BRANCH  17  20
ATOM     20  C   UNL     1      46.270   5.833  13.200  0.00  0.00    +0.000 A 
ATOM     21  C   UNL     1      46.057   7.185  12.963  0.00  0.00    +0.000 A 
ATOM     22  S   UNL     1      44.839   7.494  11.811  0.00  0.00    +0.000 S 
ATOM     23  C   UNL     1      44.520   5.834  11.620  0.00  0.00    +0.000 A 
ATOM     24  N   UNL     1      43.541   5.400  10.783  0.00  0.00    +0.000 NA
ATOM     25  C   UNL     1      43.390   4.118  10.757  0.00  0.00    +0.000 A 
ATOM     26  N   UNL     1      44.136   3.229  11.487  0.00  0.00    +0.000 N 
ATOM     27  C   UNL     1      45.152   3.619  12.325  0.00  0.00    +0.000 A 
ATOM     28  O   UNL     1      45.833   2.793  12.929  0.00  0.00    +0.000 OA
ATOM     29  C   UNL     1      45.351   5.052  12.407  0.00  0.00    +0.000 A 
ATOM     30  H   UNL     1      43.979   2.235  11.409  0.00  0.00    +0.000 HD
ENDBRANCH  17  20
ENDBRANCH   1  16
TORSDOF 5
ENDMDL
MODEL 8
REMARK VINA RESULT:    -7.255      3.814      8.932
REMARK INTER + INTRA:          -9.858
REMARK INTER:                  -8.979
REMARK INTRA:                  -0.879
REMARK UNBOUND:                -0.483
REMARK  Name = 
REMARK  6 active torsions:
REMARK  status: ('A' for Active; 'I' for Inactive)
REMARK    1  A    between atoms: C_1  and  C_2
REMARK    2  A    between atoms: C_6  and  C_7
REMARK    3  A    between atoms: C_7  and  C_8
REMARK    4  A    between atoms: C_11  and  C_12
REMARK    5  A    between atoms: C_12  and  N_13
REMARK    6  A    between atoms: C_14  and  C_16
REMARK                            x       y       z     vdW  Elec       q    Type
REMARK                         _______ _______ _______ _____ _____    ______ ____
ROOT
ATOM      1  C   UNL     1      47.297   3.416  16.825  0.00  0.00    +0.000 C 
ENDROOT
BRANCH   1   5
ATOM      2  C   UNL     1      51.506   3.758  17.773  0.00  0.00    +0.000 A 
ATOM      3  C   UNL     1      50.690   4.898  17.741  0.00  0.00    +0.000 A 
ATOM      4  C   UNL     1      49.333   4.794  17.417  0.00  0.00    +0.000 A 
ATOM      5  C   UNL     1      48.770   3.549  17.110  0.00  0.00    +0.000 A 
ATOM      6  C   UNL     1      49.603   2.423  17.069  0.00  0.00    +0.000 A 
ATOM      7  C   UNL     1      50.954   2.524  17.410  0.00  0.00    +0.000 A 
BRANCH   2   8
ATOM      8  C   UNL     1      52.944   3.852  18.236  0.00  0.00    +0.000 C 
BRANCH   8  14
ATOM      9  C   UNL     1      54.849   6.660  14.729  0.00  0.00    +0.000 C 
ATOM     10  C   UNL     1      54.517   6.502  16.183  0.00  0.00    +0.000 A 
ATOM     11  C   UNL     1      54.804   7.516  17.090  0.00  0.00    +0.000 A 
ATOM     12  C   UNL     1      54.504   7.313  18.431  0.00  0.00    +0.000 A 
ATOM     13  C   UNL     1      53.918   6.116  18.826  0.00  0.00    +0.000 A 
ATOM     14  C   UNL     1      53.646   5.144  17.864  0.00  0.00    +0.000 A 
ATOM     15  N   UNL     1      53.940   5.331  16.552  0.00  0.00    +0.000 NA
ENDBRANCH   8  14
ENDBRANCH   2   8
ENDBRANCH   1   5
BRANCH   1  16
ATOM     16  N   UNL     1      46.847   4.404  15.880  0.00  0.00    +0.000 N 
ATOM     17  C   UNL     1      46.904   4.164  14.531  0.00  0.00    +0.000 C 
ATOM     18  O   UNL     1      47.282   3.089  14.075  0.00  0.00    +0.000 OA
ATOM     19  H   UNL     1      46.761   5.358  16.216  0.00  0.00    +0.000 HD
BRANCH  17  20
ATOM     20  C   UNL     1      46.430   5.242  13.653  0.00  0.00    +0.000 A 
ATOM     21  C   UNL     1      47.225   6.362  13.449  0.00  0.00    +0.000 A 
ATOM     22  S   UNL     1      46.540   7.503  12.383  0.00  0.00    +0.000 S 
ATOM     23  C   UNL     1      45.135   6.562  12.191  0.00  0.00    +0.000 A 
ATOM     24  N   UNL     1      44.106   6.991  11.414  0.00  0.00    +0.000 NA
ATOM     25  C   UNL     1      43.092   6.192  11.380  0.00  0.00    +0.000 A 
ATOM     26  N   UNL     1      43.019   4.996  12.047  0.00  0.00    +0.000 N 
ATOM     27  C   UNL     1      44.044   4.510  12.822  0.00  0.00    +0.000 A 
ATOM     28  O   UNL     1      43.963   3.413  13.369  0.00  0.00    +0.000 OA
ATOM     29  C   UNL     1      45.198   5.380  12.911  0.00  0.00    +0.000 A 
ATOM     30  H   UNL     1      42.203   4.408  11.965  0.00  0.00    +0.000 HD
ENDBRANCH  17  20
ENDBRANCH   1  16
TORSDOF 5
ENDMDL
MODEL 9
REMARK VINA RESULT:    -7.193      1.988      3.165
REMARK INTER + INTRA:          -9.779
REMARK INTER:                  -8.531
REMARK INTRA:                  -1.248
REMARK UNBOUND:                -0.483
REMARK  Name = 
REMARK  6 active torsions:
REMARK  status: ('A' for Active; 'I' for Inactive)
REMARK    1  A    between atoms: C_1  and  C_2
REMARK    2  A    between atoms: C_6  and  C_7
REMARK    3  A    between atoms: C_7  and  C_8
REMARK    4  A    between atoms: C_11  and  C_12
REMARK    5  A    between atoms: C_12  and  N_13
REMARK    6  A    between atoms: C_14  and  C_16
REMARK                            x       y       z     vdW  Elec       q    Type
REMARK                         _______ _______ _______ _____ _____    ______ ____
ROOT
ATOM      1  C   UNL     1      49.118   8.429  13.926  0.00  0.00    +0.000 C 
ENDROOT
BRANCH   1   5
ATOM      2  C   UNL     1      45.525   7.314  11.784  0.00  0.00    +0.000 A 
ATOM      3  C   UNL     1      46.705   6.571  11.630  0.00  0.00    +0.000 A 
ATOM      4  C   UNL     1      47.872   6.939  12.305  0.00  0.00    +0.000 A 
ATOM      5  C   UNL     1      47.885   8.062  13.142  0.00  0.00    +0.000 A 
ATOM      6  C   UNL     1      46.727   8.846  13.236  0.00  0.00    +0.000 A 
ATOM      7  C   UNL     1      45.555   8.469  12.575  0.00  0.00    +0.000 A 
BRANCH   2   8
ATOM      8  C   UNL     1      44.233   6.851  11.147  0.00  0.00    +0.000 C 
BRANCH   8  14
ATOM      9  C   UNL     1      44.477   2.470   9.011  0.00  0.00    +0.000 C 
ATOM     10  C   UNL     1      44.135   3.262  10.237  0.00  0.00    +0.000 A 
ATOM     11  C   UNL     1      43.666   2.629  11.383  0.00  0.00    +0.000 A 
ATOM     12  C   UNL     1      43.337   3.407  12.485  0.00  0.00    +0.000 A 
ATOM     13  C   UNL     1      43.493   4.787  12.418  0.00  0.00    +0.000 A 
ATOM     14  C   UNL     1      43.979   5.358  11.244  0.00  0.00    +0.000 A 
ATOM     15  N   UNL     1      44.300   4.606  10.159  0.00  0.00    +0.000 NA
ENDBRANCH   8  14
ENDBRANCH   2   8
ENDBRANCH   1   5
BRANCH   1  16
ATOM     16  N   UNL     1      49.266   7.608  15.098  0.00  0.00    +0.000 N 
ATOM     17  C   UNL     1      48.762   8.012  16.308  0.00  0.00    +0.000 C 
ATOM     18  O   UNL     1      48.121   9.051  16.433  0.00  0.00    +0.000 OA
ATOM     19  H   UNL     1      49.979   6.886  15.067  0.00  0.00    +0.000 HD
BRANCH  17  20
ATOM     20  C   UNL     1      48.977   7.105  17.443  0.00  0.00    +0.000 A 
ATOM     21  C   UNL     1      49.525   7.596  18.621  0.00  0.00    +0.000 A 
ATOM     22  S   UNL     1      49.681   6.420  19.845  0.00  0.00    +0.000 S 
ATOM     23  C   UNL     1      49.063   5.202  18.831  0.00  0.00    +0.000 A 
ATOM     24  N   UNL     1      48.960   3.917  19.263  0.00  0.00    +0.000 NA
ATOM     25  C   UNL     1      48.501   3.093  18.381  0.00  0.00    +0.000 A 
ATOM     26  N   UNL     1      48.127   3.439  17.108  0.00  0.00    +0.000 N 
ATOM     27  C   UNL     1      48.190   4.728  16.637  0.00  0.00    +0.000 A 
ATOM     28  O   UNL     1      47.803   5.012  15.506  0.00  0.00    +0.000 OA
ATOM     29  C   UNL     1      48.718   5.691  17.581  0.00  0.00    +0.000 A 
ATOM     30  H   UNL     1      47.760   2.748  16.471  0.00  0.00    +0.000 HD
ENDBRANCH  17  20
ENDBRANCH   1  16
TORSDOF 5
ENDMDL
