MODEL 1
REMARK VINA RESULT:    -7.079      0.000      0.000
REMARK INTER + INTRA:          -9.980
REMARK INTER:                  -9.148
REMARK INTRA:                  -0.832
REMARK UNBOUND:                -0.832
REMARK  Name = 
REMARK  6 active torsions:
REMARK  status: ('A' for Active; 'I' for Inactive)
REMARK    1  A    between atoms: C_1  and  O_2
REMARK    2  A    between atoms: O_2  and  C_3
REMARK    3  A    between atoms: C_6  and  O_7
REMARK    4  A    between atoms: O_7  and  C_8
REMARK    5  A    between atoms: C_8  and  C_9
REMARK    6  A    between atoms: C_13  and  C_14
REMARK                            x       y       z     vdW  Elec       q    Type
REMARK                         _______ _______ _______ _____ _____    ______ ____
ROOT
ATOM      1  C   UNL     1      45.059   4.821  12.107  0.00  0.00    +0.000 A 
ATOM      2  C   UNL     1      45.356   3.677  12.847  0.00  0.00    +0.000 A 
ATOM      3  C   UNL     1      46.543   3.606  13.565  0.00  0.00    +0.000 A 
ATOM      4  C   UNL     1      47.426   4.676  13.520  0.00  0.00    +0.000 A 
ATOM      5  C   UNL     1      47.096   5.792  12.757  0.00  0.00    +0.000 A 
ATOM      6  N   UNL     1      45.927   5.876  12.079  0.00  0.00    +0.000 NA
ENDROOT
BRANCH   5   7
ATOM      7  C   UNL     1      48.107   6.915  12.589  0.00  0.00    +0.000 C 
ATOM      8  C   UNL     1      48.908   7.211  13.865  0.00  0.00    +0.000 C 
ATOM      9  C   UNL     1      48.231   8.211  14.800  0.00  0.00    +0.000 C 
ATOM     10  N   UNL     1      47.865   9.439  14.091  0.00  0.00    +0.000 NA
ATOM     11  C   UNL     1      46.883   9.129  13.052  0.00  0.00    +0.000 C 
ATOM     12  C   UNL     1      47.452   8.178  12.000  0.00  0.00    +0.000 C 
ATOM     13  H   UNL     1      48.696   9.847  13.664  0.00  0.00    +0.000 HD
ENDBRANCH   5   7
BRANCH   1  14
ATOM     14  C   UNL     1      43.799   4.892  11.252  0.00  0.00    +0.000 C 
ATOM     15  C   UNL     1      42.508   5.319  11.951  0.00  0.00    +0.000 C 
ATOM     16  C   UNL     1      43.164   6.242  10.980  0.00  0.00    +0.000 C 
BRANCH  14  17
ATOM     17  O   UNL     1      43.545   3.786  10.357  0.00  0.00    +0.000 OA
BRANCH  17  21
ATOM     18  C   UNL     1      46.327   2.482   7.702  0.00  0.00    +0.000 A 
ATOM     19  C   UNL     1      45.927   3.816   7.686  0.00  0.00    +0.000 A 
ATOM     20  N   UNL     1      45.011   4.335   8.555  0.00  0.00    +0.000 NA
ATOM     21  C   UNL     1      44.518   3.440   9.441  0.00  0.00    +0.000 A 
ATOM     22  C   UNL     1      44.927   2.111   9.462  0.00  0.00    +0.000 A 
ATOM     23  N   UNL     1      45.836   1.599   8.597  0.00  0.00    +0.000 NA
BRANCH  18  25
ATOM     24  C   UNL     1      47.121   2.780   5.526  0.00  0.00    +0.000 C 
ATOM     25  O   UNL     1      47.240   2.067   6.756  0.00  0.00    +0.000 OA
ENDBRANCH  18  25
ENDBRANCH  17  21
ENDBRANCH  14  17
ENDBRANCH   1  14
TORSDOF 5
ENDMDL
MODEL 2
REMARK VINA RESULT:    -6.428      1.675      2.933
REMARK INTER + INTRA:          -9.139
REMARK INTER:                  -8.694
REMARK INTRA:                  -0.445
REMARK UNBOUND:                -0.832
REMARK  Name = 
REMARK  6 active torsions:
REMARK  status: ('A' for Active; 'I' for Inactive)
REMARK    1  A    between atoms: C_1  and  O_2
REMARK    2  A    between atoms: O_2  and  C_3
REMARK    3  A    between atoms: C_6  and  O_7
REMARK    4  A    between atoms: O_7  and  C_8
REMARK    5  A    between atoms: C_8  and  C_9
REMARK    6  A    between atoms: C_13  and  C_14
REMARK                            x       y       z     vdW  Elec       q    Type
REMARK                         _______ _______ _______ _____ _____    ______ ____
ROOT
ATOM      1  C   UNL     1      44.509   7.076  11.700  0.00  0.00    +0.000 A 
ATOM      2  C   UNL     1      43.725   8.110  11.189  0.00  0.00    +0.000 A 
ATOM      3  C   UNL     1      44.208   9.413  11.196  0.00  0.00    +0.000 A 
ATOM      4  C   UNL     1      45.463   9.667  11.731  0.00  0.00    +0.000 A 
ATOM      5  C   UNL     1      46.205   8.606  12.244  0.00  0.00    +0.000 A 
ATOM      6  N   UNL     1      45.749   7.332  12.211  0.00  0.00    +0.000 NA
ENDROOT
BRANCH   5   7
ATOM      7  C   UNL     1      47.522   8.881  12.952  0.00  0.00    +0.000 C 
ATOM      8  C   UNL     1      48.711   9.037  11.992  0.00  0.00    +0.000 C 
ATOM      9  C   UNL     1      49.392   7.717  11.636  0.00  0.00    +0.000 C 
ATOM     10  N   UNL     1      49.759   6.966  12.838  0.00  0.00    +0.000 NA
ATOM     11  C   UNL     1      48.550   6.609  13.579  0.00  0.00    +0.000 C 
ATOM     12  C   UNL     1      47.792   7.846  14.059  0.00  0.00    +0.000 C 
ATOM     13  H   UNL     1      50.363   7.539  13.427  0.00  0.00    +0.000 HD
ENDBRANCH   5   7
BRANCH   1  14
ATOM     14  C   UNL     1      43.971   5.652  11.771  0.00  0.00    +0.000 C 
ATOM     15  C   UNL     1      43.025   5.322  12.924  0.00  0.00    +0.000 C 
ATOM     16  C   UNL     1      42.494   5.406  11.533  0.00  0.00    +0.000 C 
BRANCH  14  17
ATOM     17  O   UNL     1      44.919   4.577  11.573  0.00  0.00    +0.000 OA
BRANCH  17  21
ATOM     18  C   UNL     1      45.718   3.429   7.762  0.00  0.00    +0.000 A 
ATOM     19  C   UNL     1      45.188   2.510   8.665  0.00  0.00    +0.000 A 
ATOM     20  N   UNL     1      44.877   2.822   9.957  0.00  0.00    +0.000 NA
ATOM     21  C   UNL     1      45.127   4.107  10.292  0.00  0.00    +0.000 A 
ATOM     22  C   UNL     1      45.646   5.025   9.387  0.00  0.00    +0.000 A 
ATOM     23  N   UNL     1      45.955   4.713   8.105  0.00  0.00    +0.000 NA
BRANCH  18  25
ATOM     24  C   UNL     1      47.373   2.564   6.359  0.00  0.00    +0.000 C 
ATOM     25  O   UNL     1      46.017   2.989   6.491  0.00  0.00    +0.000 OA
ENDBRANCH  18  25
ENDBRANCH  17  21
ENDBRANCH  14  17
ENDBRANCH   1  14
TORSDOF 5
ENDMDL
MODEL 3
REMARK VINA RESULT:    -6.162      2.595      3.441
REMARK INTER + INTRA:          -8.796
REMARK INTER:                  -8.818
REMARK INTRA:                   0.023
REMARK UNBOUND:                -0.832
REMARK  Name = 
REMARK  6 active torsions:
REMARK  status: ('A' for Active; 'I' for Inactive)
REMARK    1  A    between atoms: C_1  and  O_2
REMARK    2  A    between atoms: O_2  and  C_3
REMARK    3  A    between atoms: C_6  and  O_7
REMARK    4  A    between atoms: O_7  and  C_8
REMARK    5  A    between atoms: C_8  and  C_9
REMARK    6  A    between atoms: C_13  and  C_14
REMARK                            x       y       z     vdW  Elec       q    Type
REMARK                         _______ _______ _______ _____ _____    ______ ____
ROOT
ATOM      1  C   UNL     1      45.830   5.036  13.256  0.00  0.00    +0.000 A 
ATOM      2  C   UNL     1      46.731   6.055  12.950  0.00  0.00    +0.000 A 
ATOM      3  C   UNL     1      47.809   6.301  13.792  0.00  0.00    +0.000 A 
ATOM      4  C   UNL     1      47.961   5.535  14.939  0.00  0.00    +0.000 A 
ATOM      5  C   UNL     1      47.028   4.537  15.212  0.00  0.00    +0.000 A 
ATOM      6  N   UNL     1      45.994   4.276  14.379  0.00  0.00    +0.000 NA
ENDROOT
BRANCH   5   7
ATOM      7  C   UNL     1      47.102   3.778  16.527  0.00  0.00    +0.000 C 
ATOM      8  C   UNL     1      47.207   4.693  17.756  0.00  0.00    +0.000 C 
ATOM      9  C   UNL     1      48.640   5.083  18.114  0.00  0.00    +0.000 C 
ATOM     10  N   UNL     1      49.497   3.903  18.241  0.00  0.00    +0.000 NA
ATOM     11  C   UNL     1      49.576   3.215  16.953  0.00  0.00    +0.000 C 
ATOM     12  C   UNL     1      48.209   2.707  16.497  0.00  0.00    +0.000 C 
ATOM     13  H   UNL     1      49.107   3.272  18.941  0.00  0.00    +0.000 HD
ENDBRANCH   5   7
BRANCH   1  14
ATOM     14  C   UNL     1      44.600   4.797  12.388  0.00  0.00    +0.000 C 
ATOM     15  C   UNL     1      43.236   5.065  13.024  0.00  0.00    +0.000 C 
ATOM     16  C   UNL     1      43.751   5.980  11.964  0.00  0.00    +0.000 C 
BRANCH  14  17
ATOM     17  O   UNL     1      44.564   3.574  11.617  0.00  0.00    +0.000 OA
BRANCH  17  21
ATOM     18  C   UNL     1      45.844   3.368   7.769  0.00  0.00    +0.000 A 
ATOM     19  C   UNL     1      45.834   4.594   8.430  0.00  0.00    +0.000 A 
ATOM     20  N   UNL     1      45.434   4.744   9.726  0.00  0.00    +0.000 NA
ATOM     21  C   UNL     1      45.046   3.594  10.323  0.00  0.00    +0.000 A 
ATOM     22  C   UNL     1      45.068   2.370   9.665  0.00  0.00    +0.000 A 
ATOM     23  N   UNL     1      45.464   2.224   8.377  0.00  0.00    +0.000 NA
BRANCH  18  25
ATOM     24  C   UNL     1      47.435   2.588   6.246  0.00  0.00    +0.000 C 
ATOM     25  O   UNL     1      46.244   3.346   6.450  0.00  0.00    +0.000 OA
ENDBRANCH  18  25
ENDBRANCH  17  21
ENDBRANCH  14  17
ENDBRANCH   1  14
TORSDOF 5
ENDMDL
MODEL 4
REMARK VINA RESULT:    -6.060      3.170      7.109
REMARK INTER + INTRA:          -8.664
REMARK INTER:                  -8.180
REMARK INTRA:                  -0.484
REMARK UNBOUND:                -0.832
REMARK  Name = 
REMARK  6 active torsions:
REMARK  status: ('A' for Active; 'I' for Inactive)
REMARK    1  A    between atoms: C_1  and  O_2
REMARK    2  A    between atoms: O_2  and  C_3
REMARK    3  A    between atoms: C_6  and  O_7
REMARK    4  A    between atoms: O_7  and  C_8
REMARK    5  A    between atoms: C_8  and  C_9
REMARK    6  A    between atoms: C_13  and  C_14
REMARK                            x       y       z     vdW  Elec       q    Type
REMARK                         _______ _______ _______ _____ _____    ______ ____
ROOT
ATOM      1  C   UNL     1      46.759   7.489  12.255  0.00  0.00    +0.000 A 
ATOM      2  C   UNL     1      46.292   8.800  12.157  0.00  0.00    +0.000 A 
ATOM      3  C   UNL     1      44.985   9.040  11.753  0.00  0.00    +0.000 A 
ATOM      4  C   UNL     1      44.166   7.965  11.437  0.00  0.00    +0.000 A 
ATOM      5  C   UNL     1      44.678   6.674  11.535  0.00  0.00    +0.000 A 
ATOM      6  N   UNL     1      45.942   6.436  11.956  0.00  0.00    +0.000 NA
ENDROOT
BRANCH   5   7
ATOM      7  C   UNL     1      43.842   5.495  11.067  0.00  0.00    +0.000 C 
ATOM      8  C   UNL     1      42.784   5.053  12.090  0.00  0.00    +0.000 C 
ATOM      9  C   UNL     1      43.300   4.042  13.112  0.00  0.00    +0.000 C 
ATOM     10  N   UNL     1      43.934   2.897  12.457  0.00  0.00    +0.000 NA
ATOM     11  C   UNL     1      45.107   3.349  11.710  0.00  0.00    +0.000 C 
ATOM     12  C   UNL     1      44.728   4.327  10.598  0.00  0.00    +0.000 C 
ATOM     13  H   UNL     1      43.271   2.460  11.818  0.00  0.00    +0.000 HD
ENDBRANCH   5   7
BRANCH   1  14
ATOM     14  C   UNL     1      48.211   7.205  12.623  0.00  0.00    +0.000 C 
ATOM     15  C   UNL     1      49.283   7.681  11.644  0.00  0.00    +0.000 C 
ATOM     16  C   UNL     1      49.129   8.363  12.962  0.00  0.00    +0.000 C 
BRANCH  14  17
ATOM     17  O   UNL     1      48.521   5.877  13.104  0.00  0.00    +0.000 OA
BRANCH  17  21
ATOM     18  C   UNL     1      47.605   4.729  16.889  0.00  0.00    +0.000 A 
ATOM     19  C   UNL     1      48.592   5.689  16.678  0.00  0.00    +0.000 A 
ATOM     20  N   UNL     1      48.946   6.139  15.439  0.00  0.00    +0.000 NA
ATOM     21  C   UNL     1      48.254   5.573  14.424  0.00  0.00    +0.000 A 
ATOM     22  C   UNL     1      47.262   4.623  14.639  0.00  0.00    +0.000 A 
ATOM     23  N   UNL     1      46.913   4.177  15.870  0.00  0.00    +0.000 NA
BRANCH  18  25
ATOM     24  C   UNL     1      48.547   4.143  18.945  0.00  0.00    +0.000 C 
ATOM     25  O   UNL     1      47.354   4.333  18.186  0.00  0.00    +0.000 OA
ENDBRANCH  18  25
ENDBRANCH  17  21
ENDBRANCH  14  17
ENDBRANCH   1  14
TORSDOF 5
ENDMDL
MODEL 5
REMARK VINA RESULT:    -5.804      3.469      5.823
REMARK INTER + INTRA:          -8.333
REMARK INTER:                  -7.793
REMARK INTRA:                  -0.540
REMARK UNBOUND:                -0.832
REMARK  Name = 
REMARK  6 active torsions:
REMARK  status: ('A' for Active; 'I' for Inactive)
REMARK    1  A    between atoms: C_1  and  O_2
REMARK    2  A    between atoms: O_2  and  C_3
REMARK    3  A    between atoms: C_6  and  O_7
REMARK    4  A    between atoms: O_7  and  C_8
REMARK    5  A    between atoms: C_8  and  C_9
REMARK    6  A    between atoms: C_13  and  C_14
REMARK                            x       y       z     vdW  Elec       q    Type
REMARK                         _______ _______ _______ _____ _____    ______ ____
ROOT
ATOM      1  C   UNL     1      48.644   7.295  15.096  0.00  0.00    +0.000 A 
ATOM      2  C   UNL     1      48.481   8.396  15.938  0.00  0.00    +0.000 A 
ATOM      3  C   UNL     1      48.844   8.304  17.276  0.00  0.00    +0.000 A 
ATOM      4  C   UNL     1      49.351   7.106  17.758  0.00  0.00    +0.000 A 
ATOM      5  C   UNL     1      49.484   6.029  16.886  0.00  0.00    +0.000 A 
ATOM      6  N   UNL     1      49.158   6.124  15.576  0.00  0.00    +0.000 NA
ENDROOT
BRANCH   5   7
ATOM      7  C   UNL     1      49.912   4.673  17.424  0.00  0.00    +0.000 C 
ATOM      8  C   UNL     1      49.008   3.519  16.962  0.00  0.00    +0.000 C 
ATOM      9  C   UNL     1      47.797   3.287  17.862  0.00  0.00    +0.000 C 
ATOM     10  N   UNL     1      48.195   3.138  19.263  0.00  0.00    +0.000 NA
ATOM     11  C   UNL     1      48.813   4.378  19.731  0.00  0.00    +0.000 C 
ATOM     12  C   UNL     1      50.088   4.704  18.953  0.00  0.00    +0.000 C 
ATOM     13  H   UNL     1      48.862   2.372  19.348  0.00  0.00    +0.000 HD
ENDBRANCH   5   7
BRANCH   1  14
ATOM     14  C   UNL     1      48.184   7.349  13.644  0.00  0.00    +0.000 C 
ATOM     15  C   UNL     1      48.874   8.365  12.734  0.00  0.00    +0.000 C 
ATOM     16  C   UNL     1      49.137   6.909  12.549  0.00  0.00    +0.000 C 
BRANCH  14  17
ATOM     17  O   UNL     1      46.759   7.341  13.402  0.00  0.00    +0.000 OA
BRANCH  17  21
ATOM     18  C   UNL     1      45.045   3.956  11.958  0.00  0.00    +0.000 A 
ATOM     19  C   UNL     1      45.172   5.072  11.135  0.00  0.00    +0.000 A 
ATOM     20  N   UNL     1      45.750   6.240  11.540  0.00  0.00    +0.000 NA
ATOM     21  C   UNL     1      46.194   6.226  12.817  0.00  0.00    +0.000 A 
ATOM     22  C   UNL     1      46.076   5.107  13.633  0.00  0.00    +0.000 A 
ATOM     23  N   UNL     1      45.500   3.949  13.229  0.00  0.00    +0.000 NA
BRANCH  18  25
ATOM     24  C   UNL     1      44.357   2.848  10.020  0.00  0.00    +0.000 C 
ATOM     25  O   UNL     1      44.417   2.841  11.446  0.00  0.00    +0.000 OA
ENDBRANCH  18  25
ENDBRANCH  17  21
ENDBRANCH  14  17
ENDBRANCH   1  14
TORSDOF 5
ENDMDL
MODEL 6
REMARK VINA RESULT:    -5.620      3.657      6.646
REMARK INTER + INTRA:          -8.095
REMARK INTER:                  -7.330
REMARK INTRA:                  -0.765
REMARK UNBOUND:                -0.832
REMARK  Name = 
REMARK  6 active torsions:
REMARK  status: ('A' for Active; 'I' for Inactive)
REMARK    1  A    between atoms: C_1  and  O_2
REMARK    2  A    between atoms: O_2  and  C_3
REMARK    3  A    between atoms: C_6  and  O_7
REMARK    4  A    between atoms: O_7  and  C_8
REMARK    5  A    between atoms: C_8  and  C_9
REMARK    6  A    between atoms: C_13  and  C_14
REMARK                            x       y       z     vdW  Elec       q    Type
REMARK                         _______ _______ _______ _____ _____    ______ ____
ROOT
ATOM      1  C   UNL     1      47.767   6.668  13.149  0.00  0.00    +0.000 A 
ATOM      2  C   UNL     1      48.037   6.171  14.424  0.00  0.00    +0.000 A 
ATOM      3  C   UNL     1      47.370   5.041  14.881  0.00  0.00    +0.000 A 
ATOM      4  C   UNL     1      46.428   4.434  14.063  0.00  0.00    +0.000 A 
ATOM      5  C   UNL     1      46.180   4.974  12.803  0.00  0.00    +0.000 A 
ATOM      6  N   UNL     1      46.850   6.056  12.344  0.00  0.00    +0.000 NA
ENDROOT
BRANCH   5   7
ATOM      7  C   UNL     1      45.061   4.403  11.947  0.00  0.00    +0.000 C 
ATOM      8  C   UNL     1      44.614   5.345  10.819  0.00  0.00    +0.000 C 
ATOM      9  C   UNL     1      43.534   6.340  11.240  0.00  0.00    +0.000 C 
ATOM     10  N   UNL     1      42.397   5.661  11.863  0.00  0.00    +0.000 NA
ATOM     11  C   UNL     1      42.836   5.000  13.091  0.00  0.00    +0.000 C 
ATOM     12  C   UNL     1      43.882   3.921  12.812  0.00  0.00    +0.000 C 
ATOM     13  H   UNL     1      42.019   4.967  11.219  0.00  0.00    +0.000 HD
ENDBRANCH   5   7
BRANCH   1  14
ATOM     14  C   UNL     1      48.432   7.948  12.655  0.00  0.00    +0.000 C 
ATOM     15  C   UNL     1      49.960   7.983  12.659  0.00  0.00    +0.000 C 
ATOM     16  C   UNL     1      49.226   7.918  11.363  0.00  0.00    +0.000 C 
BRANCH  14  17
ATOM     17  O   UNL     1      47.898   9.200  13.141  0.00  0.00    +0.000 OA
BRANCH  17  21
ATOM     18  C   UNL     1      44.983  11.015  10.975  0.00  0.00    +0.000 A 
ATOM     19  C   UNL     1      44.670   9.918  11.773  0.00  0.00    +0.000 A 
ATOM     20  N   UNL     1      45.588   9.264  12.542  0.00  0.00    +0.000 NA
ATOM     21  C   UNL     1      46.838   9.773  12.466  0.00  0.00    +0.000 A 
ATOM     22  C   UNL     1      47.147  10.875  11.677  0.00  0.00    +0.000 A 
ATOM     23  N   UNL     1      46.233  11.522  10.913  0.00  0.00    +0.000 NA
BRANCH  18  25
ATOM     24  C   UNL     1      43.169  10.599   9.563  0.00  0.00    +0.000 C 
ATOM     25  O   UNL     1      43.975  11.576  10.220  0.00  0.00    +0.000 OA
ENDBRANCH  18  25
ENDBRANCH  17  21
ENDBRANCH  14  17
ENDBRANCH   1  14
TORSDOF 5
ENDMDL
MODEL 7
REMARK VINA RESULT:    -5.617      3.607      8.015
REMARK INTER + INTRA:          -8.091
REMARK INTER:                  -7.667
REMARK INTRA:                  -0.425
REMARK UNBOUND:                -0.832
REMARK  Name = 
REMARK  6 active torsions:
REMARK  status: ('A' for Active; 'I' for Inactive)
REMARK    1  A    between atoms: C_1  and  O_2
REMARK    2  A    between atoms: O_2  and  C_3
REMARK    3  A    between atoms: C_6  and  O_7
REMARK    4  A    between atoms: O_7  and  C_8
REMARK    5  A    between atoms: C_8  and  C_9
REMARK    6  A    between atoms: C_13  and  C_14
REMARK                            x       y       z     vdW  Elec       q    Type
REMARK                         _______ _______ _______ _____ _____    ______ ____
ROOT
ATOM      1  C   UNL     1      47.356   7.301  12.948  0.00  0.00    +0.000 A 
ATOM      2  C   UNL     1      46.680   8.332  12.295  0.00  0.00    +0.000 A 
ATOM      3  C   UNL     1      45.338   8.182  11.970  0.00  0.00    +0.000 A 
ATOM      4  C   UNL     1      44.694   6.994  12.287  0.00  0.00    +0.000 A 
ATOM      5  C   UNL     1      45.412   5.987  12.926  0.00  0.00    +0.000 A 
ATOM      6  N   UNL     1      46.711   6.141  13.270  0.00  0.00    +0.000 NA
ENDROOT
BRANCH   5   7
ATOM      7  C   UNL     1      44.761   4.633  13.162  0.00  0.00    +0.000 C 
ATOM      8  C   UNL     1      45.410   3.495  12.360  0.00  0.00    +0.000 C 
ATOM      9  C   UNL     1      44.831   3.321  10.958  0.00  0.00    +0.000 C 
ATOM     10  N   UNL     1      43.373   3.196  10.995  0.00  0.00    +0.000 NA
ATOM     11  C   UNL     1      42.790   4.429  11.522  0.00  0.00    +0.000 C 
ATOM     12  C   UNL     1      43.236   4.699  12.959  0.00  0.00    +0.000 C 
ATOM     13  H   UNL     1      43.113   2.413  11.594  0.00  0.00    +0.000 HD
ENDBRANCH   5   7
BRANCH   1  14
ATOM     14  C   UNL     1      48.846   7.414  13.249  0.00  0.00    +0.000 C 
ATOM     15  C   UNL     1      49.799   7.403  12.054  0.00  0.00    +0.000 C 
ATOM     16  C   UNL     1      49.595   8.663  12.824  0.00  0.00    +0.000 C 
BRANCH  14  17
ATOM     17  O   UNL     1      49.369   6.593  14.318  0.00  0.00    +0.000 OA
BRANCH  17  21
ATOM     18  C   UNL     1      48.309   7.142  18.199  0.00  0.00    +0.000 A 
ATOM     19  C   UNL     1      48.663   8.238  17.417  0.00  0.00    +0.000 A 
ATOM     20  N   UNL     1      49.016   8.139  16.102  0.00  0.00    +0.000 NA
ATOM     21  C   UNL     1      48.992   6.878  15.615  0.00  0.00    +0.000 A 
ATOM     22  C   UNL     1      48.627   5.786  16.394  0.00  0.00    +0.000 A 
ATOM     23  N   UNL     1      48.279   5.887  17.700  0.00  0.00    +0.000 NA
BRANCH  18  25
ATOM     24  C   UNL     1      48.474   6.328  20.382  0.00  0.00    +0.000 C 
ATOM     25  O   UNL     1      47.999   7.363  19.523  0.00  0.00    +0.000 OA
ENDBRANCH  18  25
ENDBRANCH  17  21
ENDBRANCH  14  17
ENDBRANCH   1  14
TORSDOF 5
ENDMDL
MODEL 8
REMARK VINA RESULT:    -5.049      5.335      8.374
REMARK INTER + INTRA:          -7.357
REMARK INTER:                  -6.854
REMARK INTRA:                  -0.503
REMARK UNBOUND:                -0.832
REMARK  Name = 
REMARK  6 active torsions:
REMARK  status: ('A' for Active; 'I' for Inactive)
REMARK    1  A    between atoms: C_1  and  O_2
REMARK    2  A    between atoms: O_2  and  C_3
REMARK    3  A    between atoms: C_6  and  O_7
REMARK    4  A    between atoms: O_7  and  C_8
REMARK    5  A    between atoms: C_8  and  C_9
REMARK    6  A    between atoms: C_13  and  C_14
REMARK                            x       y       z     vdW  Elec       q    Type
REMARK                         _______ _______ _______ _____ _____    ______ ____
ROOT
ATOM      1  C   UNL     1      48.286   5.679  15.530  0.00  0.00    +0.000 A 
ATOM      2  C   UNL     1      47.534   4.536  15.798  0.00  0.00    +0.000 A 
ATOM      3  C   UNL     1      46.669   4.035  14.834  0.00  0.00    +0.000 A 
ATOM      4  C   UNL     1      46.555   4.695  13.618  0.00  0.00    +0.000 A 
ATOM      5  C   UNL     1      47.315   5.842  13.399  0.00  0.00    +0.000 A 
ATOM      6  N   UNL     1      48.180   6.315  14.326  0.00  0.00    +0.000 NA
ENDROOT
BRANCH   5   7
ATOM      7  C   UNL     1      47.106   6.651  12.130  0.00  0.00    +0.000 C 
ATOM      8  C   UNL     1      46.997   8.163  12.380  0.00  0.00    +0.000 C 
ATOM      9  C   UNL     1      45.578   8.634  12.693  0.00  0.00    +0.000 C 
ATOM     10  N   UNL     1      44.630   8.183  11.673  0.00  0.00    +0.000 NA
ATOM     11  C   UNL     1      44.577   6.721  11.667  0.00  0.00    +0.000 C 
ATOM     12  C   UNL     1      45.928   6.106  11.302  0.00  0.00    +0.000 C 
ATOM     13  H   UNL     1      44.930   8.516  10.757  0.00  0.00    +0.000 HD
ENDBRANCH   5   7
BRANCH   1  14
ATOM     14  C   UNL     1      49.185   6.289  16.600  0.00  0.00    +0.000 C 
ATOM     15  C   UNL     1      48.829   7.692  17.090  0.00  0.00    +0.000 C 
ATOM     16  C   UNL     1      48.629   6.521  17.991  0.00  0.00    +0.000 C 
BRANCH  14  17
ATOM     17  O   UNL     1      50.613   6.169  16.408  0.00  0.00    +0.000 OA
BRANCH  17  21
ATOM     18  C   UNL     1      52.739   3.432  18.524  0.00  0.00    +0.000 A 
ATOM     19  C   UNL     1      51.577   3.044  17.860  0.00  0.00    +0.000 A 
ATOM     20  N   UNL     1      50.817   3.899  17.116  0.00  0.00    +0.000 NA
ATOM     21  C   UNL     1      51.288   5.166  17.074  0.00  0.00    +0.000 A 
ATOM     22  C   UNL     1      52.453   5.549  17.728  0.00  0.00    +0.000 A 
ATOM     23  N   UNL     1      53.205   4.698  18.468  0.00  0.00    +0.000 NA
BRANCH  18  25
ATOM     24  C   UNL     1      54.111   3.047  20.374  0.00  0.00    +0.000 C 
ATOM     25  O   UNL     1      53.408   2.484  19.268  0.00  0.00    +0.000 OA
ENDBRANCH  18  25
ENDBRANCH  17  21
ENDBRANCH  14  17
ENDBRANCH   1  14
TORSDOF 5
ENDMDL
MODEL 9
REMARK VINA RESULT:    -5.019      3.411      4.958
REMARK INTER + INTRA:          -7.318
REMARK INTER:                  -7.230
REMARK INTRA:                  -0.088
REMARK UNBOUND:                -0.832
REMARK  Name = 
REMARK  6 active torsions:
REMARK  status: ('A' for Active; 'I' for Inactive)
REMARK    1  A    between atoms: C_1  and  O_2
REMARK    2  A    between atoms: O_2  and  C_3
REMARK    3  A    between atoms: C_6  and  O_7
REMARK    4  A    between atoms: O_7  and  C_8
REMARK    5  A    between atoms: C_8  and  C_9
REMARK    6  A    between atoms: C_13  and  C_14
REMARK                            x       y       z     vdW  Elec       q    Type
REMARK                         _______ _______ _______ _____ _____    ______ ____
ROOT
ATOM      1  C   UNL     1      47.599   5.107  15.202  0.00  0.00    +0.000 A 
ATOM      2  C   UNL     1      47.476   3.718  15.149  0.00  0.00    +0.000 A 
ATOM      3  C   UNL     1      47.844   2.949  16.246  0.00  0.00    +0.000 A 
ATOM      4  C   UNL     1      48.346   3.578  17.376  0.00  0.00    +0.000 A 
ATOM      5  C   UNL     1      48.464   4.965  17.380  0.00  0.00    +0.000 A 
ATOM      6  N   UNL     1      48.079   5.719  16.324  0.00  0.00    +0.000 NA
ENDROOT
BRANCH   5   7
ATOM      7  C   UNL     1      49.133   5.660  18.555  0.00  0.00    +0.000 C 
ATOM      8  C   UNL     1      48.599   5.201  19.921  0.00  0.00    +0.000 C 
ATOM      9  C   UNL     1      47.374   5.979  20.397  0.00  0.00    +0.000 C 
ATOM     10  N   UNL     1      47.614   7.423  20.365  0.00  0.00    +0.000 NA
ATOM     11  C   UNL     1      47.852   7.849  18.987  0.00  0.00    +0.000 C 
ATOM     12  C   UNL     1      49.099   7.191  18.397  0.00  0.00    +0.000 C 
ATOM     13  H   UNL     1      48.430   7.645  20.936  0.00  0.00    +0.000 HD
ENDBRANCH   5   7
BRANCH   1  14
ATOM     14  C   UNL     1      47.272   5.965  13.986  0.00  0.00    +0.000 C 
ATOM     15  C   UNL     1      47.983   7.314  13.876  0.00  0.00    +0.000 C 
ATOM     16  C   UNL     1      48.344   6.208  12.942  0.00  0.00    +0.000 C 
BRANCH  14  17
ATOM     17  O   UNL     1      45.877   6.100  13.628  0.00  0.00    +0.000 OA
BRANCH  17  21
ATOM     18  C   UNL     1      44.454   3.546  10.812  0.00  0.00    +0.000 A 
ATOM     19  C   UNL     1      44.269   3.259  12.162  0.00  0.00    +0.000 A 
ATOM     20  N   UNL     1      44.702   4.074  13.168  0.00  0.00    +0.000 NA
ATOM     21  C   UNL     1      45.331   5.192  12.743  0.00  0.00    +0.000 A 
ATOM     22  C   UNL     1      45.506   5.481  11.394  0.00  0.00    +0.000 A 
ATOM     23  N   UNL     1      45.076   4.670  10.398  0.00  0.00    +0.000 NA
BRANCH  18  25
ATOM     24  C   UNL     1      44.939   2.382   8.844  0.00  0.00    +0.000 C 
ATOM     25  O   UNL     1      43.997   2.632   9.887  0.00  0.00    +0.000 OA
ENDBRANCH  18  25
ENDBRANCH  17  21
ENDBRANCH  14  17
ENDBRANCH   1  14
TORSDOF 5
ENDMDL
