MODEL 1
REMARK VINA RESULT:    -7.460      0.000      0.000
REMARK INTER + INTRA:         -11.196
REMARK INTER:                 -10.295
REMARK INTRA:                  -0.902
REMARK UNBOUND:                -0.902
REMARK  Name = 
REMARK  7 active torsions:
REMARK  status: ('A' for Active; 'I' for Inactive)
REMARK    1  A    between atoms: N_1  and  C_2
REMARK    2  A    between atoms: C_2  and  C_3
REMARK    3  A    between atoms: C_7  and  O_8
REMARK    4  A    between atoms: O_8  and  C_9
REMARK    5  A    between atoms: C_9  and  C_10
REMARK    6  A    between atoms: C_10  and  C_11
REMARK    7  A    between atoms: C_15  and  C_16
REMARK                            x       y       z     vdW  Elec       q    Type
REMARK                         _______ _______ _______ _____ _____    ______ ____
ROOT
ATOM      1  C   UNL     1      43.215   4.187  11.253  0.00  0.00    +0.000 C 
ENDROOT
BRANCH   1   2
ATOM      2  O   UNL     1      43.536   4.464  12.618  0.00  0.00    +0.000 OA
BRANCH   2   7
ATOM      3  C   UNL     1      45.828   7.306  12.612  0.00  0.00    +0.000 A 
ATOM      4  C   UNL     1      46.980   6.747  13.184  0.00  0.00    +0.000 A 
ATOM      5  C   UNL     1      47.001   5.408  13.568  0.00  0.00    +0.000 A 
ATOM      6  C   UNL     1      45.868   4.611  13.393  0.00  0.00    +0.000 A 
ATOM      7  C   UNL     1      44.708   5.146  12.830  0.00  0.00    +0.000 A 
ATOM      8  C   UNL     1      44.696   6.492  12.441  0.00  0.00    +0.000 A 
BRANCH   3   9
ATOM      9  C   UNL     1      45.803   8.765  12.231  0.00  0.00    +0.000 C 
BRANCH   9  10
ATOM     10  N   UNL     1      44.698   9.475  12.867  0.00  0.00    +0.000 NA
ATOM     11  H   UNL     1      44.007   9.716  12.160  0.00  0.00    +0.000 HD
ATOM     12  H   UNL     1      45.048  10.356  13.241  0.00  0.00    +0.000 HD
ENDBRANCH   9  10
ENDBRANCH   3   9
ENDBRANCH   2   7
ENDBRANCH   1   2
BRANCH   1  13
ATOM     13  C   UNL     1      43.885   2.884  10.820  0.00  0.00    +0.000 C 
BRANCH  13  14
ATOM     14  C   UNL     1      44.802   3.112   9.642  0.00  0.00    +0.000 A 
ATOM     15  C   UNL     1      45.069   4.411   9.188  0.00  0.00    +0.000 A 
ATOM     16  C   UNL     1      45.941   4.622   8.117  0.00  0.00    +0.000 A 
ATOM     17  C   UNL     1      46.571   3.539   7.504  0.00  0.00    +0.000 A 
ATOM     18  C   UNL     1      46.340   2.239   7.968  0.00  0.00    +0.000 A 
ATOM     19  C   UNL     1      45.442   2.027   9.023  0.00  0.00    +0.000 A 
BRANCH  18  20
ATOM     20  C   UNL     1      47.074   1.121   7.318  0.00  0.00    +0.000 C 
ATOM     21  N   UNL     1      46.678  -0.152   7.625  0.00  0.00    +0.000 N 
ATOM     22  O   UNL     1      48.029   1.320   6.577  0.00  0.00    +0.000 OA
ATOM     23  H   UNL     1      46.067  -0.362   8.399  0.00  0.00    +0.000 HD
ATOM     24  H   UNL     1      47.271  -0.896   7.280  0.00  0.00    +0.000 HD
ENDBRANCH  18  20
ENDBRANCH  13  14
ENDBRANCH   1  13
TORSDOF 7
ENDMDL
MODEL 2
REMARK VINA RESULT:    -7.438      1.736      6.530
REMARK INTER + INTRA:         -11.166
REMARK INTER:                 -10.295
REMARK INTRA:                  -0.871
REMARK UNBOUND:                -0.902
REMARK  Name = 
REMARK  7 active torsions:
REMARK  status: ('A' for Active; 'I' for Inactive)
REMARK    1  A    between atoms: N_1  and  C_2
REMARK    2  A    between atoms: C_2  and  C_3
REMARK    3  A    between atoms: C_7  and  O_8
REMARK    4  A    between atoms: O_8  and  C_9
REMARK    5  A    between atoms: C_9  and  C_10
REMARK    6  A    between atoms: C_10  and  C_11
REMARK    7  A    between atoms: C_15  and  C_16
REMARK                            x       y       z     vdW  Elec       q    Type
REMARK                         _______ _______ _______ _____ _____    ______ ____
ROOT
ATOM      1  C   UNL     1      43.405   3.359  11.253  0.00  0.00    +0.000 C 
ENDROOT
BRANCH   1   2
ATOM      2  O   UNL     1      43.904   2.388  10.332  0.00  0.00    +0.000 OA
BRANCH   2   7
ATOM      3  C   UNL     1      46.469   2.216   7.739  0.00  0.00    +0.000 A 
ATOM      4  C   UNL     1      46.634   3.568   7.409  0.00  0.00    +0.000 A 
ATOM      5  C   UNL     1      45.892   4.551   8.059  0.00  0.00    +0.000 A 
ATOM      6  C   UNL     1      44.971   4.196   9.045  0.00  0.00    +0.000 A 
ATOM      7  C   UNL     1      44.784   2.856   9.389  0.00  0.00    +0.000 A 
ATOM      8  C   UNL     1      45.538   1.873   8.734  0.00  0.00    +0.000 A 
BRANCH   3   9
ATOM      9  C   UNL     1      47.250   1.155   7.005  0.00  0.00    +0.000 C 
BRANCH   9  10
ATOM     10  N   UNL     1      48.417   1.710   6.326  0.00  0.00    +0.000 NA
ATOM     11  H   UNL     1      48.109   2.405   5.650  0.00  0.00    +0.000 HD
ATOM     12  H   UNL     1      48.867   0.967   5.792  0.00  0.00    +0.000 HD
ENDBRANCH   9  10
ENDBRANCH   3   9
ENDBRANCH   2   7
ENDBRANCH   1   2
BRANCH   1  13
ATOM     13  C   UNL     1      44.207   3.298  12.552  0.00  0.00    +0.000 C 
BRANCH  13  14
ATOM     14  C   UNL     1      45.050   4.539  12.727  0.00  0.00    +0.000 A 
ATOM     15  C   UNL     1      46.331   4.457  13.289  0.00  0.00    +0.000 A 
ATOM     16  C   UNL     1      47.122   5.600  13.422  0.00  0.00    +0.000 A 
ATOM     17  C   UNL     1      46.648   6.834  12.974  0.00  0.00    +0.000 A 
ATOM     18  C   UNL     1      45.385   6.926  12.380  0.00  0.00    +0.000 A 
ATOM     19  C   UNL     1      44.581   5.783  12.275  0.00  0.00    +0.000 A 
BRANCH  18  20
ATOM     20  C   UNL     1      44.943   8.252  11.871  0.00  0.00    +0.000 C 
ATOM     21  N   UNL     1      43.781   8.292  11.151  0.00  0.00    +0.000 N 
ATOM     22  O   UNL     1      45.612   9.264  12.040  0.00  0.00    +0.000 OA
ATOM     23  H   UNL     1      43.333   7.464  10.790  0.00  0.00    +0.000 HD
ATOM     24  H   UNL     1      43.567   9.174  10.702  0.00  0.00    +0.000 HD
ENDBRANCH  18  20
ENDBRANCH  13  14
ENDBRANCH   1  13
TORSDOF 7
ENDMDL
MODEL 3
REMARK VINA RESULT:    -7.396      1.743      2.304
REMARK INTER + INTRA:         -11.108
REMARK INTER:                 -10.235
REMARK INTRA:                  -0.873
REMARK UNBOUND:                -0.902
REMARK  Name = 
REMARK  7 active torsions:
REMARK  status: ('A' for Active; 'I' for Inactive)
REMARK    1  A    between atoms: N_1  and  C_2
REMARK    2  A    between atoms: C_2  and  C_3
REMARK    3  A    between atoms: C_7  and  O_8
REMARK    4  A    between atoms: O_8  and  C_9
REMARK    5  A    between atoms: C_9  and  C_10
REMARK    6  A    between atoms: C_10  and  C_11
REMARK    7  A    between atoms: C_15  and  C_16
REMARK                            x       y       z     vdW  Elec       q    Type
REMARK                         _______ _______ _______ _____ _____    ______ ____
ROOT
ATOM      1  C   UNL     1      43.212   4.314  11.043  0.00  0.00    +0.000 C 
ENDROOT
BRANCH   1   2
ATOM      2  O   UNL     1      43.498   4.621  12.410  0.00  0.00    +0.000 OA
BRANCH   2   7
ATOM      3  C   UNL     1      46.726   5.164  14.027  0.00  0.00    +0.000 A 
ATOM      4  C   UNL     1      47.229   6.255  13.304  0.00  0.00    +0.000 A 
ATOM      5  C   UNL     1      46.485   6.824  12.273  0.00  0.00    +0.000 A 
ATOM      6  C   UNL     1      45.231   6.307  11.946  0.00  0.00    +0.000 A 
ATOM      7  C   UNL     1      44.710   5.218  12.647  0.00  0.00    +0.000 A 
ATOM      8  C   UNL     1      45.462   4.655  13.687  0.00  0.00    +0.000 A 
BRANCH   3   9
ATOM      9  C   UNL     1      47.552   4.532  15.118  0.00  0.00    +0.000 C 
BRANCH   9  10
ATOM     10  N   UNL     1      47.649   3.084  14.959  0.00  0.00    +0.000 NA
ATOM     11  H   UNL     1      46.733   2.715  14.714  0.00  0.00    +0.000 HD
ATOM     12  H   UNL     1      47.896   2.673  15.858  0.00  0.00    +0.000 HD
ENDBRANCH   9  10
ENDBRANCH   3   9
ENDBRANCH   2   7
ENDBRANCH   1   2
BRANCH   1  13
ATOM     13  C   UNL     1      43.864   2.984  10.667  0.00  0.00    +0.000 C 
BRANCH  13  14
ATOM     14  C   UNL     1      44.811   3.156   9.503  0.00  0.00    +0.000 A 
ATOM     15  C   UNL     1      45.111   4.433   9.011  0.00  0.00    +0.000 A 
ATOM     16  C   UNL     1      46.009   4.594   7.955  0.00  0.00    +0.000 A 
ATOM     17  C   UNL     1      46.634   3.480   7.393  0.00  0.00    +0.000 A 
ATOM     18  C   UNL     1      46.370   2.200   7.896  0.00  0.00    +0.000 A 
ATOM     19  C   UNL     1      45.446   2.040   8.937  0.00  0.00    +0.000 A 
BRANCH  18  20
ATOM     20  C   UNL     1      47.098   1.048   7.301  0.00  0.00    +0.000 C 
ATOM     21  N   UNL     1      46.693  -0.206   7.666  0.00  0.00    +0.000 N 
ATOM     22  O   UNL     1      48.057   1.206   6.555  0.00  0.00    +0.000 OA
ATOM     23  H   UNL     1      46.078  -0.376   8.447  0.00  0.00    +0.000 HD
ATOM     24  H   UNL     1      47.282  -0.970   7.358  0.00  0.00    +0.000 HD
ENDBRANCH  18  20
ENDBRANCH  13  14
ENDBRANCH   1  13
TORSDOF 7
ENDMDL
MODEL 4
REMARK VINA RESULT:    -6.945      2.210      6.481
REMARK INTER + INTRA:         -10.485
REMARK INTER:                 -10.447
REMARK INTRA:                  -0.038
REMARK UNBOUND:                -0.902
REMARK  Name = 
REMARK  7 active torsions:
REMARK  status: ('A' for Active; 'I' for Inactive)
REMARK    1  A    between atoms: N_1  and  C_2
REMARK    2  A    between atoms: C_2  and  C_3
REMARK    3  A    between atoms: C_7  and  O_8
REMARK    4  A    between atoms: O_8  and  C_9
REMARK    5  A    between atoms: C_9  and  C_10
REMARK    6  A    between atoms: C_10  and  C_11
REMARK    7  A    between atoms: C_15  and  C_16
REMARK                            x       y       z     vdW  Elec       q    Type
REMARK                         _______ _______ _______ _____ _____    ______ ____
ROOT
ATOM      1  C   UNL     1      43.862   3.295  11.237  0.00  0.00    +0.000 C 
ENDROOT
BRANCH   1   2
ATOM      2  O   UNL     1      43.716   2.715   9.938  0.00  0.00    +0.000 OA
BRANCH   2   7
ATOM      3  C   UNL     1      46.566   1.959   7.786  0.00  0.00    +0.000 A 
ATOM      4  C   UNL     1      46.862   3.219   7.248  0.00  0.00    +0.000 A 
ATOM      5  C   UNL     1      46.113   4.336   7.609  0.00  0.00    +0.000 A 
ATOM      6  C   UNL     1      45.054   4.208   8.509  0.00  0.00    +0.000 A 
ATOM      7  C   UNL     1      44.736   2.963   9.055  0.00  0.00    +0.000 A 
ATOM      8  C   UNL     1      45.497   1.845   8.691  0.00  0.00    +0.000 A 
BRANCH   3   9
ATOM      9  C   UNL     1      47.359   0.748   7.362  0.00  0.00    +0.000 C 
BRANCH   9  10
ATOM     10  N   UNL     1      46.695  -0.497   7.733  0.00  0.00    +0.000 NA
ATOM     11  H   UNL     1      45.798  -0.550   7.255  0.00  0.00    +0.000 HD
ATOM     12  H   UNL     1      46.489  -0.472   8.731  0.00  0.00    +0.000 HD
ENDBRANCH   9  10
ENDBRANCH   3   9
ENDBRANCH   2   7
ENDBRANCH   1   2
BRANCH   1  13
ATOM     13  C   UNL     1      44.113   4.796  11.105  0.00  0.00    +0.000 C 
BRANCH  13  14
ATOM     14  C   UNL     1      45.350   5.207  11.868  0.00  0.00    +0.000 A 
ATOM     15  C   UNL     1      46.081   6.339  11.484  0.00  0.00    +0.000 A 
ATOM     16  C   UNL     1      47.208   6.736  12.207  0.00  0.00    +0.000 A 
ATOM     17  C   UNL     1      47.603   6.016  13.335  0.00  0.00    +0.000 A 
ATOM     18  C   UNL     1      46.864   4.903  13.751  0.00  0.00    +0.000 A 
ATOM     19  C   UNL     1      45.751   4.489  13.006  0.00  0.00    +0.000 A 
BRANCH  18  20
ATOM     20  C   UNL     1      47.292   4.197  14.988  0.00  0.00    +0.000 C 
ATOM     21  N   UNL     1      47.282   4.912  16.154  0.00  0.00    +0.000 N 
ATOM     22  O   UNL     1      47.690   3.039  14.966  0.00  0.00    +0.000 OA
ATOM     23  H   UNL     1      47.193   5.917  16.178  0.00  0.00    +0.000 HD
ATOM     24  H   UNL     1      47.700   4.460  16.956  0.00  0.00    +0.000 HD
ENDBRANCH  18  20
ENDBRANCH  13  14
ENDBRANCH   1  13
TORSDOF 7
ENDMDL
MODEL 5
REMARK VINA RESULT:    -6.607      2.387      6.981
REMARK INTER + INTRA:         -10.019
REMARK INTER:                  -9.349
REMARK INTRA:                  -0.670
REMARK UNBOUND:                -0.902
REMARK  Name = 
REMARK  7 active torsions:
REMARK  status: ('A' for Active; 'I' for Inactive)
REMARK    1  A    between atoms: N_1  and  C_2
REMARK    2  A    between atoms: C_2  and  C_3
REMARK    3  A    between atoms: C_7  and  O_8
REMARK    4  A    between atoms: O_8  and  C_9
REMARK    5  A    between atoms: C_9  and  C_10
REMARK    6  A    between atoms: C_10  and  C_11
REMARK    7  A    between atoms: C_15  and  C_16
REMARK                            x       y       z     vdW  Elec       q    Type
REMARK                         _______ _______ _______ _____ _____    ______ ____
ROOT
ATOM      1  C   UNL     1      44.304   4.843  10.189  0.00  0.00    +0.000 C 
ENDROOT
BRANCH   1   2
ATOM      2  O   UNL     1      44.223   4.473   8.811  0.00  0.00    +0.000 OA
BRANCH   2   7
ATOM      3  C   UNL     1      46.677   2.609   6.852  0.00  0.00    +0.000 A 
ATOM      4  C   UNL     1      46.670   1.363   7.495  0.00  0.00    +0.000 A 
ATOM      5  C   UNL     1      45.836   1.134   8.586  0.00  0.00    +0.000 A 
ATOM      6  C   UNL     1      45.000   2.149   9.054  0.00  0.00    +0.000 A 
ATOM      7  C   UNL     1      44.992   3.400   8.435  0.00  0.00    +0.000 A 
ATOM      8  C   UNL     1      45.830   3.621   7.334  0.00  0.00    +0.000 A 
BRANCH   3   9
ATOM      9  C   UNL     1      47.609   2.860   5.694  0.00  0.00    +0.000 C 
BRANCH   9  10
ATOM     10  N   UNL     1      48.594   1.792   5.546  0.00  0.00    +0.000 NA
ATOM     11  H   UNL     1      48.110   0.898   5.506  0.00  0.00    +0.000 HD
ATOM     12  H   UNL     1      49.178   1.768   6.380  0.00  0.00    +0.000 HD
ENDBRANCH   9  10
ENDBRANCH   3   9
ENDBRANCH   2   7
ENDBRANCH   1   2
BRANCH   1  13
ATOM     13  C   UNL     1      45.559   5.681  10.425  0.00  0.00    +0.000 C 
BRANCH  13  14
ATOM     14  C   UNL     1      46.099   5.466  11.819  0.00  0.00    +0.000 A 
ATOM     15  C   UNL     1      45.763   4.315  12.543  0.00  0.00    +0.000 A 
ATOM     16  C   UNL     1      46.286   4.102  13.820  0.00  0.00    +0.000 A 
ATOM     17  C   UNL     1      47.169   5.028  14.377  0.00  0.00    +0.000 A 
ATOM     18  C   UNL     1      47.541   6.166  13.653  0.00  0.00    +0.000 A 
ATOM     19  C   UNL     1      46.991   6.392  12.383  0.00  0.00    +0.000 A 
BRANCH  18  20
ATOM     20  C   UNL     1      48.524   7.098  14.265  0.00  0.00    +0.000 C 
ATOM     21  N   UNL     1      48.205   8.428  14.277  0.00  0.00    +0.000 N 
ATOM     22  O   UNL     1      49.603   6.708  14.695  0.00  0.00    +0.000 OA
ATOM     23  H   UNL     1      47.451   8.814  13.729  0.00  0.00    +0.000 HD
ATOM     24  H   UNL     1      48.939   9.058  14.574  0.00  0.00    +0.000 HD
ENDBRANCH  18  20
ENDBRANCH  13  14
ENDBRANCH   1  13
TORSDOF 7
ENDMDL
MODEL 6
REMARK VINA RESULT:    -6.572      1.542      2.014
REMARK INTER + INTRA:          -9.971
REMARK INTER:                  -9.275
REMARK INTRA:                  -0.696
REMARK UNBOUND:                -0.902
REMARK  Name = 
REMARK  7 active torsions:
REMARK  status: ('A' for Active; 'I' for Inactive)
REMARK    1  A    between atoms: N_1  and  C_2
REMARK    2  A    between atoms: C_2  and  C_3
REMARK    3  A    between atoms: C_7  and  O_8
REMARK    4  A    between atoms: O_8  and  C_9
REMARK    5  A    between atoms: C_9  and  C_10
REMARK    6  A    between atoms: C_10  and  C_11
REMARK    7  A    between atoms: C_15  and  C_16
REMARK                            x       y       z     vdW  Elec       q    Type
REMARK                         _______ _______ _______ _____ _____    ______ ____
ROOT
ATOM      1  C   UNL     1      43.606   4.695  10.439  0.00  0.00    +0.000 C 
ENDROOT
BRANCH   1   2
ATOM      2  O   UNL     1      43.724   5.718  11.430  0.00  0.00    +0.000 OA
BRANCH   2   7
ATOM      3  C   UNL     1      46.700   7.027  13.091  0.00  0.00    +0.000 A 
ATOM      4  C   UNL     1      47.216   5.877  13.704  0.00  0.00    +0.000 A 
ATOM      5  C   UNL     1      46.575   4.649  13.559  0.00  0.00    +0.000 A 
ATOM      6  C   UNL     1      45.405   4.555  12.804  0.00  0.00    +0.000 A 
ATOM      7  C   UNL     1      44.869   5.687  12.187  0.00  0.00    +0.000 A 
ATOM      8  C   UNL     1      45.523   6.917  12.333  0.00  0.00    +0.000 A 
BRANCH   3   9
ATOM      9  C   UNL     1      47.382   8.358  13.283  0.00  0.00    +0.000 C 
BRANCH   9  10
ATOM     10  N   UNL     1      47.202   8.873  14.637  0.00  0.00    +0.000 NA
ATOM     11  H   UNL     1      47.008   8.095  15.264  0.00  0.00    +0.000 HD
ATOM     12  H   UNL     1      46.377   9.470  14.653  0.00  0.00    +0.000 HD
ENDBRANCH   9  10
ENDBRANCH   3   9
ENDBRANCH   2   7
ENDBRANCH   1   2
BRANCH   1  13
ATOM     13  C   UNL     1      44.610   4.947   9.316  0.00  0.00    +0.000 C 
BRANCH  13  14
ATOM     14  C   UNL     1      45.193   3.648   8.810  0.00  0.00    +0.000 A 
ATOM     15  C   UNL     1      44.758   2.422   9.329  0.00  0.00    +0.000 A 
ATOM     16  C   UNL     1      45.275   1.221   8.840  0.00  0.00    +0.000 A 
ATOM     17  C   UNL     1      46.217   1.233   7.811  0.00  0.00    +0.000 A 
ATOM     18  C   UNL     1      46.637   2.448   7.258  0.00  0.00    +0.000 A 
ATOM     19  C   UNL     1      46.138   3.654   7.772  0.00  0.00    +0.000 A 
BRANCH  18  20
ATOM     20  C   UNL     1      47.603   2.411   6.129  0.00  0.00    +0.000 C 
ATOM     21  N   UNL     1      47.426   3.318   5.121  0.00  0.00    +0.000 N 
ATOM     22  O   UNL     1      48.492   1.570   6.068  0.00  0.00    +0.000 OA
ATOM     23  H   UNL     1      46.581   3.859   5.015  0.00  0.00    +0.000 HD
ATOM     24  H   UNL     1      48.007   3.192   4.302  0.00  0.00    +0.000 HD
ENDBRANCH  18  20
ENDBRANCH  13  14
ENDBRANCH   1  13
TORSDOF 7
ENDMDL
MODEL 7
REMARK VINA RESULT:    -6.450      2.564      6.776
REMARK INTER + INTRA:          -9.803
REMARK INTER:                  -9.289
REMARK INTRA:                  -0.514
REMARK UNBOUND:                -0.902
REMARK  Name = 
REMARK  7 active torsions:
REMARK  status: ('A' for Active; 'I' for Inactive)
REMARK    1  A    between atoms: N_1  and  C_2
REMARK    2  A    between atoms: C_2  and  C_3
REMARK    3  A    between atoms: C_7  and  O_8
REMARK    4  A    between atoms: O_8  and  C_9
REMARK    5  A    between atoms: C_9  and  C_10
REMARK    6  A    between atoms: C_10  and  C_11
REMARK    7  A    between atoms: C_15  and  C_16
REMARK                            x       y       z     vdW  Elec       q    Type
REMARK                         _______ _______ _______ _____ _____    ______ ____
ROOT
ATOM      1  C   UNL     1      45.052   5.275  10.295  0.00  0.00    +0.000 C 
ENDROOT
BRANCH   1   2
ATOM      2  O   UNL     1      45.350   5.007   8.923  0.00  0.00    +0.000 OA
BRANCH   2   7
ATOM      3  C   UNL     1      46.963   2.191   7.252  0.00  0.00    +0.000 A 
ATOM      4  C   UNL     1      46.299   1.098   7.827  0.00  0.00    +0.000 A 
ATOM      5  C   UNL     1      45.297   1.296   8.773  0.00  0.00    +0.000 A 
ATOM      6  C   UNL     1      44.949   2.590   9.164  0.00  0.00    +0.000 A 
ATOM      7  C   UNL     1      45.599   3.695   8.611  0.00  0.00    +0.000 A 
ATOM      8  C   UNL     1      46.602   3.487   7.655  0.00  0.00    +0.000 A 
BRANCH   3   9
ATOM      9  C   UNL     1      48.071   1.965   6.255  0.00  0.00    +0.000 C 
BRANCH   9  10
ATOM     10  N   UNL     1      48.023   2.929   5.159  0.00  0.00    +0.000 NA
ATOM     11  H   UNL     1      47.410   2.572   4.430  0.00  0.00    +0.000 HD
ATOM     12  H   UNL     1      48.952   3.001   4.746  0.00  0.00    +0.000 HD
ENDBRANCH   9  10
ENDBRANCH   3   9
ENDBRANCH   2   7
ENDBRANCH   1   2
BRANCH   1  13
ATOM     13  C   UNL     1      45.580   6.657  10.677  0.00  0.00    +0.000 C 
BRANCH  13  14
ATOM     14  C   UNL     1      46.483   6.576  11.885  0.00  0.00    +0.000 A 
ATOM     15  C   UNL     1      47.327   7.645  12.216  0.00  0.00    +0.000 A 
ATOM     16  C   UNL     1      48.139   7.582  13.351  0.00  0.00    +0.000 A 
ATOM     17  C   UNL     1      48.099   6.459  14.177  0.00  0.00    +0.000 A 
ATOM     18  C   UNL     1      47.237   5.399  13.878  0.00  0.00    +0.000 A 
ATOM     19  C   UNL     1      46.445   5.451  12.723  0.00  0.00    +0.000 A 
BRANCH  18  20
ATOM     20  C   UNL     1      47.191   4.245  14.816  0.00  0.00    +0.000 C 
ATOM     21  N   UNL     1      47.025   4.523  16.145  0.00  0.00    +0.000 N 
ATOM     22  O   UNL     1      47.347   3.093  14.430  0.00  0.00    +0.000 OA
ATOM     23  H   UNL     1      47.132   5.450  16.527  0.00  0.00    +0.000 HD
ATOM     24  H   UNL     1      47.129   3.740  16.778  0.00  0.00    +0.000 HD
ENDBRANCH  18  20
ENDBRANCH  13  14
ENDBRANCH   1  13
TORSDOF 7
ENDMDL
MODEL 8
REMARK VINA RESULT:    -6.331      5.501      7.968
REMARK INTER + INTRA:          -9.638
REMARK INTER:                  -9.259
REMARK INTRA:                  -0.380
REMARK UNBOUND:                -0.902
REMARK  Name = 
REMARK  7 active torsions:
REMARK  status: ('A' for Active; 'I' for Inactive)
REMARK    1  A    between atoms: N_1  and  C_2
REMARK    2  A    between atoms: C_2  and  C_3
REMARK    3  A    between atoms: C_7  and  O_8
REMARK    4  A    between atoms: O_8  and  C_9
REMARK    5  A    between atoms: C_9  and  C_10
REMARK    6  A    between atoms: C_10  and  C_11
REMARK    7  A    between atoms: C_15  and  C_16
REMARK                            x       y       z     vdW  Elec       q    Type
REMARK                         _______ _______ _______ _____ _____    ______ ____
ROOT
ATOM      1  C   UNL     1      47.270   4.196  15.598  0.00  0.00    +0.000 C 
ENDROOT
BRANCH   1   2
ATOM      2  O   UNL     1      47.068   3.425  14.411  0.00  0.00    +0.000 OA
BRANCH   2   7
ATOM      3  C   UNL     1      44.842   3.930  11.562  0.00  0.00    +0.000 A 
ATOM      4  C   UNL     1      45.155   5.243  11.182  0.00  0.00    +0.000 A 
ATOM      5  C   UNL     1      46.123   5.968  11.873  0.00  0.00    +0.000 A 
ATOM      6  C   UNL     1      46.787   5.393  12.958  0.00  0.00    +0.000 A 
ATOM      7  C   UNL     1      46.490   4.089  13.359  0.00  0.00    +0.000 A 
ATOM      8  C   UNL     1      45.519   3.364  12.655  0.00  0.00    +0.000 A 
BRANCH   3   9
ATOM      9  C   UNL     1      43.768   3.165  10.831  0.00  0.00    +0.000 C 
BRANCH   9  10
ATOM     10  N   UNL     1      43.135   2.163  11.683  0.00  0.00    +0.000 NA
ATOM     11  H   UNL     1      42.180   2.012  11.365  0.00  0.00    +0.000 HD
ATOM     12  H   UNL     1      43.069   2.535  12.630  0.00  0.00    +0.000 HD
ENDBRANCH   9  10
ENDBRANCH   3   9
ENDBRANCH   2   7
ENDBRANCH   1   2
BRANCH   1  13
ATOM     13  C   UNL     1      47.651   3.273  16.754  0.00  0.00    +0.000 C 
BRANCH  13  14
ATOM     14  C   UNL     1      49.116   3.409  17.095  0.00  0.00    +0.000 A 
ATOM     15  C   UNL     1      49.658   4.660  17.420  0.00  0.00    +0.000 A 
ATOM     16  C   UNL     1      51.006   4.781  17.765  0.00  0.00    +0.000 A 
ATOM     17  C   UNL     1      51.820   3.649  17.810  0.00  0.00    +0.000 A 
ATOM     18  C   UNL     1      51.285   2.388  17.520  0.00  0.00    +0.000 A 
ATOM     19  C   UNL     1      49.939   2.274  17.146  0.00  0.00    +0.000 A 
BRANCH  18  20
ATOM     20  C   UNL     1      52.178   1.204  17.631  0.00  0.00    +0.000 C 
ATOM     21  N   UNL     1      51.653   0.072  18.191  0.00  0.00    +0.000 N 
ATOM     22  O   UNL     1      53.353   1.247  17.286  0.00  0.00    +0.000 OA
ATOM     23  H   UNL     1      50.781   0.067  18.698  0.00  0.00    +0.000 HD
ATOM     24  H   UNL     1      52.308  -0.675  18.379  0.00  0.00    +0.000 HD
ENDBRANCH  18  20
ENDBRANCH  13  14
ENDBRANCH   1  13
TORSDOF 7
ENDMDL
MODEL 9
REMARK VINA RESULT:    -5.835      2.609      3.558
REMARK INTER + INTRA:          -8.953
REMARK INTER:                  -8.538
REMARK INTRA:                  -0.415
REMARK UNBOUND:                -0.902
REMARK  Name = 
REMARK  7 active torsions:
REMARK  status: ('A' for Active; 'I' for Inactive)
REMARK    1  A    between atoms: N_1  and  C_2
REMARK    2  A    between atoms: C_2  and  C_3
REMARK    3  A    between atoms: C_7  and  O_8
REMARK    4  A    between atoms: O_8  and  C_9
REMARK    5  A    between atoms: C_9  and  C_10
REMARK    6  A    between atoms: C_10  and  C_11
REMARK    7  A    between atoms: C_15  and  C_16
REMARK                            x       y       z     vdW  Elec       q    Type
REMARK                         _______ _______ _______ _____ _____    ______ ____
ROOT
ATOM      1  C   UNL     1      45.088   5.577  12.250  0.00  0.00    +0.000 C 
ENDROOT
BRANCH   1   2
ATOM      2  O   UNL     1      46.247   4.805  12.570  0.00  0.00    +0.000 OA
BRANCH   2   7
ATOM      3  C   UNL     1      47.761   4.816  15.892  0.00  0.00    +0.000 A 
ATOM      4  C   UNL     1      48.502   6.006  15.865  0.00  0.00    +0.000 A 
ATOM      5  C   UNL     1      48.493   6.821  14.735  0.00  0.00    +0.000 A 
ATOM      6  C   UNL     1      47.749   6.453  13.614  0.00  0.00    +0.000 A 
ATOM      7  C   UNL     1      47.007   5.271  13.613  0.00  0.00    +0.000 A 
ATOM      8  C   UNL     1      47.016   4.460  14.756  0.00  0.00    +0.000 A 
BRANCH   3   9
ATOM      9  C   UNL     1      47.805   3.923  17.106  0.00  0.00    +0.000 C 
BRANCH   9  10
ATOM     10  N   UNL     1      46.528   3.255  17.337  0.00  0.00    +0.000 NA
ATOM     11  H   UNL     1      45.805   3.724  16.798  0.00  0.00    +0.000 HD
ATOM     12  H   UNL     1      46.275   3.366  18.318  0.00  0.00    +0.000 HD
ENDBRANCH   9  10
ENDBRANCH   3   9
ENDBRANCH   2   7
ENDBRANCH   1   2
BRANCH   1  13
ATOM     13  C   UNL     1      44.986   5.751  10.735  0.00  0.00    +0.000 C 
BRANCH  13  14
ATOM     14  C   UNL     1      45.020   4.415  10.033  0.00  0.00    +0.000 A 
ATOM     15  C   UNL     1      44.210   3.358  10.472  0.00  0.00    +0.000 A 
ATOM     16  C   UNL     1      44.220   2.132   9.804  0.00  0.00    +0.000 A 
ATOM     17  C   UNL     1      45.024   1.957   8.677  0.00  0.00    +0.000 A 
ATOM     18  C   UNL     1      45.813   3.012   8.207  0.00  0.00    +0.000 A 
ATOM     19  C   UNL     1      45.823   4.233   8.897  0.00  0.00    +0.000 A 
BRANCH  18  20
ATOM     20  C   UNL     1      46.614   2.796   6.973  0.00  0.00    +0.000 C 
ATOM     21  N   UNL     1      46.941   3.900   6.235  0.00  0.00    +0.000 N 
ATOM     22  O   UNL     1      46.927   1.673   6.596  0.00  0.00    +0.000 OA
ATOM     23  H   UNL     1      46.508   4.800   6.377  0.00  0.00    +0.000 HD
ATOM     24  H   UNL     1      47.368   3.722   5.335  0.00  0.00    +0.000 HD
ENDBRANCH  18  20
ENDBRANCH  13  14
ENDBRANCH   1  13
TORSDOF 7
ENDMDL
