MODEL 1
REMARK VINA RESULT:    -8.209      0.000      0.000
REMARK INTER + INTRA:         -11.419
REMARK INTER:                 -10.609
REMARK INTRA:                  -0.811
REMARK UNBOUND:                -0.811
REMARK  Name = 
REMARK  5 active torsions:
REMARK  status: ('A' for Active; 'I' for Inactive)
REMARK    1  A    between atoms: C_2  and  C_4
REMARK    2  A    between atoms: C_7  and  C_8
REMARK    3  A    between atoms: C_8  and  S_9
REMARK    4  A    between atoms: S_9  and  C_10
REMARK    5  A    between atoms: C_14  and  N_15
REMARK                            x       y       z     vdW  Elec       q    Type
REMARK                         _______ _______ _______ _____ _____    ______ ____
ROOT
ATOM      1  S   UNL     1      43.649   5.394  11.138  0.00  0.00    +0.000 S 
ENDROOT
BRANCH   1   2
ATOM      2  C   UNL     1      44.888   5.434  12.436  0.00  0.00    +0.000 A 
ATOM      3  C   UNL     1      45.150   4.359  13.276  0.00  0.00    +0.000 A 
ATOM      4  N   UNL     1      46.221   4.273  14.101  0.00  0.00    +0.000 NA
ATOM      5  C   UNL     1      47.094   5.313  14.058  0.00  0.00    +0.000 A 
ATOM      6  C   UNL     1      46.950   6.460  13.275  0.00  0.00    +0.000 A 
ATOM      7  C   UNL     1      45.800   6.497  12.467  0.00  0.00    +0.000 A 
BRANCH   6   8
ATOM      8  N   UNL     1      47.882   7.476  13.227  0.00  0.00    +0.000 N 
ATOM      9  C   UNL     1      47.520   8.869  13.471  0.00  0.00    +0.000 C 
ATOM     10  C   UNL     1      47.743   9.698  12.210  0.00  0.00    +0.000 C 
ATOM     11  C   UNL     1      49.154   9.497  11.654  0.00  0.00    +0.000 C 
ATOM     12  C   UNL     1      49.474   8.014  11.464  0.00  0.00    +0.000 C 
ATOM     13  C   UNL     1      49.237   7.219  12.749  0.00  0.00    +0.000 C 
ENDBRANCH   6   8
ENDBRANCH   1   2
BRANCH   1  14
ATOM     14  C   UNL     1      43.603   3.637  10.649  0.00  0.00    +0.000 C 
BRANCH  14  18
ATOM     15  C   UNL     1      46.485   2.670   7.527  0.00  0.00    +0.000 A 
ATOM     16  C   UNL     1      46.126   3.996   7.752  0.00  0.00    +0.000 A 
ATOM     17  C   UNL     1      45.185   4.317   8.745  0.00  0.00    +0.000 A 
ATOM     18  C   UNL     1      44.591   3.310   9.535  0.00  0.00    +0.000 A 
ATOM     19  C   UNL     1      44.947   1.980   9.276  0.00  0.00    +0.000 A 
ATOM     20  C   UNL     1      45.884   1.657   8.282  0.00  0.00    +0.000 A 
BRANCH  15  22
ATOM     21  N   UNL     1      47.590   3.170   5.425  0.00  0.00    +0.000 N 
ATOM     22  C   UNL     1      47.477   2.317   6.482  0.00  0.00    +0.000 C 
ATOM     23  O   UNL     1      48.188   1.318   6.578  0.00  0.00    +0.000 OA
ATOM     24  H   UNL     1      48.333   2.983   4.764  0.00  0.00    +0.000 HD
ATOM     25  H   UNL     1      47.200   4.103   5.440  0.00  0.00    +0.000 HD
ENDBRANCH  15  22
ENDBRANCH  14  18
ENDBRANCH   1  14
TORSDOF 5
ENDMDL
MODEL 2
REMARK VINA RESULT:    -8.028      1.869      3.436
REMARK INTER + INTRA:         -11.185
REMARK INTER:                 -10.476
REMARK INTRA:                  -0.709
REMARK UNBOUND:                -0.811
REMARK  Name = 
REMARK  5 active torsions:
REMARK  status: ('A' for Active; 'I' for Inactive)
REMARK    1  A    between atoms: C_2  and  C_4
REMARK    2  A    between atoms: C_7  and  C_8
REMARK    3  A    between atoms: C_8  and  S_9
REMARK    4  A    between atoms: S_9  and  C_10
REMARK    5  A    between atoms: C_14  and  N_15
REMARK                            x       y       z     vdW  Elec       q    Type
REMARK                         _______ _______ _______ _____ _____    ______ ____
ROOT
ATOM      1  S   UNL     1      44.011   4.149  12.140  0.00  0.00    +0.000 S 
ENDROOT
BRANCH   1   2
ATOM      2  C   UNL     1      45.521   5.005  12.599  0.00  0.00    +0.000 A 
ATOM      3  C   UNL     1      45.897   6.232  12.066  0.00  0.00    +0.000 A 
ATOM      4  N   UNL     1      46.896   7.007  12.553  0.00  0.00    +0.000 NA
ATOM      5  C   UNL     1      47.533   6.536  13.656  0.00  0.00    +0.000 A 
ATOM      6  C   UNL     1      47.271   5.318  14.287  0.00  0.00    +0.000 A 
ATOM      7  C   UNL     1      46.243   4.551  13.710  0.00  0.00    +0.000 A 
BRANCH   6   8
ATOM      8  N   UNL     1      47.912   4.895  15.432  0.00  0.00    +0.000 N 
ATOM      9  C   UNL     1      47.664   3.581  16.017  0.00  0.00    +0.000 C 
ATOM     10  C   UNL     1      47.030   3.732  17.397  0.00  0.00    +0.000 C 
ATOM     11  C   UNL     1      47.844   4.676  18.283  0.00  0.00    +0.000 C 
ATOM     12  C   UNL     1      48.098   6.014  17.588  0.00  0.00    +0.000 C 
ATOM     13  C   UNL     1      48.732   5.821  16.210  0.00  0.00    +0.000 C 
ENDBRANCH   6   8
ENDBRANCH   1   2
BRANCH   1  14
ATOM     14  C   UNL     1      43.766   4.627  10.395  0.00  0.00    +0.000 C 
BRANCH  14  18
ATOM     15  C   UNL     1      46.485   2.480   7.754  0.00  0.00    +0.000 A 
ATOM     16  C   UNL     1      46.376   3.863   7.658  0.00  0.00    +0.000 A 
ATOM     17  C   UNL     1      45.490   4.564   8.494  0.00  0.00    +0.000 A 
ATOM     18  C   UNL     1      44.701   3.886   9.446  0.00  0.00    +0.000 A 
ATOM     19  C   UNL     1      44.806   2.490   9.510  0.00  0.00    +0.000 A 
ATOM     20  C   UNL     1      45.688   1.788   8.673  0.00  0.00    +0.000 A 
BRANCH  15  22
ATOM     21  N   UNL     1      48.537   2.383   6.461  0.00  0.00    +0.000 N 
ATOM     22  C   UNL     1      47.417   1.727   6.878  0.00  0.00    +0.000 C 
ATOM     23  O   UNL     1      47.207   0.556   6.566  0.00  0.00    +0.000 OA
ATOM     24  H   UNL     1      49.219   1.841   5.947  0.00  0.00    +0.000 HD
ATOM     25  H   UNL     1      48.849   3.245   6.889  0.00  0.00    +0.000 HD
ENDBRANCH  15  22
ENDBRANCH  14  18
ENDBRANCH   1  14
TORSDOF 5
ENDMDL
MODEL 3
REMARK VINA RESULT:    -7.837      2.033      3.637
REMARK INTER + INTRA:         -10.938
REMARK INTER:                 -10.338
REMARK INTRA:                  -0.600
REMARK UNBOUND:                -0.811
REMARK  Name = 
REMARK  5 active torsions:
REMARK  status: ('A' for Active; 'I' for Inactive)
REMARK    1  A    between atoms: C_2  and  C_4
REMARK    2  A    between atoms: C_7  and  C_8
REMARK    3  A    between atoms: C_8  and  S_9
REMARK    4  A    between atoms: S_9  and  C_10
REMARK    5  A    between atoms: C_14  and  N_15
REMARK                            x       y       z     vdW  Elec       q    Type
REMARK                         _______ _______ _______ _____ _____    ______ ____
ROOT
ATOM      1  S   UNL     1      44.342   3.782  12.225  0.00  0.00    +0.000 S 
ENDROOT
BRANCH   1   2
ATOM      2  C   UNL     1      45.808   4.633  12.817  0.00  0.00    +0.000 A 
ATOM      3  C   UNL     1      46.346   5.752  12.194  0.00  0.00    +0.000 A 
ATOM      4  N   UNL     1      47.299   6.548  12.737  0.00  0.00    +0.000 NA
ATOM      5  C   UNL     1      47.713   6.218  13.988  0.00  0.00    +0.000 A 
ATOM      6  C   UNL     1      47.271   5.116  14.724  0.00  0.00    +0.000 A 
ATOM      7  C   UNL     1      46.306   4.316  14.088  0.00  0.00    +0.000 A 
BRANCH   6   8
ATOM      8  N   UNL     1      47.685   4.839  16.009  0.00  0.00    +0.000 N 
ATOM      9  C   UNL     1      48.606   5.713  16.731  0.00  0.00    +0.000 C 
ATOM     10  C   UNL     1      49.913   4.979  17.015  0.00  0.00    +0.000 C 
ATOM     11  C   UNL     1      49.659   3.630  17.691  0.00  0.00    +0.000 C 
ATOM     12  C   UNL     1      48.656   2.790  16.900  0.00  0.00    +0.000 C 
ATOM     13  C   UNL     1      47.362   3.560  16.635  0.00  0.00    +0.000 C 
ENDBRANCH   6   8
ENDBRANCH   1   2
BRANCH   1  14
ATOM     14  C   UNL     1      44.088   4.484  10.560  0.00  0.00    +0.000 C 
BRANCH  14  18
ATOM     15  C   UNL     1      46.638   2.726   7.496  0.00  0.00    +0.000 A 
ATOM     16  C   UNL     1      45.957   1.902   8.386  0.00  0.00    +0.000 A 
ATOM     17  C   UNL     1      45.144   2.459   9.389  0.00  0.00    +0.000 A 
ATOM     18  C   UNL     1      44.998   3.857   9.511  0.00  0.00    +0.000 A 
ATOM     19  C   UNL     1      45.712   4.670   8.621  0.00  0.00    +0.000 A 
ATOM     20  C   UNL     1      46.527   4.115   7.622  0.00  0.00    +0.000 A 
BRANCH  15  22
ATOM     21  N   UNL     1      47.773   2.950   5.363  0.00  0.00    +0.000 N 
ATOM     22  C   UNL     1      47.498   2.152   6.433  0.00  0.00    +0.000 C 
ATOM     23  O   UNL     1      47.970   1.019   6.525  0.00  0.00    +0.000 OA
ATOM     24  H   UNL     1      48.438   2.595   4.687  0.00  0.00    +0.000 HD
ATOM     25  H   UNL     1      47.603   3.947   5.375  0.00  0.00    +0.000 HD
ENDBRANCH  15  22
ENDBRANCH  14  18
ENDBRANCH   1  14
TORSDOF 5
ENDMDL
MODEL 4
REMARK VINA RESULT:    -7.609      2.229      2.950
REMARK INTER + INTRA:         -10.644
REMARK INTER:                  -9.929
REMARK INTRA:                  -0.715
REMARK UNBOUND:                -0.811
REMARK  Name = 
REMARK  5 active torsions:
REMARK  status: ('A' for Active; 'I' for Inactive)
REMARK    1  A    between atoms: C_2  and  C_4
REMARK    2  A    between atoms: C_7  and  C_8
REMARK    3  A    between atoms: C_8  and  S_9
REMARK    4  A    between atoms: S_9  and  C_10
REMARK    5  A    between atoms: C_14  and  N_15
REMARK                            x       y       z     vdW  Elec       q    Type
REMARK                         _______ _______ _______ _____ _____    ______ ____
ROOT
ATOM      1  S   UNL     1      44.436   4.571  12.155  0.00  0.00    +0.000 S 
ENDROOT
BRANCH   1   2
ATOM      2  C   UNL     1      45.418   6.068  12.300  0.00  0.00    +0.000 A 
ATOM      3  C   UNL     1      46.806   6.068  12.376  0.00  0.00    +0.000 A 
ATOM      4  N   UNL     1      47.581   7.172  12.252  0.00  0.00    +0.000 NA
ATOM      5  C   UNL     1      46.927   8.338  12.010  0.00  0.00    +0.000 A 
ATOM      6  C   UNL     1      45.541   8.487  11.924  0.00  0.00    +0.000 A 
ATOM      7  C   UNL     1      44.797   7.306  12.093  0.00  0.00    +0.000 A 
BRANCH   6   8
ATOM      8  N   UNL     1      44.917   9.682  11.634  0.00  0.00    +0.000 N 
ATOM      9  C   UNL     1      43.626   9.735  10.953  0.00  0.00    +0.000 C 
ATOM     10  C   UNL     1      43.776  10.412   9.594  0.00  0.00    +0.000 C 
ATOM     11  C   UNL     1      44.482  11.763   9.720  0.00  0.00    +0.000 C 
ATOM     12  C   UNL     1      45.803  11.635  10.478  0.00  0.00    +0.000 C 
ATOM     13  C   UNL     1      45.611  10.951  11.833  0.00  0.00    +0.000 C 
ENDBRANCH   6   8
ENDBRANCH   1   2
BRANCH   1  14
ATOM     14  C   UNL     1      43.824   4.631  10.437  0.00  0.00    +0.000 C 
BRANCH  14  18
ATOM     15  C   UNL     1      46.486   2.510   7.717  0.00  0.00    +0.000 A 
ATOM     16  C   UNL     1      46.426   3.899   7.683  0.00  0.00    +0.000 A 
ATOM     17  C   UNL     1      45.559   4.593   8.545  0.00  0.00    +0.000 A 
ATOM     18  C   UNL     1      44.739   3.901   9.460  0.00  0.00    +0.000 A 
ATOM     19  C   UNL     1      44.795   2.501   9.461  0.00  0.00    +0.000 A 
ATOM     20  C   UNL     1      45.658   1.806   8.599  0.00  0.00    +0.000 A 
BRANCH  15  22
ATOM     21  N   UNL     1      48.426   2.467   6.260  0.00  0.00    +0.000 N 
ATOM     22  C   UNL     1      47.397   1.765   6.814  0.00  0.00    +0.000 C 
ATOM     23  O   UNL     1      47.252   0.563   6.597  0.00  0.00    +0.000 OA
ATOM     24  H   UNL     1      49.103   1.939   5.723  0.00  0.00    +0.000 HD
ATOM     25  H   UNL     1      48.705   3.377   6.602  0.00  0.00    +0.000 HD
ENDBRANCH  15  22
ENDBRANCH  14  18
ENDBRANCH   1  14
TORSDOF 5
ENDMDL
MODEL 5
REMARK VINA RESULT:    -7.485      1.438      1.983
REMARK INTER + INTRA:         -10.483
REMARK INTER:                  -9.819
REMARK INTRA:                  -0.664
REMARK UNBOUND:                -0.811
REMARK  Name = 
REMARK  5 active torsions:
REMARK  status: ('A' for Active; 'I' for Inactive)
REMARK    1  A    between atoms: C_2  and  C_4
REMARK    2  A    between atoms: C_7  and  C_8
REMARK    3  A    between atoms: C_8  and  S_9
REMARK    4  A    between atoms: S_9  and  C_10
REMARK    5  A    between atoms: C_14  and  N_15
REMARK                            x       y       z     vdW  Elec       q    Type
REMARK                         _______ _______ _______ _____ _____    ______ ____
ROOT
ATOM      1  S   UNL     1      44.615   3.660  12.256  0.00  0.00    +0.000 S 
ENDROOT
BRANCH   1   2
ATOM      2  C   UNL     1      45.379   5.284  12.227  0.00  0.00    +0.000 A 
ATOM      3  C   UNL     1      44.699   6.442  11.867  0.00  0.00    +0.000 A 
ATOM      4  N   UNL     1      45.170   7.698  12.055  0.00  0.00    +0.000 NA
ATOM      5  C   UNL     1      46.379   7.798  12.665  0.00  0.00    +0.000 A 
ATOM      6  C   UNL     1      47.177   6.724  13.066  0.00  0.00    +0.000 A 
ATOM      7  C   UNL     1      46.641   5.449  12.812  0.00  0.00    +0.000 A 
BRANCH   6   8
ATOM      8  N   UNL     1      48.381   6.868  13.722  0.00  0.00    +0.000 N 
ATOM      9  C   UNL     1      48.530   6.558  15.141  0.00  0.00    +0.000 C 
ATOM     10  C   UNL     1      48.876   7.822  15.921  0.00  0.00    +0.000 C 
ATOM     11  C   UNL     1      50.071   8.550  15.303  0.00  0.00    +0.000 C 
ATOM     12  C   UNL     1      49.859   8.803  13.810  0.00  0.00    +0.000 C 
ATOM     13  C   UNL     1      49.514   7.513  13.064  0.00  0.00    +0.000 C 
ENDBRANCH   6   8
ENDBRANCH   1   2
BRANCH   1  14
ATOM     14  C   UNL     1      43.776   3.555  10.639  0.00  0.00    +0.000 C 
BRANCH  14  18
ATOM     15  C   UNL     1      46.590   2.692   7.427  0.00  0.00    +0.000 A 
ATOM     16  C   UNL     1      46.200   4.005   7.671  0.00  0.00    +0.000 A 
ATOM     17  C   UNL     1      45.280   4.293   8.695  0.00  0.00    +0.000 A 
ATOM     18  C   UNL     1      44.739   3.265   9.494  0.00  0.00    +0.000 A 
ATOM     19  C   UNL     1      45.125   1.947   9.216  0.00  0.00    +0.000 A 
ATOM     20  C   UNL     1      46.041   1.657   8.192  0.00  0.00    +0.000 A 
BRANCH  15  22
ATOM     21  N   UNL     1      47.422   3.052   5.176  0.00  0.00    +0.000 N 
ATOM     22  C   UNL     1      47.560   2.374   6.351  0.00  0.00    +0.000 C 
ATOM     23  O   UNL     1      48.467   1.561   6.518  0.00  0.00    +0.000 OA
ATOM     24  H   UNL     1      48.140   2.908   4.478  0.00  0.00    +0.000 HD
ATOM     25  H   UNL     1      46.849   3.882   5.094  0.00  0.00    +0.000 HD
ENDBRANCH  15  22
ENDBRANCH  14  18
ENDBRANCH   1  14
TORSDOF 5
ENDMDL
MODEL 6
REMARK VINA RESULT:    -7.109      1.469      2.073
REMARK INTER + INTRA:          -9.997
REMARK INTER:                  -9.344
REMARK INTRA:                  -0.653
REMARK UNBOUND:                -0.811
REMARK  Name = 
REMARK  5 active torsions:
REMARK  status: ('A' for Active; 'I' for Inactive)
REMARK    1  A    between atoms: C_2  and  C_4
REMARK    2  A    between atoms: C_7  and  C_8
REMARK    3  A    between atoms: C_8  and  S_9
REMARK    4  A    between atoms: S_9  and  C_10
REMARK    5  A    between atoms: C_14  and  N_15
REMARK                            x       y       z     vdW  Elec       q    Type
REMARK                         _______ _______ _______ _____ _____    ______ ____
ROOT
ATOM      1  S   UNL     1      44.943   6.499  11.089  0.00  0.00    +0.000 S 
ENDROOT
BRANCH   1   2
ATOM      2  C   UNL     1      45.724   5.909  12.595  0.00  0.00    +0.000 A 
ATOM      3  C   UNL     1      45.497   4.645  13.128  0.00  0.00    +0.000 A 
ATOM      4  N   UNL     1      46.235   4.087  14.118  0.00  0.00    +0.000 NA
ATOM      5  C   UNL     1      47.277   4.828  14.578  0.00  0.00    +0.000 A 
ATOM      6  C   UNL     1      47.611   6.113  14.146  0.00  0.00    +0.000 A 
ATOM      7  C   UNL     1      46.785   6.643  13.139  0.00  0.00    +0.000 A 
BRANCH   6   8
ATOM      8  N   UNL     1      48.704   6.816  14.607  0.00  0.00    +0.000 N 
ATOM      9  C   UNL     1      49.028   6.895  16.029  0.00  0.00    +0.000 C 
ATOM     10  C   UNL     1      48.912   8.337  16.514  0.00  0.00    +0.000 C 
ATOM     11  C   UNL     1      49.715   9.290  15.627  0.00  0.00    +0.000 C 
ATOM     12  C   UNL     1      49.351   9.120  14.152  0.00  0.00    +0.000 C 
ATOM     13  C   UNL     1      49.478   7.663  13.705  0.00  0.00    +0.000 C 
ENDBRANCH   6   8
ENDBRANCH   1   2
BRANCH   1  14
ATOM     14  C   UNL     1      44.116   5.013  10.429  0.00  0.00    +0.000 C 
BRANCH  14  18
ATOM     15  C   UNL     1      46.584   2.817   7.588  0.00  0.00    +0.000 A 
ATOM     16  C   UNL     1      45.781   2.124   8.487  0.00  0.00    +0.000 A 
ATOM     17  C   UNL     1      44.993   2.822   9.419  0.00  0.00    +0.000 A 
ATOM     18  C   UNL     1      44.996   4.232   9.459  0.00  0.00    +0.000 A 
ATOM     19  C   UNL     1      45.831   4.911   8.563  0.00  0.00    +0.000 A 
ATOM     20  C   UNL     1      46.620   4.215   7.634  0.00  0.00    +0.000 A 
BRANCH  15  22
ATOM     21  N   UNL     1      47.832   2.796   5.507  0.00  0.00    +0.000 N 
ATOM     22  C   UNL     1      47.420   2.093   6.599  0.00  0.00    +0.000 C 
ATOM     23  O   UNL     1      47.754   0.922   6.770  0.00  0.00    +0.000 OA
ATOM     24  H   UNL     1      48.482   2.334   4.883  0.00  0.00    +0.000 HD
ATOM     25  H   UNL     1      47.777   3.805   5.461  0.00  0.00    +0.000 HD
ENDBRANCH  15  22
ENDBRANCH  14  18
ENDBRANCH   1  14
TORSDOF 5
ENDMDL
MODEL 7
REMARK VINA RESULT:    -7.022      3.848      8.010
REMARK INTER + INTRA:          -9.885
REMARK INTER:                  -9.266
REMARK INTRA:                  -0.619
REMARK UNBOUND:                -0.811
REMARK  Name = 
REMARK  5 active torsions:
REMARK  status: ('A' for Active; 'I' for Inactive)
REMARK    1  A    between atoms: C_2  and  C_4
REMARK    2  A    between atoms: C_7  and  C_8
REMARK    3  A    between atoms: C_8  and  S_9
REMARK    4  A    between atoms: S_9  and  C_10
REMARK    5  A    between atoms: C_14  and  N_15
REMARK                            x       y       z     vdW  Elec       q    Type
REMARK                         _______ _______ _______ _____ _____    ______ ____
ROOT
ATOM      1  S   UNL     1      45.813   6.417  12.891  0.00  0.00    +0.000 S 
ENDROOT
BRANCH   1   2
ATOM      2  C   UNL     1      45.087   4.857  12.381  0.00  0.00    +0.000 A 
ATOM      3  C   UNL     1      44.139   4.172  13.133  0.00  0.00    +0.000 A 
ATOM      4  N   UNL     1      43.407   3.127  12.678  0.00  0.00    +0.000 NA
ATOM      5  C   UNL     1      43.618   2.768  11.385  0.00  0.00    +0.000 A 
ATOM      6  C   UNL     1      44.545   3.355  10.521  0.00  0.00    +0.000 A 
ATOM      7  C   UNL     1      45.292   4.413  11.068  0.00  0.00    +0.000 A 
BRANCH   6   8
ATOM      8  N   UNL     1      44.698   2.989   9.200  0.00  0.00    +0.000 N 
ATOM      9  C   UNL     1      44.890   1.598   8.800  0.00  0.00    +0.000 C 
ATOM     10  C   UNL     1      46.268   1.418   8.170  0.00  0.00    +0.000 C 
ATOM     11  C   UNL     1      46.508   2.437   7.054  0.00  0.00    +0.000 C 
ATOM     12  C   UNL     1      46.248   3.864   7.536  0.00  0.00    +0.000 C 
ATOM     13  C   UNL     1      44.859   4.003   8.162  0.00  0.00    +0.000 C 
ENDBRANCH   6   8
ENDBRANCH   1   2
BRANCH   1  14
ATOM     14  C   UNL     1      47.541   5.974  13.279  0.00  0.00    +0.000 C 
BRANCH  14  18
ATOM     15  C   UNL     1      48.182   4.834  17.435  0.00  0.00    +0.000 A 
ATOM     16  C   UNL     1      47.365   4.055  16.621  0.00  0.00    +0.000 A 
ATOM     17  C   UNL     1      47.138   4.423  15.283  0.00  0.00    +0.000 A 
ATOM     18  C   UNL     1      47.734   5.579  14.738  0.00  0.00    +0.000 A 
ATOM     19  C   UNL     1      48.532   6.364  15.580  0.00  0.00    +0.000 A 
ATOM     20  C   UNL     1      48.757   6.000  16.917  0.00  0.00    +0.000 A 
BRANCH  15  22
ATOM     21  N   UNL     1      48.834   3.178  19.083  0.00  0.00    +0.000 N 
ATOM     22  C   UNL     1      48.429   4.458  18.848  0.00  0.00    +0.000 C 
ATOM     23  O   UNL     1      48.307   5.269  19.764  0.00  0.00    +0.000 OA
ATOM     24  H   UNL     1      49.098   2.949  20.034  0.00  0.00    +0.000 HD
ATOM     25  H   UNL     1      49.170   2.572  18.346  0.00  0.00    +0.000 HD
ENDBRANCH  15  22
ENDBRANCH  14  18
ENDBRANCH   1  14
TORSDOF 5
ENDMDL
MODEL 8
REMARK VINA RESULT:    -6.591      3.344      7.459
REMARK INTER + INTRA:          -9.328
REMARK INTER:                  -8.701
REMARK INTRA:                  -0.627
REMARK UNBOUND:                -0.811
REMARK  Name = 
REMARK  5 active torsions:
REMARK  status: ('A' for Active; 'I' for Inactive)
REMARK    1  A    between atoms: C_2  and  C_4
REMARK    2  A    between atoms: C_7  and  C_8
REMARK    3  A    between atoms: C_8  and  S_9
REMARK    4  A    between atoms: S_9  and  C_10
REMARK    5  A    between atoms: C_14  and  N_15
REMARK                            x       y       z     vdW  Elec       q    Type
REMARK                         _______ _______ _______ _____ _____    ______ ____
ROOT
ATOM      1  S   UNL     1      45.306   6.803  12.553  0.00  0.00    +0.000 S 
ENDROOT
BRANCH   1   2
ATOM      2  C   UNL     1      44.850   5.104  12.197  0.00  0.00    +0.000 A 
ATOM      3  C   UNL     1      44.069   4.328  13.045  0.00  0.00    +0.000 A 
ATOM      4  N   UNL     1      43.518   3.138  12.706  0.00  0.00    +0.000 NA
ATOM      5  C   UNL     1      43.740   2.717  11.434  0.00  0.00    +0.000 A 
ATOM      6  C   UNL     1      44.514   3.385  10.482  0.00  0.00    +0.000 A 
ATOM      7  C   UNL     1      45.081   4.598  10.911  0.00  0.00    +0.000 A 
BRANCH   6   8
ATOM      8  N   UNL     1      44.679   2.945   9.185  0.00  0.00    +0.000 N 
ATOM      9  C   UNL     1      44.907   1.538   8.869  0.00  0.00    +0.000 C 
ATOM     10  C   UNL     1      46.290   1.356   8.251  0.00  0.00    +0.000 C 
ATOM     11  C   UNL     1      46.506   2.313   7.077  0.00  0.00    +0.000 C 
ATOM     12  C   UNL     1      46.210   3.760   7.473  0.00  0.00    +0.000 C 
ATOM     13  C   UNL     1      44.817   3.900   8.089  0.00  0.00    +0.000 C 
ENDBRANCH   6   8
ENDBRANCH   1   2
BRANCH   1  14
ATOM     14  C   UNL     1      46.916   6.995  11.715  0.00  0.00    +0.000 C 
BRANCH  14  18
ATOM     15  C   UNL     1      50.258   7.543  14.455  0.00  0.00    +0.000 A 
ATOM     16  C   UNL     1      49.089   6.935  14.902  0.00  0.00    +0.000 A 
ATOM     17  C   UNL     1      47.998   6.769  14.031  0.00  0.00    +0.000 A 
ATOM     18  C   UNL     1      48.067   7.206  12.692  0.00  0.00    +0.000 A 
ATOM     19  C   UNL     1      49.243   7.838  12.268  0.00  0.00    +0.000 A 
ATOM     20  C   UNL     1      50.332   8.008  13.138  0.00  0.00    +0.000 A 
BRANCH  15  22
ATOM     21  N   UNL     1      52.650   7.452  14.853  0.00  0.00    +0.000 N 
ATOM     22  C   UNL     1      51.416   7.725  15.364  0.00  0.00    +0.000 C 
ATOM     23  O   UNL     1      51.276   8.133  16.516  0.00  0.00    +0.000 OA
ATOM     24  H   UNL     1      53.446   7.670  15.440  0.00  0.00    +0.000 HD
ATOM     25  H   UNL     1      52.813   7.350  13.860  0.00  0.00    +0.000 HD
ENDBRANCH  15  22
ENDBRANCH  14  18
ENDBRANCH   1  14
TORSDOF 5
ENDMDL
MODEL 9
REMARK VINA RESULT:    -6.368      4.233      6.293
REMARK INTER + INTRA:          -9.040
REMARK INTER:                  -8.115
REMARK INTRA:                  -0.925
REMARK UNBOUND:                -0.811
REMARK  Name = 
REMARK  5 active torsions:
REMARK  status: ('A' for Active; 'I' for Inactive)
REMARK    1  A    between atoms: C_2  and  C_4
REMARK    2  A    between atoms: C_7  and  C_8
REMARK    3  A    between atoms: C_8  and  S_9
REMARK    4  A    between atoms: S_9  and  C_10
REMARK    5  A    between atoms: C_14  and  N_15
REMARK                            x       y       z     vdW  Elec       q    Type
REMARK                         _______ _______ _______ _____ _____    ______ ____
ROOT
ATOM      1  S   UNL     1      48.602   8.270  13.704  0.00  0.00    +0.000 S 
ENDROOT
BRANCH   1   2
ATOM      2  C   UNL     1      48.736   7.971  15.469  0.00  0.00    +0.000 A 
ATOM      3  C   UNL     1      48.535   8.956  16.429  0.00  0.00    +0.000 A 
ATOM      4  N   UNL     1      48.399   8.717  17.756  0.00  0.00    +0.000 NA
ATOM      5  C   UNL     1      48.437   7.414  18.137  0.00  0.00    +0.000 A 
ATOM      6  C   UNL     1      48.645   6.327  17.286  0.00  0.00    +0.000 A 
ATOM      7  C   UNL     1      48.810   6.649  15.927  0.00  0.00    +0.000 A 
BRANCH   6   8
ATOM      8  N   UNL     1      48.634   5.013  17.706  0.00  0.00    +0.000 N 
ATOM      9  C   UNL     1      49.769   4.415  18.403  0.00  0.00    +0.000 C 
ATOM     10  C   UNL     1      50.371   3.294  17.560  0.00  0.00    +0.000 C 
ATOM     11  C   UNL     1      49.302   2.295  17.115  0.00  0.00    +0.000 C 
ATOM     12  C   UNL     1      48.130   2.999  16.431  0.00  0.00    +0.000 C 
ATOM     13  C   UNL     1      47.555   4.114  17.306  0.00  0.00    +0.000 C 
ENDBRANCH   6   8
ENDBRANCH   1   2
BRANCH   1  14
ATOM     14  C   UNL     1      48.499   6.591  12.996  0.00  0.00    +0.000 C 
BRANCH  14  18
ATOM     15  C   UNL     1      44.445   5.343  12.001  0.00  0.00    +0.000 A 
ATOM     16  C   UNL     1      45.100   6.272  11.199  0.00  0.00    +0.000 A 
ATOM     17  C   UNL     1      46.402   6.694  11.520  0.00  0.00    +0.000 A 
ATOM     18  C   UNL     1      47.071   6.185  12.652  0.00  0.00    +0.000 A 
ATOM     19  C   UNL     1      46.386   5.269  13.461  0.00  0.00    +0.000 A 
ATOM     20  C   UNL     1      45.084   4.849  13.144  0.00  0.00    +0.000 A 
BRANCH  15  22
ATOM     21  N   UNL     1      42.081   5.822  11.738  0.00  0.00    +0.000 N 
ATOM     22  C   UNL     1      43.072   4.889  11.674  0.00  0.00    +0.000 C 
ATOM     23  O   UNL     1      42.839   3.731  11.329  0.00  0.00    +0.000 OA
ATOM     24  H   UNL     1      41.163   5.538  11.420  0.00  0.00    +0.000 HD
ATOM     25  H   UNL     1      42.276   6.814  11.781  0.00  0.00    +0.000 HD
ENDBRANCH  15  22
ENDBRANCH  14  18
ENDBRANCH   1  14
TORSDOF 5
ENDMDL
