MODEL 1
REMARK VINA RESULT:    -8.401      0.000      0.000
REMARK INTER + INTRA:         -12.237
REMARK INTER:                 -11.348
REMARK INTRA:                  -0.889
REMARK UNBOUND:                -0.889
REMARK  Name = 
REMARK  6 active torsions:
REMARK  status: ('A' for Active; 'I' for Inactive)
REMARK    1  A    between atoms: C_2  and  C_20
REMARK    2  A    between atoms: N_3  and  C_4
REMARK    3  A    between atoms: C_4  and  C_5
REMARK    4  A    between atoms: C_8  and  C_9
REMARK    5  A    between atoms: C_9  and  C_10
REMARK    6  A    between atoms: C_10  and  N_11
REMARK                            x       y       z     vdW  Elec       q    Type
REMARK                         _______ _______ _______ _____ _____    ______ ____
ROOT
ATOM      1  C   UNL     1      48.146   6.727  13.574  0.00  0.00    +0.000 C 
ENDROOT
BRANCH   1   2
ATOM      2  C   UNL     1      47.125   5.817  12.944  0.00  0.00    +0.000 A 
ATOM      3  C   UNL     1      46.832   4.579  13.527  0.00  0.00    +0.000 A 
ATOM      4  C   UNL     1      45.825   3.763  13.003  0.00  0.00    +0.000 A 
ATOM      5  C   UNL     1      45.091   4.149  11.872  0.00  0.00    +0.000 A 
ATOM      6  C   UNL     1      45.414   5.375  11.269  0.00  0.00    +0.000 A 
ATOM      7  C   UNL     1      46.424   6.195  11.793  0.00  0.00    +0.000 A 
BRANCH   5   8
ATOM      8  C   UNL     1      43.969   3.308  11.281  0.00  0.00    +0.000 C 
BRANCH   8   9
ATOM      9  C   UNL     1      44.065   3.069   9.770  0.00  0.00    +0.000 C 
BRANCH   9  10
ATOM     10  N   UNL     1      44.844   1.868   9.439  0.00  0.00    +0.000 N 
ATOM     11  C   UNL     1      45.738   2.112   8.368  0.00  0.00    +0.000 A 
ATOM     12  C   UNL     1      46.563   1.081   7.930  0.00  0.00    +0.000 A 
ATOM     13  C   UNL     1      47.442   1.308   6.873  0.00  0.00    +0.000 A 
ATOM     14  C   UNL     1      47.481   2.563   6.276  0.00  0.00    +0.000 A 
ATOM     15  C   UNL     1      46.637   3.536   6.775  0.00  0.00    +0.000 A 
ATOM     16  N   UNL     1      45.783   3.335   7.798  0.00  0.00    +0.000 NA
ATOM     17  H   UNL     1      44.253   1.086   9.177  0.00  0.00    +0.000 HD
ENDBRANCH   9  10
ENDBRANCH   8   9
ENDBRANCH   5   8
ENDBRANCH   1   2
BRANCH   1  20
ATOM     18  O   UNL     1      50.375   6.849  15.203  0.00  0.00    +0.000 OA
ATOM     19  C   UNL     1      49.268   6.820  15.735  0.00  0.00    +0.000 C 
ATOM     20  N   UNL     1      48.107   6.700  15.012  0.00  0.00    +0.000 N 
ATOM     21  H   UNL     1      47.220   6.924  15.453  0.00  0.00    +0.000 HD
BRANCH  19  22
ATOM     22  C   UNL     1      49.119   6.881  17.190  0.00  0.00    +0.000 A 
ATOM     23  C   UNL     1      48.945   8.104  17.830  0.00  0.00    +0.000 A 
ATOM     24  S   UNL     1      48.760   7.961  19.522  0.00  0.00    +0.000 S 
ATOM     25  C   UNL     1      48.868   6.264  19.447  0.00  0.00    +0.000 A 
ATOM     26  N   UNL     1      48.742   5.497  20.563  0.00  0.00    +0.000 NA
ATOM     27  C   UNL     1      48.816   4.225  20.346  0.00  0.00    +0.000 A 
ATOM     28  N   UNL     1      49.019   3.648  19.119  0.00  0.00    +0.000 N 
ATOM     29  C   UNL     1      49.210   4.383  17.978  0.00  0.00    +0.000 A 
ATOM     30  O   UNL     1      49.495   3.841  16.915  0.00  0.00    +0.000 OA
ATOM     31  C   UNL     1      49.088   5.816  18.156  0.00  0.00    +0.000 A 
ATOM     32  H   UNL     1      49.102   2.648  19.022  0.00  0.00    +0.000 HD
ENDBRANCH  19  22
ENDBRANCH   1  20
TORSDOF 6
ENDMDL
MODEL 2
REMARK VINA RESULT:    -8.367      1.314      1.907
REMARK INTER + INTRA:         -12.191
REMARK INTER:                 -11.182
REMARK INTRA:                  -1.009
REMARK UNBOUND:                -0.889
REMARK  Name = 
REMARK  6 active torsions:
REMARK  status: ('A' for Active; 'I' for Inactive)
REMARK    1  A    between atoms: C_2  and  C_20
REMARK    2  A    between atoms: N_3  and  C_4
REMARK    3  A    between atoms: C_4  and  C_5
REMARK    4  A    between atoms: C_8  and  C_9
REMARK    5  A    between atoms: C_9  and  C_10
REMARK    6  A    between atoms: C_10  and  N_11
REMARK                            x       y       z     vdW  Elec       q    Type
REMARK                         _______ _______ _______ _____ _____    ______ ____
ROOT
ATOM      1  C   UNL     1      47.381   7.974  13.522  0.00  0.00    +0.000 C 
ENDROOT
BRANCH   1   2
ATOM      2  C   UNL     1      46.337   7.137  12.829  0.00  0.00    +0.000 A 
ATOM      3  C   UNL     1      45.303   7.753  12.115  0.00  0.00    +0.000 A 
ATOM      4  C   UNL     1      44.379   6.989  11.395  0.00  0.00    +0.000 A 
ATOM      5  C   UNL     1      44.448   5.589  11.382  0.00  0.00    +0.000 A 
ATOM      6  C   UNL     1      45.464   4.975  12.131  0.00  0.00    +0.000 A 
ATOM      7  C   UNL     1      46.392   5.739  12.853  0.00  0.00    +0.000 A 
BRANCH   5   8
ATOM      8  C   UNL     1      43.481   4.716  10.594  0.00  0.00    +0.000 C 
BRANCH   8   9
ATOM      9  C   UNL     1      44.141   3.642   9.721  0.00  0.00    +0.000 C 
BRANCH   9  10
ATOM     10  N   UNL     1      44.848   4.213   8.567  0.00  0.00    +0.000 N 
ATOM     11  C   UNL     1      45.701   3.259   7.961  0.00  0.00    +0.000 A 
ATOM     12  C   UNL     1      46.443   3.630   6.843  0.00  0.00    +0.000 A 
ATOM     13  C   UNL     1      47.291   2.701   6.244  0.00  0.00    +0.000 A 
ATOM     14  C   UNL     1      47.378   1.418   6.771  0.00  0.00    +0.000 A 
ATOM     15  C   UNL     1      46.603   1.124   7.876  0.00  0.00    +0.000 A 
ATOM     16  N   UNL     1      45.775   2.009   8.466  0.00  0.00    +0.000 NA
ATOM     17  H   UNL     1      45.414   5.017   8.821  0.00  0.00    +0.000 HD
ENDBRANCH   9  10
ENDBRANCH   8   9
ENDBRANCH   5   8
ENDBRANCH   1   2
BRANCH   1  20
ATOM     18  O   UNL     1      49.919   7.024  14.061  0.00  0.00    +0.000 OA
ATOM     19  C   UNL     1      49.094   7.023  14.970  0.00  0.00    +0.000 C 
ATOM     20  N   UNL     1      47.793   7.419  14.784  0.00  0.00    +0.000 N 
ATOM     21  H   UNL     1      47.218   7.637  15.593  0.00  0.00    +0.000 HD
BRANCH  19  22
ATOM     22  C   UNL     1      49.443   6.563  16.316  0.00  0.00    +0.000 A 
ATOM     23  C   UNL     1      50.276   7.328  17.127  0.00  0.00    +0.000 A 
ATOM     24  S   UNL     1      50.538   6.637  18.667  0.00  0.00    +0.000 S 
ATOM     25  C   UNL     1      49.519   5.320  18.312  0.00  0.00    +0.000 A 
ATOM     26  N   UNL     1      49.264   4.355  19.236  0.00  0.00    +0.000 NA
ATOM     27  C   UNL     1      48.449   3.436  18.833  0.00  0.00    +0.000 A 
ATOM     28  N   UNL     1      47.878   3.384  17.588  0.00  0.00    +0.000 N 
ATOM     29  C   UNL     1      48.153   4.301  16.608  0.00  0.00    +0.000 A 
ATOM     30  O   UNL     1      47.710   4.168  15.472  0.00  0.00    +0.000 OA
ATOM     31  C   UNL     1      49.024   5.383  17.022  0.00  0.00    +0.000 A 
ATOM     32  H   UNL     1      47.276   2.619  17.324  0.00  0.00    +0.000 HD
ENDBRANCH  19  22
ENDBRANCH   1  20
TORSDOF 6
ENDMDL
MODEL 3
REMARK VINA RESULT:    -7.991      1.573      2.363
REMARK INTER + INTRA:         -11.682
REMARK INTER:                 -10.801
REMARK INTRA:                  -0.881
REMARK UNBOUND:                -0.889
REMARK  Name = 
REMARK  6 active torsions:
REMARK  status: ('A' for Active; 'I' for Inactive)
REMARK    1  A    between atoms: C_2  and  C_20
REMARK    2  A    between atoms: N_3  and  C_4
REMARK    3  A    between atoms: C_4  and  C_5
REMARK    4  A    between atoms: C_8  and  C_9
REMARK    5  A    between atoms: C_9  and  C_10
REMARK    6  A    between atoms: C_10  and  N_11
REMARK                            x       y       z     vdW  Elec       q    Type
REMARK                         _______ _______ _______ _____ _____    ______ ____
ROOT
ATOM      1  C   UNL     1      48.054   5.929  14.521  0.00  0.00    +0.000 C 
ENDROOT
BRANCH   1   2
ATOM      2  C   UNL     1      46.928   5.277  13.762  0.00  0.00    +0.000 A 
ATOM      3  C   UNL     1      45.958   6.063  13.131  0.00  0.00    +0.000 A 
ATOM      4  C   UNL     1      44.958   5.475  12.351  0.00  0.00    +0.000 A 
ATOM      5  C   UNL     1      44.885   4.084  12.192  0.00  0.00    +0.000 A 
ATOM      6  C   UNL     1      45.838   3.297  12.858  0.00  0.00    +0.000 A 
ATOM      7  C   UNL     1      46.842   3.886  13.640  0.00  0.00    +0.000 A 
BRANCH   5   8
ATOM      8  C   UNL     1      43.831   3.399  11.333  0.00  0.00    +0.000 C 
BRANCH   8   9
ATOM      9  C   UNL     1      44.179   3.291   9.844  0.00  0.00    +0.000 C 
BRANCH   9  10
ATOM     10  N   UNL     1      44.903   2.053   9.525  0.00  0.00    +0.000 N 
ATOM     11  C   UNL     1      45.747   2.224   8.400  0.00  0.00    +0.000 A 
ATOM     12  C   UNL     1      46.517   1.151   7.964  0.00  0.00    +0.000 A 
ATOM     13  C   UNL     1      47.345   1.306   6.855  0.00  0.00    +0.000 A 
ATOM     14  C   UNL     1      47.390   2.534   6.205  0.00  0.00    +0.000 A 
ATOM     15  C   UNL     1      46.604   3.554   6.704  0.00  0.00    +0.000 A 
ATOM     16  N   UNL     1      45.799   3.421   7.778  0.00  0.00    +0.000 NA
ATOM     17  H   UNL     1      44.276   1.280   9.326  0.00  0.00    +0.000 HD
ENDBRANCH   9  10
ENDBRANCH   8   9
ENDBRANCH   5   8
ENDBRANCH   1   2
BRANCH   1  20
ATOM     18  O   UNL     1      50.149   5.742  16.314  0.00  0.00    +0.000 OA
ATOM     19  C   UNL     1      49.005   5.792  16.760  0.00  0.00    +0.000 C 
ATOM     20  N   UNL     1      47.899   5.826  15.947  0.00  0.00    +0.000 N 
ATOM     21  H   UNL     1      47.004   6.110  16.336  0.00  0.00    +0.000 HD
BRANCH  19  22
ATOM     22  C   UNL     1      48.748   5.785  18.202  0.00  0.00    +0.000 A 
ATOM     23  C   UNL     1      49.018   4.650  18.960  0.00  0.00    +0.000 A 
ATOM     24  S   UNL     1      48.678   4.853  20.622  0.00  0.00    +0.000 S 
ATOM     25  C   UNL     1      48.199   6.469  20.385  0.00  0.00    +0.000 A 
ATOM     26  N   UNL     1      47.820   7.254  21.429  0.00  0.00    +0.000 NA
ATOM     27  C   UNL     1      47.513   8.465  21.099  0.00  0.00    +0.000 A 
ATOM     28  N   UNL     1      47.534   8.961  19.821  0.00  0.00    +0.000 N 
ATOM     29  C   UNL     1      47.851   8.190  18.733  0.00  0.00    +0.000 A 
ATOM     30  O   UNL     1      47.758   8.633  17.593  0.00  0.00    +0.000 OA
ATOM     31  C   UNL     1      48.253   6.834  19.051  0.00  0.00    +0.000 A 
ATOM     32  H   UNL     1      47.248   9.908  19.625  0.00  0.00    +0.000 HD
ENDBRANCH  19  22
ENDBRANCH   1  20
TORSDOF 6
ENDMDL
MODEL 4
REMARK VINA RESULT:    -7.852      1.713      3.138
REMARK INTER + INTRA:         -11.495
REMARK INTER:                 -10.397
REMARK INTRA:                  -1.098
REMARK UNBOUND:                -0.889
REMARK  Name = 
REMARK  6 active torsions:
REMARK  status: ('A' for Active; 'I' for Inactive)
REMARK    1  A    between atoms: C_2  and  C_20
REMARK    2  A    between atoms: N_3  and  C_4
REMARK    3  A    between atoms: C_4  and  C_5
REMARK    4  A    between atoms: C_8  and  C_9
REMARK    5  A    between atoms: C_9  and  C_10
REMARK    6  A    between atoms: C_10  and  N_11
REMARK                            x       y       z     vdW  Elec       q    Type
REMARK                         _______ _______ _______ _____ _____    ______ ____
ROOT
ATOM      1  C   UNL     1      47.411   4.133  15.235  0.00  0.00    +0.000 C 
ENDROOT
BRANCH   1   2
ATOM      2  C   UNL     1      46.564   4.369  14.012  0.00  0.00    +0.000 A 
ATOM      3  C   UNL     1      46.184   3.294  13.201  0.00  0.00    +0.000 A 
ATOM      4  C   UNL     1      45.327   3.487  12.114  0.00  0.00    +0.000 A 
ATOM      5  C   UNL     1      44.838   4.761  11.791  0.00  0.00    +0.000 A 
ATOM      6  C   UNL     1      45.252   5.843  12.585  0.00  0.00    +0.000 A 
ATOM      7  C   UNL     1      46.111   5.650  13.676  0.00  0.00    +0.000 A 
BRANCH   5   8
ATOM      8  C   UNL     1      43.883   5.017  10.634  0.00  0.00    +0.000 C 
BRANCH   8   9
ATOM      9  C   UNL     1      44.007   4.037   9.462  0.00  0.00    +0.000 C 
BRANCH   9  10
ATOM     10  N   UNL     1      44.982   4.483   8.458  0.00  0.00    +0.000 N 
ATOM     11  C   UNL     1      45.782   3.407   8.002  0.00  0.00    +0.000 A 
ATOM     12  C   UNL     1      46.756   3.650   7.038  0.00  0.00    +0.000 A 
ATOM     13  C   UNL     1      47.553   2.600   6.588  0.00  0.00    +0.000 A 
ATOM     14  C   UNL     1      47.359   1.325   7.108  0.00  0.00    +0.000 A 
ATOM     15  C   UNL     1      46.366   1.163   8.054  0.00  0.00    +0.000 A 
ATOM     16  N   UNL     1      45.584   2.167   8.499  0.00  0.00    +0.000 NA
ATOM     17  H   UNL     1      45.604   5.200   8.817  0.00  0.00    +0.000 HD
ENDBRANCH   9  10
ENDBRANCH   8   9
ENDBRANCH   5   8
ENDBRANCH   1   2
BRANCH   1  20
ATOM     18  O   UNL     1      49.674   4.825  16.662  0.00  0.00    +0.000 OA
ATOM     19  C   UNL     1      48.711   5.586  16.697  0.00  0.00    +0.000 C 
ATOM     20  N   UNL     1      47.523   5.300  16.070  0.00  0.00    +0.000 N 
ATOM     21  H   UNL     1      46.849   6.044  15.915  0.00  0.00    +0.000 HD
BRANCH  19  22
ATOM     22  C   UNL     1      48.759   6.844  17.445  0.00  0.00    +0.000 A 
ATOM     23  C   UNL     1      48.924   6.836  18.827  0.00  0.00    +0.000 A 
ATOM     24  S   UNL     1      48.985   8.401  19.508  0.00  0.00    +0.000 S 
ATOM     25  C   UNL     1      48.833   9.134  17.979  0.00  0.00    +0.000 A 
ATOM     26  N   UNL     1      48.856  10.487  17.838  0.00  0.00    +0.000 NA
ATOM     27  C   UNL     1      48.760  10.896  16.616  0.00  0.00    +0.000 A 
ATOM     28  N   UNL     1      48.626  10.080  15.523  0.00  0.00    +0.000 N 
ATOM     29  C   UNL     1      48.538   8.715  15.624  0.00  0.00    +0.000 A 
ATOM     30  O   UNL     1      48.312   8.020  14.639  0.00  0.00    +0.000 OA
ATOM     31  C   UNL     1      48.690   8.199  16.970  0.00  0.00    +0.000 A 
ATOM     32  H   UNL     1      48.520  10.464  14.597  0.00  0.00    +0.000 HD
ENDBRANCH  19  22
ENDBRANCH   1  20
TORSDOF 6
ENDMDL
MODEL 5
REMARK VINA RESULT:    -7.712      3.696      5.680
REMARK INTER + INTRA:         -11.306
REMARK INTER:                 -10.697
REMARK INTRA:                  -0.609
REMARK UNBOUND:                -0.889
REMARK  Name = 
REMARK  6 active torsions:
REMARK  status: ('A' for Active; 'I' for Inactive)
REMARK    1  A    between atoms: C_2  and  C_20
REMARK    2  A    between atoms: N_3  and  C_4
REMARK    3  A    between atoms: C_4  and  C_5
REMARK    4  A    between atoms: C_8  and  C_9
REMARK    5  A    between atoms: C_9  and  C_10
REMARK    6  A    between atoms: C_10  and  N_11
REMARK                            x       y       z     vdW  Elec       q    Type
REMARK                         _______ _______ _______ _____ _____    ______ ____
ROOT
ATOM      1  C   UNL     1      47.965   6.460  14.151  0.00  0.00    +0.000 C 
ENDROOT
BRANCH   1   2
ATOM      2  C   UNL     1      46.883   5.585  13.575  0.00  0.00    +0.000 A 
ATOM      3  C   UNL     1      45.724   6.159  13.042  0.00  0.00    +0.000 A 
ATOM      4  C   UNL     1      44.752   5.365  12.425  0.00  0.00    +0.000 A 
ATOM      5  C   UNL     1      44.898   3.973  12.338  0.00  0.00    +0.000 A 
ATOM      6  C   UNL     1      46.045   3.398  12.908  0.00  0.00    +0.000 A 
ATOM      7  C   UNL     1      47.021   4.193  13.526  0.00  0.00    +0.000 A 
BRANCH   5   8
ATOM      8  C   UNL     1      43.881   3.071  11.655  0.00  0.00    +0.000 C 
BRANCH   8   9
ATOM      9  C   UNL     1      43.974   3.030  10.125  0.00  0.00    +0.000 C 
BRANCH   9  10
ATOM     10  N   UNL     1      44.659   1.826   9.636  0.00  0.00    +0.000 N 
ATOM     11  C   UNL     1      45.587   2.140   8.614  0.00  0.00    +0.000 A 
ATOM     12  C   UNL     1      46.334   1.114   8.042  0.00  0.00    +0.000 A 
ATOM     13  C   UNL     1      47.245   1.411   7.030  0.00  0.00    +0.000 A 
ATOM     14  C   UNL     1      47.395   2.728   6.612  0.00  0.00    +0.000 A 
ATOM     15  C   UNL     1      46.625   3.691   7.237  0.00  0.00    +0.000 A 
ATOM     16  N   UNL     1      45.741   3.422   8.218  0.00  0.00    +0.000 NA
ATOM     17  H   UNL     1      44.011   1.138   9.266  0.00  0.00    +0.000 HD
ENDBRANCH   9  10
ENDBRANCH   8   9
ENDBRANCH   5   8
ENDBRANCH   1   2
BRANCH   1  20
ATOM     18  O   UNL     1      49.149   7.276  11.792  0.00  0.00    +0.000 OA
ATOM     19  C   UNL     1      48.500   8.100  12.430  0.00  0.00    +0.000 C 
ATOM     20  N   UNL     1      47.925   7.805  13.642  0.00  0.00    +0.000 N 
ATOM     21  H   UNL     1      47.205   8.418  14.015  0.00  0.00    +0.000 HD
BRANCH  19  22
ATOM     22  C   UNL     1      48.323   9.472  11.949  0.00  0.00    +0.000 A 
ATOM     23  C   UNL     1      49.396  10.168  11.399  0.00  0.00    +0.000 A 
ATOM     24  S   UNL     1      48.980  11.738  10.871  0.00  0.00    +0.000 S 
ATOM     25  C   UNL     1      47.354  11.522  11.323  0.00  0.00    +0.000 A 
ATOM     26  N   UNL     1      46.424  12.489  11.103  0.00  0.00    +0.000 NA
ATOM     27  C   UNL     1      45.227  12.171  11.472  0.00  0.00    +0.000 A 
ATOM     28  N   UNL     1      44.875  10.981  12.055  0.00  0.00    +0.000 N 
ATOM     29  C   UNL     1      45.789  10.002  12.350  0.00  0.00    +0.000 A 
ATOM     30  O   UNL     1      45.461   8.994  12.967  0.00  0.00    +0.000 OA
ATOM     31  C   UNL     1      47.141  10.288  11.912  0.00  0.00    +0.000 A 
ATOM     32  H   UNL     1      43.928  10.807  12.353  0.00  0.00    +0.000 HD
ENDBRANCH  19  22
ENDBRANCH   1  20
TORSDOF 6
ENDMDL
MODEL 6
REMARK VINA RESULT:    -7.414      4.867      9.461
REMARK INTER + INTRA:         -10.904
REMARK INTER:                 -10.172
REMARK INTRA:                  -0.732
REMARK UNBOUND:                -0.889
REMARK  Name = 
REMARK  6 active torsions:
REMARK  status: ('A' for Active; 'I' for Inactive)
REMARK    1  A    between atoms: C_2  and  C_20
REMARK    2  A    between atoms: N_3  and  C_4
REMARK    3  A    between atoms: C_4  and  C_5
REMARK    4  A    between atoms: C_8  and  C_9
REMARK    5  A    between atoms: C_9  and  C_10
REMARK    6  A    between atoms: C_10  and  N_11
REMARK                            x       y       z     vdW  Elec       q    Type
REMARK                         _______ _______ _______ _____ _____    ______ ____
ROOT
ATOM      1  C   UNL     1      47.274   3.412  16.757  0.00  0.00    +0.000 C 
ENDROOT
BRANCH   1   2
ATOM      2  C   UNL     1      48.758   3.354  17.008  0.00  0.00    +0.000 A 
ATOM      3  C   UNL     1      49.448   4.502  17.414  0.00  0.00    +0.000 A 
ATOM      4  C   UNL     1      50.807   4.442  17.735  0.00  0.00    +0.000 A 
ATOM      5  C   UNL     1      51.524   3.240  17.643  0.00  0.00    +0.000 A 
ATOM      6  C   UNL     1      50.836   2.099  17.199  0.00  0.00    +0.000 A 
ATOM      7  C   UNL     1      49.473   2.158  16.878  0.00  0.00    +0.000 A 
BRANCH   5   8
ATOM      8  C   UNL     1      52.997   3.120  18.005  0.00  0.00    +0.000 C 
BRANCH   8   9
ATOM      9  C   UNL     1      53.447   1.719  18.437  0.00  0.00    +0.000 C 
BRANCH   9  10
ATOM     10  N   UNL     1      54.153   1.002  17.367  0.00  0.00    +0.000 N 
ATOM     11  C   UNL     1      54.291  -0.374  17.672  0.00  0.00    +0.000 A 
ATOM     12  C   UNL     1      54.930  -1.207  16.759  0.00  0.00    +0.000 A 
ATOM     13  C   UNL     1      55.078  -2.561  17.053  0.00  0.00    +0.000 A 
ATOM     14  C   UNL     1      54.581  -3.057  18.253  0.00  0.00    +0.000 A 
ATOM     15  C   UNL     1      53.951  -2.168  19.102  0.00  0.00    +0.000 A 
ATOM     16  N   UNL     1      53.796  -0.856  18.832  0.00  0.00    +0.000 NA
ATOM     17  H   UNL     1      55.081   1.377  17.199  0.00  0.00    +0.000 HD
ENDBRANCH   9  10
ENDBRANCH   8   9
ENDBRANCH   5   8
ENDBRANCH   1   2
BRANCH   1  20
ATOM     18  O   UNL     1      47.241   3.153  14.006  0.00  0.00    +0.000 OA
ATOM     19  C   UNL     1      46.867   4.217  14.494  0.00  0.00    +0.000 C 
ATOM     20  N   UNL     1      46.903   4.460  15.845  0.00  0.00    +0.000 N 
ATOM     21  H   UNL     1      46.368   5.236  16.226  0.00  0.00    +0.000 HD
BRANCH  19  22
ATOM     22  C   UNL     1      46.384   5.314  13.652  0.00  0.00    +0.000 A 
ATOM     23  C   UNL     1      47.184   6.429  13.422  0.00  0.00    +0.000 A 
ATOM     24  S   UNL     1      46.455   7.581  12.394  0.00  0.00    +0.000 S 
ATOM     25  C   UNL     1      45.070   6.611  12.195  0.00  0.00    +0.000 A 
ATOM     26  N   UNL     1      44.048   6.995  11.384  0.00  0.00    +0.000 NA
ATOM     27  C   UNL     1      43.079   6.144  11.309  0.00  0.00    +0.000 A 
ATOM     28  N   UNL     1      43.029   4.951  11.982  0.00  0.00    +0.000 N 
ATOM     29  C   UNL     1      44.007   4.551  12.855  0.00  0.00    +0.000 A 
ATOM     30  O   UNL     1      43.883   3.529  13.522  0.00  0.00    +0.000 OA
ATOM     31  C   UNL     1      45.143   5.447  12.939  0.00  0.00    +0.000 A 
ATOM     32  H   UNL     1      42.226   4.345  11.908  0.00  0.00    +0.000 HD
ENDBRANCH  19  22
ENDBRANCH   1  20
TORSDOF 6
ENDMDL
MODEL 7
REMARK VINA RESULT:    -7.325      2.845      3.732
REMARK INTER + INTRA:         -10.783
REMARK INTER:                  -9.849
REMARK INTRA:                  -0.934
REMARK UNBOUND:                -0.889
REMARK  Name = 
REMARK  6 active torsions:
REMARK  status: ('A' for Active; 'I' for Inactive)
REMARK    1  A    between atoms: C_2  and  C_20
REMARK    2  A    between atoms: N_3  and  C_4
REMARK    3  A    between atoms: C_4  and  C_5
REMARK    4  A    between atoms: C_8  and  C_9
REMARK    5  A    between atoms: C_9  and  C_10
REMARK    6  A    between atoms: C_10  and  N_11
REMARK                            x       y       z     vdW  Elec       q    Type
REMARK                         _______ _______ _______ _____ _____    ______ ____
ROOT
ATOM      1  C   UNL     1      47.829   5.774  14.514  0.00  0.00    +0.000 C 
ENDROOT
BRANCH   1   2
ATOM      2  C   UNL     1      46.815   5.467  13.443  0.00  0.00    +0.000 A 
ATOM      3  C   UNL     1      46.173   4.224  13.419  0.00  0.00    +0.000 A 
ATOM      4  C   UNL     1      45.168   3.957  12.485  0.00  0.00    +0.000 A 
ATOM      5  C   UNL     1      44.786   4.915  11.535  0.00  0.00    +0.000 A 
ATOM      6  C   UNL     1      45.459   6.147  11.539  0.00  0.00    +0.000 A 
ATOM      7  C   UNL     1      46.467   6.416  12.476  0.00  0.00    +0.000 A 
BRANCH   5   8
ATOM      8  C   UNL     1      43.680   4.682  10.515  0.00  0.00    +0.000 C 
BRANCH   8   9
ATOM      9  C   UNL     1      44.160   4.230   9.131  0.00  0.00    +0.000 C 
BRANCH   9  10
ATOM     10  N   UNL     1      44.667   2.851   9.134  0.00  0.00    +0.000 N 
ATOM     11  C   UNL     1      45.706   2.681   8.188  0.00  0.00    +0.000 A 
ATOM     12  C   UNL     1      46.309   1.434   8.064  0.00  0.00    +0.000 A 
ATOM     13  C   UNL     1      47.329   1.253   7.132  0.00  0.00    +0.000 A 
ATOM     14  C   UNL     1      47.728   2.326   6.342  0.00  0.00    +0.000 A 
ATOM     15  C   UNL     1      47.087   3.535   6.532  0.00  0.00    +0.000 A 
ATOM     16  N   UNL     1      46.102   3.728   7.431  0.00  0.00    +0.000 NA
ATOM     17  H   UNL     1      43.941   2.174   8.921  0.00  0.00    +0.000 HD
ENDBRANCH   9  10
ENDBRANCH   8   9
ENDBRANCH   5   8
ENDBRANCH   1   2
BRANCH   1  20
ATOM     18  O   UNL     1      50.260   6.907  15.182  0.00  0.00    +0.000 OA
ATOM     19  C   UNL     1      49.311   7.656  14.963  0.00  0.00    +0.000 C 
ATOM     20  N   UNL     1      48.051   7.185  14.683  0.00  0.00    +0.000 N 
ATOM     21  H   UNL     1      47.365   7.813  14.274  0.00  0.00    +0.000 HD
BRANCH  19  22
ATOM     22  C   UNL     1      49.459   9.111  15.020  0.00  0.00    +0.000 A 
ATOM     23  C   UNL     1      50.167   9.787  14.030  0.00  0.00    +0.000 A 
ATOM     24  S   UNL     1      50.200  11.478  14.260  0.00  0.00    +0.000 S 
ATOM     25  C   UNL     1      49.241  11.364  15.661  0.00  0.00    +0.000 A 
ATOM     26  N   UNL     1      48.852  12.474  16.344  0.00  0.00    +0.000 NA
ATOM     27  C   UNL     1      48.103  12.233  17.369  0.00  0.00    +0.000 A 
ATOM     28  N   UNL     1      47.719  10.984  17.785  0.00  0.00    +0.000 N 
ATOM     29  C   UNL     1      48.136   9.836  17.163  0.00  0.00    +0.000 A 
ATOM     30  O   UNL     1      47.863   8.732  17.621  0.00  0.00    +0.000 OA
ATOM     31  C   UNL     1      48.939  10.051  15.976  0.00  0.00    +0.000 A 
ATOM     32  H   UNL     1      47.161  10.861  18.616  0.00  0.00    +0.000 HD
ENDBRANCH  19  22
ENDBRANCH   1  20
TORSDOF 6
ENDMDL
MODEL 8
REMARK VINA RESULT:    -7.306      2.961      4.880
REMARK INTER + INTRA:         -10.757
REMARK INTER:                  -9.706
REMARK INTRA:                  -1.051
REMARK UNBOUND:                -0.889
REMARK  Name = 
REMARK  6 active torsions:
REMARK  status: ('A' for Active; 'I' for Inactive)
REMARK    1  A    between atoms: C_2  and  C_20
REMARK    2  A    between atoms: N_3  and  C_4
REMARK    3  A    between atoms: C_4  and  C_5
REMARK    4  A    between atoms: C_8  and  C_9
REMARK    5  A    between atoms: C_9  and  C_10
REMARK    6  A    between atoms: C_10  and  N_11
REMARK                            x       y       z     vdW  Elec       q    Type
REMARK                         _______ _______ _______ _____ _____    ______ ____
ROOT
ATOM      1  C   UNL     1      48.007   6.039  14.612  0.00  0.00    +0.000 C 
ENDROOT
BRANCH   1   2
ATOM      2  C   UNL     1      46.978   5.360  13.746  0.00  0.00    +0.000 A 
ATOM      3  C   UNL     1      46.885   3.964  13.729  0.00  0.00    +0.000 A 
ATOM      4  C   UNL     1      45.878   3.324  12.999  0.00  0.00    +0.000 A 
ATOM      5  C   UNL     1      44.947   4.056  12.249  0.00  0.00    +0.000 A 
ATOM      6  C   UNL     1      45.068   5.455  12.240  0.00  0.00    +0.000 A 
ATOM      7  C   UNL     1      46.076   6.098  12.972  0.00  0.00    +0.000 A 
BRANCH   5   8
ATOM      8  C   UNL     1      43.819   3.407  11.460  0.00  0.00    +0.000 C 
BRANCH   8   9
ATOM      9  C   UNL     1      44.066   3.292   9.951  0.00  0.00    +0.000 C 
BRANCH   9  10
ATOM     10  N   UNL     1      44.745   2.041   9.587  0.00  0.00    +0.000 N 
ATOM     11  C   UNL     1      45.649   2.237   8.515  0.00  0.00    +0.000 A 
ATOM     12  C   UNL     1      46.387   1.154   8.047  0.00  0.00    +0.000 A 
ATOM     13  C   UNL     1      47.274   1.334   6.989  0.00  0.00    +0.000 A 
ATOM     14  C   UNL     1      47.410   2.596   6.420  0.00  0.00    +0.000 A 
ATOM     15  C   UNL     1      46.650   3.622   6.948  0.00  0.00    +0.000 A 
ATOM     16  N   UNL     1      45.789   3.465   7.973  0.00  0.00    +0.000 NA
ATOM     17  H   UNL     1      44.091   1.314   9.312  0.00  0.00    +0.000 HD
ENDBRANCH   9  10
ENDBRANCH   8   9
ENDBRANCH   5   8
ENDBRANCH   1   2
BRANCH   1  20
ATOM     18  O   UNL     1      50.164   7.686  15.129  0.00  0.00    +0.000 OA
ATOM     19  C   UNL     1      49.130   8.199  14.710  0.00  0.00    +0.000 C 
ATOM     20  N   UNL     1      47.988   7.472  14.480  0.00  0.00    +0.000 N 
ATOM     21  H   UNL     1      47.247   7.873  13.912  0.00  0.00    +0.000 HD
BRANCH  19  22
ATOM     22  C   UNL     1      49.041   9.638  14.456  0.00  0.00    +0.000 A 
ATOM     23  C   UNL     1      49.196  10.548  15.498  0.00  0.00    +0.000 A 
ATOM     24  S   UNL     1      49.088  12.176  14.994  0.00  0.00    +0.000 S 
ATOM     25  C   UNL     1      48.870  11.718  13.369  0.00  0.00    +0.000 A 
ATOM     26  N   UNL     1      48.752  12.646  12.382  0.00  0.00    +0.000 NA
ATOM     27  C   UNL     1      48.622  12.149  11.197  0.00  0.00    +0.000 A 
ATOM     28  N   UNL     1      48.582  10.810  10.907  0.00  0.00    +0.000 N 
ATOM     29  C   UNL     1      48.637   9.840  11.875  0.00  0.00    +0.000 A 
ATOM     30  O   UNL     1      48.493   8.655  11.594  0.00  0.00    +0.000 OA
ATOM     31  C   UNL     1      48.833  10.343  13.220  0.00  0.00    +0.000 A 
ATOM     32  H   UNL     1      48.443  10.486   9.962  0.00  0.00    +0.000 HD
ENDBRANCH  19  22
ENDBRANCH   1  20
TORSDOF 6
ENDMDL
MODEL 9
REMARK VINA RESULT:    -7.162      1.755      2.430
REMARK INTER + INTRA:         -10.563
REMARK INTER:                  -9.656
REMARK INTRA:                  -0.907
REMARK UNBOUND:                -0.889
REMARK  Name = 
REMARK  6 active torsions:
REMARK  status: ('A' for Active; 'I' for Inactive)
REMARK    1  A    between atoms: C_2  and  C_20
REMARK    2  A    between atoms: N_3  and  C_4
REMARK    3  A    between atoms: C_4  and  C_5
REMARK    4  A    between atoms: C_8  and  C_9
REMARK    5  A    between atoms: C_9  and  C_10
REMARK    6  A    between atoms: C_10  and  N_11
REMARK                            x       y       z     vdW  Elec       q    Type
REMARK                         _______ _______ _______ _____ _____    ______ ____
ROOT
ATOM      1  C   UNL     1      48.048   4.735  15.713  0.00  0.00    +0.000 C 
ENDROOT
BRANCH   1   2
ATOM      2  C   UNL     1      47.257   4.942  14.447  0.00  0.00    +0.000 A 
ATOM      3  C   UNL     1      46.422   3.928  13.967  0.00  0.00    +0.000 A 
ATOM      4  C   UNL     1      45.616   4.138  12.844  0.00  0.00    +0.000 A 
ATOM      5  C   UNL     1      45.633   5.360  12.155  0.00  0.00    +0.000 A 
ATOM      6  C   UNL     1      46.501   6.361  12.619  0.00  0.00    +0.000 A 
ATOM      7  C   UNL     1      47.309   6.152  13.746  0.00  0.00    +0.000 A 
BRANCH   5   8
ATOM      8  C   UNL     1      44.757   5.645  10.944  0.00  0.00    +0.000 C 
BRANCH   8   9
ATOM      9  C   UNL     1      44.667   4.502   9.925  0.00  0.00    +0.000 C 
BRANCH   9  10
ATOM     10  N   UNL     1      45.415   4.788   8.694  0.00  0.00    +0.000 N 
ATOM     11  C   UNL     1      45.945   3.604   8.126  0.00  0.00    +0.000 A 
ATOM     12  C   UNL     1      46.678   3.691   6.946  0.00  0.00    +0.000 A 
ATOM     13  C   UNL     1      47.209   2.534   6.382  0.00  0.00    +0.000 A 
ATOM     14  C   UNL     1      46.996   1.310   7.007  0.00  0.00    +0.000 A 
ATOM     15  C   UNL     1      46.250   1.306   8.170  0.00  0.00    +0.000 A 
ATOM     16  N   UNL     1      45.726   2.416   8.727  0.00  0.00    +0.000 NA
ATOM     17  H   UNL     1      46.187   5.428   8.852  0.00  0.00    +0.000 HD
ENDBRANCH   9  10
ENDBRANCH   8   9
ENDBRANCH   5   8
ENDBRANCH   1   2
BRANCH   1  20
ATOM     18  O   UNL     1      49.838   6.719  16.418  0.00  0.00    +0.000 OA
ATOM     19  C   UNL     1      48.728   6.726  16.944  0.00  0.00    +0.000 C 
ATOM     20  N   UNL     1      47.793   5.749  16.702  0.00  0.00    +0.000 N 
ATOM     21  H   UNL     1      46.823   5.915  16.952  0.00  0.00    +0.000 HD
BRANCH  19  22
ATOM     22  C   UNL     1      48.340   7.769  17.895  0.00  0.00    +0.000 A 
ATOM     23  C   UNL     1      48.226   9.093  17.480  0.00  0.00    +0.000 A 
ATOM     24  S   UNL     1      47.735  10.150  18.727  0.00  0.00    +0.000 S 
ATOM     25  C   UNL     1      47.623   8.872  19.845  0.00  0.00    +0.000 A 
ATOM     26  N   UNL     1      47.205   9.083  21.122  0.00  0.00    +0.000 NA
ATOM     27  C   UNL     1      47.143   8.014  21.845  0.00  0.00    +0.000 A 
ATOM     28  N   UNL     1      47.474   6.755  21.416  0.00  0.00    +0.000 N 
ATOM     29  C   UNL     1      47.956   6.505  20.157  0.00  0.00    +0.000 A 
ATOM     30  O   UNL     1      48.344   5.386  19.838  0.00  0.00    +0.000 OA
ATOM     31  C   UNL     1      48.000   7.663  19.287  0.00  0.00    +0.000 A 
ATOM     32  H   UNL     1      47.436   5.965  22.042  0.00  0.00    +0.000 HD
ENDBRANCH  19  22
ENDBRANCH   1  20
TORSDOF 6
ENDMDL
