MODEL 1
REMARK VINA RESULT:    -8.467      0.000      0.000
REMARK INTER + INTRA:         -13.694
REMARK INTER:                 -12.426
REMARK INTRA:                  -1.268
REMARK UNBOUND:                -1.268
REMARK  Name = 
REMARK  10 active torsions:
REMARK  status: ('A' for Active; 'I' for Inactive)
REMARK    1  A    between atoms: C_1  and  C_2
REMARK    2  A    between atoms: C_2  and  C_3
REMARK    3  A    between atoms: C_2  and  O_4
REMARK    4  A    between atoms: O_4  and  C_5
REMARK    5  A    between atoms: C_5  and  C_6
REMARK    6  A    between atoms: C_6  and  N_7
REMARK    7  A    between atoms: C_6  and  C_20
REMARK    8  A    between atoms: C_8  and  C_10
REMARK    9  A    between atoms: C_23  and  C_24
REMARK   10  A    between atoms: C_24  and  C_25
REMARK                            x       y       z     vdW  Elec       q    Type
REMARK                         _______ _______ _______ _____ _____    ______ ____
ROOT
ATOM      1  C   UNL     1      46.595   7.788  12.694  0.00  0.00    +0.000 C 
ENDROOT
BRANCH   1   2
ATOM      2  C   UNL     1      46.057   6.621  11.872  0.00  0.00    +0.000 A 
ATOM      3  C   UNL     1      45.183   5.693  12.448  0.00  0.00    +0.000 A 
ATOM      4  C   UNL     1      44.666   4.636  11.691  0.00  0.00    +0.000 A 
ATOM      5  C   UNL     1      45.007   4.484  10.340  0.00  0.00    +0.000 A 
ATOM      6  C   UNL     1      45.880   5.410   9.760  0.00  0.00    +0.000 A 
ATOM      7  C   UNL     1      46.402   6.460  10.518  0.00  0.00    +0.000 A 
BRANCH   5   8
ATOM      8  C   UNL     1      44.423   3.365   9.510  0.00  0.00    +0.000 C 
BRANCH   8   9
ATOM      9  C   UNL     1      45.370   2.799   8.477  0.00  0.00    +0.000 A 
ATOM     10  C   UNL     1      45.750   3.552   7.358  0.00  0.00    +0.000 A 
ATOM     11  C   UNL     1      46.630   3.025   6.411  0.00  0.00    +0.000 A 
ATOM     12  C   UNL     1      47.138   1.738   6.569  0.00  0.00    +0.000 A 
ATOM     13  C   UNL     1      46.763   0.974   7.673  0.00  0.00    +0.000 A 
ATOM     14  C   UNL     1      45.882   1.498   8.620  0.00  0.00    +0.000 A 
ENDBRANCH   8   9
ENDBRANCH   5   8
ENDBRANCH   1   2
BRANCH   1  15
ATOM     15  N   UNL     1      47.105   7.288  13.962  0.00  0.00    +0.000 N 
ATOM     16  C   UNL     1      48.384   6.843  14.153  0.00  0.00    +0.000 C 
ATOM     17  O   UNL     1      49.250   6.888  13.286  0.00  0.00    +0.000 OA
ATOM     18  H   UNL     1      46.414   7.112  14.680  0.00  0.00    +0.000 HD
BRANCH  16  19
ATOM     19  C   UNL     1      48.674   6.322  15.498  0.00  0.00    +0.000 A 
ATOM     20  C   UNL     1      49.586   6.971  16.317  0.00  0.00    +0.000 A 
ATOM     21  S   UNL     1      49.783   6.229  17.842  0.00  0.00    +0.000 S 
ATOM     22  C   UNL     1      48.697   4.980  17.440  0.00  0.00    +0.000 A 
ATOM     23  N   UNL     1      48.430   3.971  18.312  0.00  0.00    +0.000 NA
ATOM     24  C   UNL     1      47.630   3.066  17.852  0.00  0.00    +0.000 A 
ATOM     25  N   UNL     1      47.065   3.085  16.605  0.00  0.00    +0.000 N 
ATOM     26  C   UNL     1      47.223   4.136  15.738  0.00  0.00    +0.000 A 
ATOM     27  O   UNL     1      46.552   4.210  14.716  0.00  0.00    +0.000 OA
ATOM     28  C   UNL     1      48.165   5.147  16.173  0.00  0.00    +0.000 A 
ATOM     29  H   UNL     1      46.411   2.372  16.318  0.00  0.00    +0.000 HD
ENDBRANCH  16  19
ENDBRANCH   1  15
BRANCH   1  30
ATOM     30  C   UNL     1      45.482   8.838  12.908  0.00  0.00    +0.000 C 
BRANCH  30  31
ATOM     31  O   UNL     1      45.731  10.026  12.150  0.00  0.00    +0.000 OA
BRANCH  31  33
ATOM     32  C   UNL     1      45.026  11.580  10.490  0.00  0.00    +0.000 C 
ATOM     33  C   UNL     1      44.560  10.552  11.516  0.00  0.00    +0.000 C 
ATOM     34  C   UNL     1      43.757   9.451  10.828  0.00  0.00    +0.000 C 
ENDBRANCH  31  33
ENDBRANCH  30  31
ENDBRANCH   1  30
TORSDOF 8
ENDMDL
MODEL 2
REMARK VINA RESULT:    -8.119      2.590      4.818
REMARK INTER + INTRA:         -13.185
REMARK INTER:                 -11.723
REMARK INTRA:                  -1.462
REMARK UNBOUND:                -1.268
REMARK  Name = 
REMARK  10 active torsions:
REMARK  status: ('A' for Active; 'I' for Inactive)
REMARK    1  A    between atoms: C_1  and  C_2
REMARK    2  A    between atoms: C_2  and  C_3
REMARK    3  A    between atoms: C_2  and  O_4
REMARK    4  A    between atoms: O_4  and  C_5
REMARK    5  A    between atoms: C_5  and  C_6
REMARK    6  A    between atoms: C_6  and  N_7
REMARK    7  A    between atoms: C_6  and  C_20
REMARK    8  A    between atoms: C_8  and  C_10
REMARK    9  A    between atoms: C_23  and  C_24
REMARK   10  A    between atoms: C_24  and  C_25
REMARK                            x       y       z     vdW  Elec       q    Type
REMARK                         _______ _______ _______ _____ _____    ______ ____
ROOT
ATOM      1  C   UNL     1      46.403   5.516  13.723  0.00  0.00    +0.000 C 
ENDROOT
BRANCH   1   2
ATOM      2  C   UNL     1      45.904   5.042  12.363  0.00  0.00    +0.000 A 
ATOM      3  C   UNL     1      46.026   5.864  11.237  0.00  0.00    +0.000 A 
ATOM      4  C   UNL     1      45.593   5.422   9.982  0.00  0.00    +0.000 A 
ATOM      5  C   UNL     1      45.032   4.149   9.821  0.00  0.00    +0.000 A 
ATOM      6  C   UNL     1      44.908   3.323  10.944  0.00  0.00    +0.000 A 
ATOM      7  C   UNL     1      45.333   3.767  12.197  0.00  0.00    +0.000 A 
BRANCH   5   8
ATOM      8  C   UNL     1      44.596   3.655   8.462  0.00  0.00    +0.000 C 
BRANCH   8   9
ATOM      9  C   UNL     1      45.680   2.942   7.684  0.00  0.00    +0.000 A 
ATOM     10  C   UNL     1      46.245   3.522   6.540  0.00  0.00    +0.000 A 
ATOM     11  C   UNL     1      47.249   2.860   5.830  0.00  0.00    +0.000 A 
ATOM     12  C   UNL     1      47.697   1.611   6.253  0.00  0.00    +0.000 A 
ATOM     13  C   UNL     1      47.139   1.019   7.384  0.00  0.00    +0.000 A 
ATOM     14  C   UNL     1      46.133   1.677   8.095  0.00  0.00    +0.000 A 
ENDBRANCH   8   9
ENDBRANCH   5   8
ENDBRANCH   1   2
BRANCH   1  15
ATOM     15  N   UNL     1      47.658   6.233  13.551  0.00  0.00    +0.000 N 
ATOM     16  C   UNL     1      47.766   7.596  13.516  0.00  0.00    +0.000 C 
ATOM     17  O   UNL     1      46.817   8.352  13.698  0.00  0.00    +0.000 OA
ATOM     18  H   UNL     1      48.455   5.674  13.276  0.00  0.00    +0.000 HD
BRANCH  16  19
ATOM     19  C   UNL     1      49.120   8.115  13.271  0.00  0.00    +0.000 A 
ATOM     20  C   UNL     1      49.384   8.872  12.139  0.00  0.00    +0.000 A 
ATOM     21  S   UNL     1      51.005   9.396  12.031  0.00  0.00    +0.000 S 
ATOM     22  C   UNL     1      51.426   8.581  13.466  0.00  0.00    +0.000 A 
ATOM     23  N   UNL     1      52.702   8.596  13.936  0.00  0.00    +0.000 NA
ATOM     24  C   UNL     1      52.886   7.891  15.003  0.00  0.00    +0.000 A 
ATOM     25  N   UNL     1      51.908   7.183  15.649  0.00  0.00    +0.000 N 
ATOM     26  C   UNL     1      50.590   7.228  15.269  0.00  0.00    +0.000 A 
ATOM     27  O   UNL     1      49.718   6.743  15.979  0.00  0.00    +0.000 OA
ATOM     28  C   UNL     1      50.336   7.948  14.038  0.00  0.00    +0.000 A 
ATOM     29  H   UNL     1      52.102   6.687  16.506  0.00  0.00    +0.000 HD
ENDBRANCH  16  19
ENDBRANCH   1  15
BRANCH   1  30
ATOM     30  C   UNL     1      46.569   4.310  14.673  0.00  0.00    +0.000 C 
BRANCH  30  31
ATOM     31  O   UNL     1      47.735   4.446  15.493  0.00  0.00    +0.000 OA
BRANCH  31  33
ATOM     32  C   UNL     1      48.941   3.132  17.070  0.00  0.00    +0.000 C 
ATOM     33  C   UNL     1      47.609   3.812  16.770  0.00  0.00    +0.000 C 
ATOM     34  C   UNL     1      47.277   4.823  17.864  0.00  0.00    +0.000 C 
ENDBRANCH  31  33
ENDBRANCH  30  31
ENDBRANCH   1  30
TORSDOF 8
ENDMDL
MODEL 3
REMARK VINA RESULT:    -8.093      2.107      5.400
REMARK INTER + INTRA:         -13.147
REMARK INTER:                 -12.550
REMARK INTRA:                  -0.597
REMARK UNBOUND:                -1.268
REMARK  Name = 
REMARK  10 active torsions:
REMARK  status: ('A' for Active; 'I' for Inactive)
REMARK    1  A    between atoms: C_1  and  C_2
REMARK    2  A    between atoms: C_2  and  C_3
REMARK    3  A    between atoms: C_2  and  O_4
REMARK    4  A    between atoms: O_4  and  C_5
REMARK    5  A    between atoms: C_5  and  C_6
REMARK    6  A    between atoms: C_6  and  N_7
REMARK    7  A    between atoms: C_6  and  C_20
REMARK    8  A    between atoms: C_8  and  C_10
REMARK    9  A    between atoms: C_23  and  C_24
REMARK   10  A    between atoms: C_24  and  C_25
REMARK                            x       y       z     vdW  Elec       q    Type
REMARK                         _______ _______ _______ _____ _____    ______ ____
ROOT
ATOM      1  C   UNL     1      46.113   5.521  13.718  0.00  0.00    +0.000 C 
ENDROOT
BRANCH   1   2
ATOM      2  C   UNL     1      45.672   5.006  12.352  0.00  0.00    +0.000 A 
ATOM      3  C   UNL     1      45.855   5.789  11.207  0.00  0.00    +0.000 A 
ATOM      4  C   UNL     1      45.477   5.310   9.948  0.00  0.00    +0.000 A 
ATOM      5  C   UNL     1      44.910   4.037   9.803  0.00  0.00    +0.000 A 
ATOM      6  C   UNL     1      44.726   3.250  10.945  0.00  0.00    +0.000 A 
ATOM      7  C   UNL     1      45.097   3.732  12.201  0.00  0.00    +0.000 A 
BRANCH   5   8
ATOM      8  C   UNL     1      44.533   3.502   8.441  0.00  0.00    +0.000 C 
BRANCH   8   9
ATOM      9  C   UNL     1      45.670   2.836   7.700  0.00  0.00    +0.000 A 
ATOM     10  C   UNL     1      46.178   1.599   8.121  0.00  0.00    +0.000 A 
ATOM     11  C   UNL     1      47.225   0.987   7.428  0.00  0.00    +0.000 A 
ATOM     12  C   UNL     1      47.778   1.605   6.309  0.00  0.00    +0.000 A 
ATOM     13  C   UNL     1      47.289   2.839   5.884  0.00  0.00    +0.000 A 
ATOM     14  C   UNL     1      46.244   3.454   6.576  0.00  0.00    +0.000 A 
ENDBRANCH   8   9
ENDBRANCH   5   8
ENDBRANCH   1   2
BRANCH   1  15
ATOM     15  N   UNL     1      46.712   6.839  13.564  0.00  0.00    +0.000 N 
ATOM     16  C   UNL     1      48.021   7.053  13.228  0.00  0.00    +0.000 C 
ATOM     17  O   UNL     1      48.803   6.149  12.955  0.00  0.00    +0.000 OA
ATOM     18  H   UNL     1      46.158   7.620  13.891  0.00  0.00    +0.000 HD
BRANCH  16  19
ATOM     19  C   UNL     1      48.437   8.464  13.187  0.00  0.00    +0.000 A 
ATOM     20  C   UNL     1      49.689   8.837  13.653  0.00  0.00    +0.000 A 
ATOM     21  S   UNL     1      49.999  10.509  13.513  0.00  0.00    +0.000 S 
ATOM     22  C   UNL     1      48.447  10.803  12.874  0.00  0.00    +0.000 A 
ATOM     23  N   UNL     1      48.043  12.062  12.557  0.00  0.00    +0.000 NA
ATOM     24  C   UNL     1      46.825  12.141  12.134  0.00  0.00    +0.000 A 
ATOM     25  N   UNL     1      45.979  11.074  11.989  0.00  0.00    +0.000 N 
ATOM     26  C   UNL     1      46.380   9.779  12.196  0.00  0.00    +0.000 A 
ATOM     27  O   UNL     1      45.661   8.842  11.872  0.00  0.00    +0.000 OA
ATOM     28  C   UNL     1      47.716   9.636  12.737  0.00  0.00    +0.000 A 
ATOM     29  H   UNL     1      45.051  11.192  11.611  0.00  0.00    +0.000 HD
ENDBRANCH  16  19
ENDBRANCH   1  15
BRANCH   1  30
ATOM     30  C   UNL     1      47.100   4.524  14.363  0.00  0.00    +0.000 C 
BRANCH  30  31
ATOM     31  O   UNL     1      46.552   3.938  15.548  0.00  0.00    +0.000 OA
BRANCH  31  33
ATOM     32  C   UNL     1      48.119   2.850  16.972  0.00  0.00    +0.000 C 
ATOM     33  C   UNL     1      47.360   4.147  16.712  0.00  0.00    +0.000 C 
ATOM     34  C   UNL     1      48.342   5.298  16.509  0.00  0.00    +0.000 C 
ENDBRANCH  31  33
ENDBRANCH  30  31
ENDBRANCH   1  30
TORSDOF 8
ENDMDL
MODEL 4
REMARK VINA RESULT:    -7.908      1.873      2.717
REMARK INTER + INTRA:         -12.874
REMARK INTER:                 -11.365
REMARK INTRA:                  -1.510
REMARK UNBOUND:                -1.268
REMARK  Name = 
REMARK  10 active torsions:
REMARK  status: ('A' for Active; 'I' for Inactive)
REMARK    1  A    between atoms: C_1  and  C_2
REMARK    2  A    between atoms: C_2  and  C_3
REMARK    3  A    between atoms: C_2  and  O_4
REMARK    4  A    between atoms: O_4  and  C_5
REMARK    5  A    between atoms: C_5  and  C_6
REMARK    6  A    between atoms: C_6  and  N_7
REMARK    7  A    between atoms: C_6  and  C_20
REMARK    8  A    between atoms: C_8  and  C_10
REMARK    9  A    between atoms: C_23  and  C_24
REMARK   10  A    between atoms: C_24  and  C_25
REMARK                            x       y       z     vdW  Elec       q    Type
REMARK                         _______ _______ _______ _____ _____    ______ ____
ROOT
ATOM      1  C   UNL     1      47.147   7.012  13.180  0.00  0.00    +0.000 C 
ENDROOT
BRANCH   1   2
ATOM      2  C   UNL     1      46.424   6.093  12.202  0.00  0.00    +0.000 A 
ATOM      3  C   UNL     1      46.257   6.472  10.865  0.00  0.00    +0.000 A 
ATOM      4  C   UNL     1      45.617   5.621   9.958  0.00  0.00    +0.000 A 
ATOM      5  C   UNL     1      45.132   4.370  10.363  0.00  0.00    +0.000 A 
ATOM      6  C   UNL     1      45.298   3.987  11.698  0.00  0.00    +0.000 A 
ATOM      7  C   UNL     1      45.929   4.840  12.605  0.00  0.00    +0.000 A 
BRANCH   5   8
ATOM      8  C   UNL     1      44.473   3.434   9.378  0.00  0.00    +0.000 C 
BRANCH   8   9
ATOM      9  C   UNL     1      45.423   2.819   8.376  0.00  0.00    +0.000 A 
ATOM     10  C   UNL     1      45.853   3.540   7.254  0.00  0.00    +0.000 A 
ATOM     11  C   UNL     1      46.735   2.967   6.335  0.00  0.00    +0.000 A 
ATOM     12  C   UNL     1      47.194   1.666   6.525  0.00  0.00    +0.000 A 
ATOM     13  C   UNL     1      46.768   0.934   7.631  0.00  0.00    +0.000 A 
ATOM     14  C   UNL     1      45.885   1.503   8.550  0.00  0.00    +0.000 A 
ENDBRANCH   8   9
ENDBRANCH   5   8
ENDBRANCH   1   2
BRANCH   1  15
ATOM     15  N   UNL     1      47.259   6.348  14.471  0.00  0.00    +0.000 N 
ATOM     16  C   UNL     1      48.439   6.143  15.129  0.00  0.00    +0.000 C 
ATOM     17  O   UNL     1      49.518   6.564  14.726  0.00  0.00    +0.000 OA
ATOM     18  H   UNL     1      46.428   5.873  14.798  0.00  0.00    +0.000 HD
BRANCH  16  19
ATOM     19  C   UNL     1      48.333   5.396  16.392  0.00  0.00    +0.000 A 
ATOM     20  C   UNL     1      48.032   4.041  16.380  0.00  0.00    +0.000 A 
ATOM     21  S   UNL     1      47.965   3.343  17.936  0.00  0.00    +0.000 S 
ATOM     22  C   UNL     1      48.281   4.839  18.685  0.00  0.00    +0.000 A 
ATOM     23  N   UNL     1      48.329   4.952  20.040  0.00  0.00    +0.000 NA
ATOM     24  C   UNL     1      48.524   6.155  20.468  0.00  0.00    +0.000 A 
ATOM     25  N   UNL     1      48.687   7.253  19.666  0.00  0.00    +0.000 N 
ATOM     26  C   UNL     1      48.751   7.165  18.299  0.00  0.00    +0.000 A 
ATOM     27  O   UNL     1      49.090   8.131  17.626  0.00  0.00    +0.000 OA
ATOM     28  C   UNL     1      48.470   5.850  17.760  0.00  0.00    +0.000 A 
ATOM     29  H   UNL     1      48.881   8.162  20.059  0.00  0.00    +0.000 HD
ENDBRANCH  16  19
ENDBRANCH   1  15
BRANCH   1  30
ATOM     30  C   UNL     1      46.391   8.353  13.300  0.00  0.00    +0.000 C 
BRANCH  30  31
ATOM     31  O   UNL     1      47.051   9.393  12.569  0.00  0.00    +0.000 OA
BRANCH  31  33
ATOM     32  C   UNL     1      49.144   9.562  11.448  0.00  0.00    +0.000 C 
ATOM     33  C   UNL     1      48.462   9.448  12.808  0.00  0.00    +0.000 C 
ATOM     34  C   UNL     1      48.833  10.641  13.684  0.00  0.00    +0.000 C 
ENDBRANCH  31  33
ENDBRANCH  30  31
ENDBRANCH   1  30
TORSDOF 8
ENDMDL
MODEL 5
REMARK VINA RESULT:    -7.739      2.672      5.637
REMARK INTER + INTRA:         -12.626
REMARK INTER:                 -11.167
REMARK INTRA:                  -1.460
REMARK UNBOUND:                -1.268
REMARK  Name = 
REMARK  10 active torsions:
REMARK  status: ('A' for Active; 'I' for Inactive)
REMARK    1  A    between atoms: C_1  and  C_2
REMARK    2  A    between atoms: C_2  and  C_3
REMARK    3  A    between atoms: C_2  and  O_4
REMARK    4  A    between atoms: O_4  and  C_5
REMARK    5  A    between atoms: C_5  and  C_6
REMARK    6  A    between atoms: C_6  and  N_7
REMARK    7  A    between atoms: C_6  and  C_20
REMARK    8  A    between atoms: C_8  and  C_10
REMARK    9  A    between atoms: C_23  and  C_24
REMARK   10  A    between atoms: C_24  and  C_25
REMARK                            x       y       z     vdW  Elec       q    Type
REMARK                         _______ _______ _______ _____ _____    ______ ____
ROOT
ATOM      1  C   UNL     1      46.962   5.839  14.134  0.00  0.00    +0.000 C 
ENDROOT
BRANCH   1   2
ATOM      2  C   UNL     1      46.276   5.330  12.871  0.00  0.00    +0.000 A 
ATOM      3  C   UNL     1      46.283   6.100  11.702  0.00  0.00    +0.000 A 
ATOM      4  C   UNL     1      45.678   5.626  10.533  0.00  0.00    +0.000 A 
ATOM      5  C   UNL     1      45.054   4.371  10.503  0.00  0.00    +0.000 A 
ATOM      6  C   UNL     1      45.045   3.598  11.669  0.00  0.00    +0.000 A 
ATOM      7  C   UNL     1      45.642   4.075  12.837  0.00  0.00    +0.000 A 
BRANCH   5   8
ATOM      8  C   UNL     1      44.431   3.841   9.233  0.00  0.00    +0.000 C 
BRANCH   8   9
ATOM      9  C   UNL     1      45.386   3.074   8.347  0.00  0.00    +0.000 A 
ATOM     10  C   UNL     1      45.985   3.684   7.236  0.00  0.00    +0.000 A 
ATOM     11  C   UNL     1      46.870   2.971   6.424  0.00  0.00    +0.000 A 
ATOM     12  C   UNL     1      47.165   1.641   6.712  0.00  0.00    +0.000 A 
ATOM     13  C   UNL     1      46.571   1.019   7.809  0.00  0.00    +0.000 A 
ATOM     14  C   UNL     1      45.684   1.729   8.620  0.00  0.00    +0.000 A 
ENDBRANCH   8   9
ENDBRANCH   5   8
ENDBRANCH   1   2
BRANCH   1  15
ATOM     15  N   UNL     1      48.180   6.546  13.768  0.00  0.00    +0.000 N 
ATOM     16  C   UNL     1      48.393   7.877  13.994  0.00  0.00    +0.000 C 
ATOM     17  O   UNL     1      47.600   8.594  14.593  0.00  0.00    +0.000 OA
ATOM     18  H   UNL     1      48.820   6.044  13.166  0.00  0.00    +0.000 HD
BRANCH  16  19
ATOM     19  C   UNL     1      49.670   8.405  13.489  0.00  0.00    +0.000 A 
ATOM     20  C   UNL     1      50.865   8.040  14.093  0.00  0.00    +0.000 A 
ATOM     21  S   UNL     1      52.240   8.739  13.362  0.00  0.00    +0.000 S 
ATOM     22  C   UNL     1      51.283   9.600  12.248  0.00  0.00    +0.000 A 
ATOM     23  N   UNL     1      51.846  10.436  11.334  0.00  0.00    +0.000 NA
ATOM     24  C   UNL     1      50.996  11.063  10.590  0.00  0.00    +0.000 A 
ATOM     25  N   UNL     1      49.636  10.922  10.668  0.00  0.00    +0.000 N 
ATOM     26  C   UNL     1      49.035  10.012  11.501  0.00  0.00    +0.000 A 
ATOM     27  O   UNL     1      47.837   9.775  11.406  0.00  0.00    +0.000 OA
ATOM     28  C   UNL     1      49.935   9.330  12.408  0.00  0.00    +0.000 A 
ATOM     29  H   UNL     1      49.024  11.405  10.028  0.00  0.00    +0.000 HD
ENDBRANCH  16  19
ENDBRANCH   1  15
BRANCH   1  30
ATOM     30  C   UNL     1      47.258   4.657  15.084  0.00  0.00    +0.000 C 
BRANCH  30  31
ATOM     31  O   UNL     1      48.423   4.905  15.879  0.00  0.00    +0.000 OA
BRANCH  31  33
ATOM     32  C   UNL     1      48.376   2.662  16.673  0.00  0.00    +0.000 C 
ATOM     33  C   UNL     1      48.466   4.128  17.081  0.00  0.00    +0.000 C 
ATOM     34  C   UNL     1      49.754   4.378  17.861  0.00  0.00    +0.000 C 
ENDBRANCH  31  33
ENDBRANCH  30  31
ENDBRANCH   1  30
TORSDOF 8
ENDMDL
MODEL 6
REMARK VINA RESULT:    -7.615      1.381      2.119
REMARK INTER + INTRA:         -12.444
REMARK INTER:                 -11.431
REMARK INTRA:                  -1.013
REMARK UNBOUND:                -1.268
REMARK  Name = 
REMARK  10 active torsions:
REMARK  status: ('A' for Active; 'I' for Inactive)
REMARK    1  A    between atoms: C_1  and  C_2
REMARK    2  A    between atoms: C_2  and  C_3
REMARK    3  A    between atoms: C_2  and  O_4
REMARK    4  A    between atoms: O_4  and  C_5
REMARK    5  A    between atoms: C_5  and  C_6
REMARK    6  A    between atoms: C_6  and  N_7
REMARK    7  A    between atoms: C_6  and  C_20
REMARK    8  A    between atoms: C_8  and  C_10
REMARK    9  A    between atoms: C_23  and  C_24
REMARK   10  A    between atoms: C_24  and  C_25
REMARK                            x       y       z     vdW  Elec       q    Type
REMARK                         _______ _______ _______ _____ _____    ______ ____
ROOT
ATOM      1  C   UNL     1      46.566   7.453  12.721  0.00  0.00    +0.000 C 
ENDROOT
BRANCH   1   2
ATOM      2  C   UNL     1      46.042   6.375  11.778  0.00  0.00    +0.000 A 
ATOM      3  C   UNL     1      45.222   5.350  12.260  0.00  0.00    +0.000 A 
ATOM      4  C   UNL     1      44.718   4.373  11.394  0.00  0.00    +0.000 A 
ATOM      5  C   UNL     1      45.018   4.401  10.025  0.00  0.00    +0.000 A 
ATOM      6  C   UNL     1      45.838   5.425   9.539  0.00  0.00    +0.000 A 
ATOM      7  C   UNL     1      46.347   6.394  10.405  0.00  0.00    +0.000 A 
BRANCH   5   8
ATOM      8  C   UNL     1      44.446   3.370   9.081  0.00  0.00    +0.000 C 
BRANCH   8   9
ATOM      9  C   UNL     1      45.456   2.776   8.126  0.00  0.00    +0.000 A 
ATOM     10  C   UNL     1      45.882   3.484   6.995  0.00  0.00    +0.000 A 
ATOM     11  C   UNL     1      46.819   2.931   6.119  0.00  0.00    +0.000 A 
ATOM     12  C   UNL     1      47.340   1.663   6.364  0.00  0.00    +0.000 A 
ATOM     13  C   UNL     1      46.919   0.943   7.480  0.00  0.00    +0.000 A 
ATOM     14  C   UNL     1      45.981   1.492   8.355  0.00  0.00    +0.000 A 
ENDBRANCH   8   9
ENDBRANCH   5   8
ENDBRANCH   1   2
BRANCH   1  15
ATOM     15  N   UNL     1      46.882   6.853  14.008  0.00  0.00    +0.000 N 
ATOM     16  C   UNL     1      48.108   6.343  14.338  0.00  0.00    +0.000 C 
ATOM     17  O   UNL     1      49.084   6.406  13.599  0.00  0.00    +0.000 OA
ATOM     18  H   UNL     1      46.095   6.662  14.614  0.00  0.00    +0.000 HD
BRANCH  16  19
ATOM     19  C   UNL     1      48.195   5.726  15.671  0.00  0.00    +0.000 A 
ATOM     20  C   UNL     1      47.590   4.502  15.914  0.00  0.00    +0.000 A 
ATOM     21  S   UNL     1      47.809   3.939  17.511  0.00  0.00    +0.000 S 
ATOM     22  C   UNL     1      48.673   5.340  17.949  0.00  0.00    +0.000 A 
ATOM     23  N   UNL     1      49.134   5.515  19.217  0.00  0.00    +0.000 NA
ATOM     24  C   UNL     1      49.724   6.647  19.418  0.00  0.00    +0.000 A 
ATOM     25  N   UNL     1      49.905   7.613  18.465  0.00  0.00    +0.000 N 
ATOM     26  C   UNL     1      49.551   7.431  17.152  0.00  0.00    +0.000 A 
ATOM     27  O   UNL     1      49.901   8.232  16.294  0.00  0.00    +0.000 OA
ATOM     28  C   UNL     1      48.823   6.208  16.882  0.00  0.00    +0.000 A 
ATOM     29  H   UNL     1      50.414   8.460  18.670  0.00  0.00    +0.000 HD
ENDBRANCH  16  19
ENDBRANCH   1  15
BRANCH   1  30
ATOM     30  C   UNL     1      45.519   8.579  12.866  0.00  0.00    +0.000 C 
BRANCH  30  31
ATOM     31  O   UNL     1      44.631   8.616  11.743  0.00  0.00    +0.000 OA
BRANCH  31  33
ATOM     32  C   UNL     1      43.235  10.336  10.871  0.00  0.00    +0.000 C 
ATOM     33  C   UNL     1      44.674   9.854  11.024  0.00  0.00    +0.000 C 
ATOM     34  C   UNL     1      45.502  10.900  11.766  0.00  0.00    +0.000 C 
ENDBRANCH  31  33
ENDBRANCH  30  31
ENDBRANCH   1  30
TORSDOF 8
ENDMDL
MODEL 7
REMARK VINA RESULT:    -7.286      2.833      4.138
REMARK INTER + INTRA:         -11.962
REMARK INTER:                 -10.091
REMARK INTRA:                  -1.871
REMARK UNBOUND:                -1.268
REMARK  Name = 
REMARK  10 active torsions:
REMARK  status: ('A' for Active; 'I' for Inactive)
REMARK    1  A    between atoms: C_1  and  C_2
REMARK    2  A    between atoms: C_2  and  C_3
REMARK    3  A    between atoms: C_2  and  O_4
REMARK    4  A    between atoms: O_4  and  C_5
REMARK    5  A    between atoms: C_5  and  C_6
REMARK    6  A    between atoms: C_6  and  N_7
REMARK    7  A    between atoms: C_6  and  C_20
REMARK    8  A    between atoms: C_8  and  C_10
REMARK    9  A    between atoms: C_23  and  C_24
REMARK   10  A    between atoms: C_24  and  C_25
REMARK                            x       y       z     vdW  Elec       q    Type
REMARK                         _______ _______ _______ _____ _____    ______ ____
ROOT
ATOM      1  C   UNL     1      48.925   6.968  14.229  0.00  0.00    +0.000 C 
ENDROOT
BRANCH   1   2
ATOM      2  C   UNL     1      47.754   6.455  13.397  0.00  0.00    +0.000 A 
ATOM      3  C   UNL     1      47.341   7.147  12.253  0.00  0.00    +0.000 A 
ATOM      4  C   UNL     1      46.284   6.666  11.473  0.00  0.00    +0.000 A 
ATOM      5  C   UNL     1      45.619   5.481  11.814  0.00  0.00    +0.000 A 
ATOM      6  C   UNL     1      46.029   4.786  12.956  0.00  0.00    +0.000 A 
ATOM      7  C   UNL     1      47.078   5.270  13.739  0.00  0.00    +0.000 A 
BRANCH   5   8
ATOM      8  C   UNL     1      44.501   4.939  10.953  0.00  0.00    +0.000 C 
BRANCH   8   9
ATOM      9  C   UNL     1      44.964   4.043   9.828  0.00  0.00    +0.000 A 
ATOM     10  C   UNL     1      45.596   4.576   8.696  0.00  0.00    +0.000 A 
ATOM     11  C   UNL     1      46.025   3.741   7.662  0.00  0.00    +0.000 A 
ATOM     12  C   UNL     1      45.825   2.365   7.746  0.00  0.00    +0.000 A 
ATOM     13  C   UNL     1      45.189   1.822   8.861  0.00  0.00    +0.000 A 
ATOM     14  C   UNL     1      44.757   2.655   9.895  0.00  0.00    +0.000 A 
ENDBRANCH   8   9
ENDBRANCH   5   8
ENDBRANCH   1   2
BRANCH   1  15
ATOM     15  N   UNL     1      48.517   7.069  15.622  0.00  0.00    +0.000 N 
ATOM     16  C   UNL     1      49.116   6.394  16.649  0.00  0.00    +0.000 C 
ATOM     17  O   UNL     1      50.106   5.687  16.503  0.00  0.00    +0.000 OA
ATOM     18  H   UNL     1      47.637   7.538  15.794  0.00  0.00    +0.000 HD
BRANCH  16  19
ATOM     19  C   UNL     1      48.506   6.593  17.973  0.00  0.00    +0.000 A 
ATOM     20  C   UNL     1      48.106   5.501  18.729  0.00  0.00    +0.000 A 
ATOM     21  S   UNL     1      47.433   5.926  20.239  0.00  0.00    +0.000 S 
ATOM     22  C   UNL     1      47.602   7.589  19.913  0.00  0.00    +0.000 A 
ATOM     23  N   UNL     1      47.183   8.528  20.803  0.00  0.00    +0.000 NA
ATOM     24  C   UNL     1      47.325   9.747  20.399  0.00  0.00    +0.000 A 
ATOM     25  N   UNL     1      47.858  10.113  19.192  0.00  0.00    +0.000 N 
ATOM     26  C   UNL     1      48.390   9.203  18.314  0.00  0.00    +0.000 A 
ATOM     27  O   UNL     1      49.030   9.576  17.338  0.00  0.00    +0.000 OA
ATOM     28  C   UNL     1      48.196   7.816  18.683  0.00  0.00    +0.000 A 
ATOM     29  H   UNL     1      47.985  11.084  18.951  0.00  0.00    +0.000 HD
ENDBRANCH  16  19
ENDBRANCH   1  15
BRANCH   1  30
ATOM     30  C   UNL     1      49.403   8.330  13.680  0.00  0.00    +0.000 C 
BRANCH  30  31
ATOM     31  O   UNL     1      50.751   8.258  13.201  0.00  0.00    +0.000 OA
BRANCH  31  33
ATOM     32  C   UNL     1      51.009   7.711  10.899  0.00  0.00    +0.000 C 
ATOM     33  C   UNL     1      50.928   8.851  11.910  0.00  0.00    +0.000 C 
ATOM     34  C   UNL     1      49.770   9.781  11.561  0.00  0.00    +0.000 C 
ENDBRANCH  31  33
ENDBRANCH  30  31
ENDBRANCH   1  30
TORSDOF 8
ENDMDL
MODEL 8
REMARK VINA RESULT:    -7.220      2.100      2.804
REMARK INTER + INTRA:         -11.865
REMARK INTER:                 -10.204
REMARK INTRA:                  -1.660
REMARK UNBOUND:                -1.268
REMARK  Name = 
REMARK  10 active torsions:
REMARK  status: ('A' for Active; 'I' for Inactive)
REMARK    1  A    between atoms: C_1  and  C_2
REMARK    2  A    between atoms: C_2  and  C_3
REMARK    3  A    between atoms: C_2  and  O_4
REMARK    4  A    between atoms: O_4  and  C_5
REMARK    5  A    between atoms: C_5  and  C_6
REMARK    6  A    between atoms: C_6  and  N_7
REMARK    7  A    between atoms: C_6  and  C_20
REMARK    8  A    between atoms: C_8  and  C_10
REMARK    9  A    between atoms: C_23  and  C_24
REMARK   10  A    between atoms: C_24  and  C_25
REMARK                            x       y       z     vdW  Elec       q    Type
REMARK                         _______ _______ _______ _____ _____    ______ ____
ROOT
ATOM      1  C   UNL     1      48.203   8.040  13.771  0.00  0.00    +0.000 C 
ENDROOT
BRANCH   1   2
ATOM      2  C   UNL     1      47.161   7.206  13.033  0.00  0.00    +0.000 A 
ATOM      3  C   UNL     1      46.217   7.823  12.204  0.00  0.00    +0.000 A 
ATOM      4  C   UNL     1      45.277   7.059  11.504  0.00  0.00    +0.000 A 
ATOM      5  C   UNL     1      45.259   5.662  11.613  0.00  0.00    +0.000 A 
ATOM      6  C   UNL     1      46.201   5.042  12.441  0.00  0.00    +0.000 A 
ATOM      7  C   UNL     1      47.134   5.804  13.145  0.00  0.00    +0.000 A 
BRANCH   5   8
ATOM      8  C   UNL     1      44.268   4.832  10.832  0.00  0.00    +0.000 C 
BRANCH   8   9
ATOM      9  C   UNL     1      44.890   3.984   9.746  0.00  0.00    +0.000 A 
ATOM     10  C   UNL     1      45.562   4.574   8.667  0.00  0.00    +0.000 A 
ATOM     11  C   UNL     1      46.138   3.784   7.670  0.00  0.00    +0.000 A 
ATOM     12  C   UNL     1      46.047   2.396   7.738  0.00  0.00    +0.000 A 
ATOM     13  C   UNL     1      45.375   1.795   8.801  0.00  0.00    +0.000 A 
ATOM     14  C   UNL     1      44.796   2.583   9.798  0.00  0.00    +0.000 A 
ENDBRANCH   8   9
ENDBRANCH   5   8
ENDBRANCH   1   2
BRANCH   1  15
ATOM     15  N   UNL     1      48.079   7.807  15.203  0.00  0.00    +0.000 N 
ATOM     16  C   UNL     1      49.083   7.314  15.990  0.00  0.00    +0.000 C 
ATOM     17  O   UNL     1      50.214   7.086  15.575  0.00  0.00    +0.000 OA
ATOM     18  H   UNL     1      47.143   7.859  15.582  0.00  0.00    +0.000 HD
BRANCH  16  19
ATOM     19  C   UNL     1      48.727   7.096  17.401  0.00  0.00    +0.000 A 
ATOM     20  C   UNL     1      48.312   8.160  18.189  0.00  0.00    +0.000 A 
ATOM     21  S   UNL     1      47.929   7.712  19.791  0.00  0.00    +0.000 S 
ATOM     22  C   UNL     1      48.360   6.090  19.504  0.00  0.00    +0.000 A 
ATOM     23  N   UNL     1      48.295   5.157  20.492  0.00  0.00    +0.000 NA
ATOM     24  C   UNL     1      48.702   3.982  20.145  0.00  0.00    +0.000 A 
ATOM     25  N   UNL     1      49.157   3.651  18.897  0.00  0.00    +0.000 N 
ATOM     26  C   UNL     1      49.138   4.532  17.845  0.00  0.00    +0.000 A 
ATOM     27  O   UNL     1      49.368   4.150  16.705  0.00  0.00    +0.000 OA
ATOM     28  C   UNL     1      48.756   5.885  18.193  0.00  0.00    +0.000 A 
ATOM     29  H   UNL     1      49.420   2.703  18.671  0.00  0.00    +0.000 HD
ENDBRANCH  16  19
ENDBRANCH   1  15
BRANCH   1  30
ATOM     30  C   UNL     1      48.020   9.535  13.426  0.00  0.00    +0.000 C 
BRANCH  30  31
ATOM     31  O   UNL     1      49.282  10.203  13.312  0.00  0.00    +0.000 OA
BRANCH  31  33
ATOM     32  C   UNL     1      50.392   9.412  11.360  0.00  0.00    +0.000 C 
ATOM     33  C   UNL     1      49.609  10.572  11.967  0.00  0.00    +0.000 C 
ATOM     34  C   UNL     1      48.354  10.847  11.143  0.00  0.00    +0.000 C 
ENDBRANCH  31  33
ENDBRANCH  30  31
ENDBRANCH   1  30
TORSDOF 8
ENDMDL
MODEL 9
REMARK VINA RESULT:    -7.208      3.315      7.445
REMARK INTER + INTRA:         -11.848
REMARK INTER:                 -10.052
REMARK INTRA:                  -1.796
REMARK UNBOUND:                -1.268
REMARK  Name = 
REMARK  10 active torsions:
REMARK  status: ('A' for Active; 'I' for Inactive)
REMARK    1  A    between atoms: C_1  and  C_2
REMARK    2  A    between atoms: C_2  and  C_3
REMARK    3  A    between atoms: C_2  and  O_4
REMARK    4  A    between atoms: O_4  and  C_5
REMARK    5  A    between atoms: C_5  and  C_6
REMARK    6  A    between atoms: C_6  and  N_7
REMARK    7  A    between atoms: C_6  and  C_20
REMARK    8  A    between atoms: C_8  and  C_10
REMARK    9  A    between atoms: C_23  and  C_24
REMARK   10  A    between atoms: C_24  and  C_25
REMARK                            x       y       z     vdW  Elec       q    Type
REMARK                         _______ _______ _______ _____ _____    ______ ____
ROOT
ATOM      1  C   UNL     1      48.250   7.351  13.117  0.00  0.00    +0.000 C 
ENDROOT
BRANCH   1   2
ATOM      2  C   UNL     1      48.586   6.686  14.448  0.00  0.00    +0.000 A 
ATOM      3  C   UNL     1      47.790   5.647  14.942  0.00  0.00    +0.000 A 
ATOM      4  C   UNL     1      48.109   5.017  16.150  0.00  0.00    +0.000 A 
ATOM      5  C   UNL     1      49.233   5.408  16.890  0.00  0.00    +0.000 A 
ATOM      6  C   UNL     1      50.032   6.446  16.399  0.00  0.00    +0.000 A 
ATOM      7  C   UNL     1      49.708   7.079  15.199  0.00  0.00    +0.000 A 
BRANCH   5   8
ATOM      8  C   UNL     1      49.601   4.706  18.176  0.00  0.00    +0.000 C 
BRANCH   8   9
ATOM      9  C   UNL     1      50.673   3.652  18.022  0.00  0.00    +0.000 A 
ATOM     10  C   UNL     1      51.980   3.882  18.473  0.00  0.00    +0.000 A 
ATOM     11  C   UNL     1      52.964   2.901  18.333  0.00  0.00    +0.000 A 
ATOM     12  C   UNL     1      52.655   1.681  17.738  0.00  0.00    +0.000 A 
ATOM     13  C   UNL     1      51.362   1.441  17.276  0.00  0.00    +0.000 A 
ATOM     14  C   UNL     1      50.377   2.420  17.414  0.00  0.00    +0.000 A 
ENDBRANCH   8   9
ENDBRANCH   5   8
ENDBRANCH   1   2
BRANCH   1  15
ATOM     15  N   UNL     1      47.496   6.419  12.291  0.00  0.00    +0.000 N 
ATOM     16  C   UNL     1      46.352   6.743  11.616  0.00  0.00    +0.000 C 
ATOM     17  O   UNL     1      45.886   7.876  11.586  0.00  0.00    +0.000 OA
ATOM     18  H   UNL     1      47.757   5.444  12.371  0.00  0.00    +0.000 HD
BRANCH  16  19
ATOM     19  C   UNL     1      45.714   5.633  10.890  0.00  0.00    +0.000 A 
ATOM     20  C   UNL     1      45.790   5.569   9.506  0.00  0.00    +0.000 A 
ATOM     21  S   UNL     1      45.004   4.207   8.843  0.00  0.00    +0.000 S 
ATOM     22  C   UNL     1      44.485   3.684  10.379  0.00  0.00    +0.000 A 
ATOM     23  N   UNL     1      43.722   2.567  10.523  0.00  0.00    +0.000 NA
ATOM     24  C   UNL     1      43.358   2.323  11.738  0.00  0.00    +0.000 A 
ATOM     25  N   UNL     1      43.698   3.085  12.823  0.00  0.00    +0.000 N 
ATOM     26  C   UNL     1      44.551   4.156  12.736  0.00  0.00    +0.000 A 
ATOM     27  O   UNL     1      44.985   4.693  13.747  0.00  0.00    +0.000 OA
ATOM     28  C   UNL     1      44.936   4.518  11.387  0.00  0.00    +0.000 A 
ATOM     29  H   UNL     1      43.421   2.818  13.756  0.00  0.00    +0.000 HD
ENDBRANCH  16  19
ENDBRANCH   1  15
BRANCH   1  30
ATOM     30  C   UNL     1      49.548   7.805  12.413  0.00  0.00    +0.000 C 
BRANCH  30  31
ATOM     31  O   UNL     1      49.768   9.210  12.579  0.00  0.00    +0.000 OA
BRANCH  31  33
ATOM     32  C   UNL     1      48.789  10.999  13.807  0.00  0.00    +0.000 C 
ATOM     33  C   UNL     1      48.557   9.963  12.711  0.00  0.00    +0.000 C 
ATOM     34  C   UNL     1      48.187  10.657  11.403  0.00  0.00    +0.000 C 
ENDBRANCH  31  33
ENDBRANCH  30  31
ENDBRANCH   1  30
TORSDOF 8
ENDMDL
