MODEL 1
REMARK VINA RESULT:    -8.600      0.000      0.000
REMARK INTER + INTRA:         -10.493
REMARK INTER:                 -10.611
REMARK INTRA:                   0.118
REMARK UNBOUND:                 0.118
REMARK  Name = 
REMARK  4 active torsions:
REMARK  status: ('A' for Active; 'I' for Inactive)
REMARK    1  A    between atoms: C_4  and  N_5
REMARK    2  A    between atoms: C_9  and  C_10
REMARK    3  A    between atoms: C_10  and  N_11
REMARK    4  A    between atoms: C_12  and  C_14
REMARK                            x       y       z     vdW  Elec       q    Type
REMARK                         _______ _______ _______ _____ _____    ______ ____
ROOT
ATOM      1  N   UNL     1      43.790   3.386   9.454  0.00  0.00    +0.000 N 
ATOM      2  C   UNL     1      44.339   4.447  10.193  0.00  0.00    +0.000 A 
ATOM      3  C   UNL     1      43.461   5.322  10.830  0.00  0.00    +0.000 A 
ATOM      4  C   UNL     1      43.968   6.403  11.554  0.00  0.00    +0.000 A 
ATOM      5  C   UNL     1      45.346   6.549  11.699  0.00  0.00    +0.000 A 
ATOM      6  C   UNL     1      46.143   5.604  11.065  0.00  0.00    +0.000 A 
ATOM      7  N   UNL     1      45.672   4.572  10.318  0.00  0.00    +0.000 NA
ATOM      8  H   UNL     1      43.556   2.661  10.130  0.00  0.00    +0.000 HD
ENDROOT
BRANCH   1  12
ATOM      9  N   UNL     1      46.916   0.165   7.539  0.00  0.00    +0.000 NA
ATOM     10  C   UNL     1      46.584   1.374   7.855  0.00  0.00    +0.000 C 
ATOM     11  C   UNL     1      45.480   1.683   8.836  0.00  0.00    +0.000 C 
ATOM     12  C   UNL     1      44.619   2.860   8.349  0.00  0.00    +0.000 C 
ATOM     13  C   UNL     1      45.510   4.014   7.843  0.00  0.00    +0.000 C 
ATOM     14  C   UNL     1      46.510   3.539   6.797  0.00  0.00    +0.000 C 
ATOM     15  N   UNL     1      47.271   2.415   7.305  0.00  0.00    +0.000 N 
ATOM     16  H   UNL     1      46.312  -0.506   8.023  0.00  0.00    +0.000 HD
ATOM     17  H   UNL     1      47.976   2.071   6.659  0.00  0.00    +0.000 HD
ENDBRANCH   1  12
BRANCH   5  18
ATOM     18  C   UNL     1      45.943   7.680  12.483  0.00  0.00    +0.000 C 
BRANCH  18  19
ATOM     19  N   UNL     1      46.552   7.225  13.711  0.00  0.00    +0.000 N 
ATOM     20  C   UNL     1      47.902   6.977  13.790  0.00  0.00    +0.000 C 
ATOM     21  O   UNL     1      48.654   7.166  12.838  0.00  0.00    +0.000 OA
ATOM     22  H   UNL     1      45.937   6.822  14.412  0.00  0.00    +0.000 HD
BRANCH  20  23
ATOM     23  C   UNL     1      48.413   6.536  15.102  0.00  0.00    +0.000 A 
ATOM     24  C   UNL     1      49.392   7.278  15.741  0.00  0.00    +0.000 A 
ATOM     25  S   UNL     1      49.830   6.657  17.270  0.00  0.00    +0.000 S 
ATOM     26  C   UNL     1      48.760   5.344  17.103  0.00  0.00    +0.000 A 
ATOM     27  N   UNL     1      48.662   4.391  18.070  0.00  0.00    +0.000 NA
ATOM     28  C   UNL     1      47.835   3.440  17.797  0.00  0.00    +0.000 A 
ATOM     29  N   UNL     1      47.089   3.355  16.652  0.00  0.00    +0.000 N 
ATOM     30  C   UNL     1      47.129   4.310  15.663  0.00  0.00    +0.000 A 
ATOM     31  O   UNL     1      46.414   4.234  14.671  0.00  0.00    +0.000 OA
ATOM     32  C   UNL     1      48.060   5.395  15.910  0.00  0.00    +0.000 A 
ATOM     33  H   UNL     1      46.447   2.591  16.507  0.00  0.00    +0.000 HD
ENDBRANCH  20  23
ENDBRANCH  18  19
ENDBRANCH   5  18
TORSDOF 4
ENDMDL
MODEL 2
REMARK VINA RESULT:    -8.517      3.790      8.373
REMARK INTER + INTRA:         -10.391
REMARK INTER:                  -9.605
REMARK INTRA:                  -0.786
REMARK UNBOUND:                 0.118
REMARK  Name = 
REMARK  4 active torsions:
REMARK  status: ('A' for Active; 'I' for Inactive)
REMARK    1  A    between atoms: C_4  and  N_5
REMARK    2  A    between atoms: C_9  and  C_10
REMARK    3  A    between atoms: C_10  and  N_11
REMARK    4  A    between atoms: C_12  and  C_14
REMARK                            x       y       z     vdW  Elec       q    Type
REMARK                         _______ _______ _______ _____ _____    ______ ____
ROOT
ATOM      1  N   UNL     1      50.969   2.875  18.197  0.00  0.00    +0.000 N 
ATOM      2  C   UNL     1      50.473   4.016  17.544  0.00  0.00    +0.000 A 
ATOM      3  C   UNL     1      49.091   4.163  17.447  0.00  0.00    +0.000 A 
ATOM      4  C   UNL     1      48.560   5.272  16.784  0.00  0.00    +0.000 A 
ATOM      5  C   UNL     1      49.416   6.258  16.298  0.00  0.00    +0.000 A 
ATOM      6  C   UNL     1      50.777   6.048  16.479  0.00  0.00    +0.000 A 
ATOM      7  N   UNL     1      51.315   4.955  17.079  0.00  0.00    +0.000 NA
ATOM      8  H   UNL     1      50.918   3.075  19.194  0.00  0.00    +0.000 HD
ENDROOT
BRANCH   1  12
ATOM      9  N   UNL     1      54.110  -0.504  16.607  0.00  0.00    +0.000 NA
ATOM     10  C   UNL     1      53.728   0.368  17.481  0.00  0.00    +0.000 C 
ATOM     11  C   UNL     1      52.321   0.910  17.528  0.00  0.00    +0.000 C 
ATOM     12  C   UNL     1      52.318   2.424  17.794  0.00  0.00    +0.000 C 
ATOM     13  C   UNL     1      53.289   2.776  18.941  0.00  0.00    +0.000 C 
ATOM     14  C   UNL     1      54.685   2.222  18.689  0.00  0.00    +0.000 C 
ATOM     15  N   UNL     1      54.618   0.800  18.419  0.00  0.00    +0.000 N 
ATOM     16  H   UNL     1      53.339  -0.727  15.969  0.00  0.00    +0.000 HD
ATOM     17  H   UNL     1      55.526   0.367  18.269  0.00  0.00    +0.000 HD
ENDBRANCH   1  12
BRANCH   5  18
ATOM     18  C   UNL     1      48.898   7.479  15.596  0.00  0.00    +0.000 C 
BRANCH  18  19
ATOM     19  N   UNL     1      47.734   7.189  14.792  0.00  0.00    +0.000 N 
ATOM     20  C   UNL     1      47.853   6.672  13.525  0.00  0.00    +0.000 C 
ATOM     21  O   UNL     1      48.945   6.397  13.034  0.00  0.00    +0.000 OA
ATOM     22  H   UNL     1      46.862   7.637  15.060  0.00  0.00    +0.000 HD
BRANCH  20  23
ATOM     23  C   UNL     1      46.594   6.397  12.806  0.00  0.00    +0.000 A 
ATOM     24  C   UNL     1      45.891   7.442  12.230  0.00  0.00    +0.000 A 
ATOM     25  S   UNL     1      44.488   6.942  11.394  0.00  0.00    +0.000 S 
ATOM     26  C   UNL     1      44.748   5.315  11.821  0.00  0.00    +0.000 A 
ATOM     27  N   UNL     1      43.876   4.342  11.442  0.00  0.00    +0.000 NA
ATOM     28  C   UNL     1      44.181   3.162  11.861  0.00  0.00    +0.000 A 
ATOM     29  N   UNL     1      45.281   2.859  12.617  0.00  0.00    +0.000 N 
ATOM     30  C   UNL     1      46.208   3.803  12.996  0.00  0.00    +0.000 A 
ATOM     31  O   UNL     1      47.210   3.495  13.632  0.00  0.00    +0.000 OA
ATOM     32  C   UNL     1      45.903   5.154  12.568  0.00  0.00    +0.000 A 
ATOM     33  H   UNL     1      45.472   1.910  12.899  0.00  0.00    +0.000 HD
ENDBRANCH  20  23
ENDBRANCH  18  19
ENDBRANCH   5  18
TORSDOF 4
ENDMDL
MODEL 3
REMARK VINA RESULT:    -8.375      1.866      2.722
REMARK INTER + INTRA:         -10.215
REMARK INTER:                 -10.330
REMARK INTRA:                   0.115
REMARK UNBOUND:                 0.118
REMARK  Name = 
REMARK  4 active torsions:
REMARK  status: ('A' for Active; 'I' for Inactive)
REMARK    1  A    between atoms: C_4  and  N_5
REMARK    2  A    between atoms: C_9  and  C_10
REMARK    3  A    between atoms: C_10  and  N_11
REMARK    4  A    between atoms: C_12  and  C_14
REMARK                            x       y       z     vdW  Elec       q    Type
REMARK                         _______ _______ _______ _____ _____    ______ ____
ROOT
ATOM      1  N   UNL     1      43.243   6.504  10.861  0.00  0.00    +0.000 N 
ATOM      2  C   UNL     1      44.326   7.018  11.592  0.00  0.00    +0.000 A 
ATOM      3  C   UNL     1      44.564   8.389  11.530  0.00  0.00    +0.000 A 
ATOM      4  C   UNL     1      45.646   8.934  12.224  0.00  0.00    +0.000 A 
ATOM      5  C   UNL     1      46.427   8.114  13.035  0.00  0.00    +0.000 A 
ATOM      6  C   UNL     1      46.089   6.767  13.071  0.00  0.00    +0.000 A 
ATOM      7  N   UNL     1      45.070   6.209  12.367  0.00  0.00    +0.000 NA
ATOM      8  H   UNL     1      42.413   6.676  11.425  0.00  0.00    +0.000 HD
ENDROOT
BRANCH   1  12
ATOM      9  N   UNL     1      42.940   1.710  11.719  0.00  0.00    +0.000 NA
ATOM     10  C   UNL     1      43.601   2.756  11.347  0.00  0.00    +0.000 C 
ATOM     11  C   UNL     1      43.144   4.160  11.656  0.00  0.00    +0.000 C 
ATOM     12  C   UNL     1      43.344   5.088  10.447  0.00  0.00    +0.000 C 
ATOM     13  C   UNL     1      44.743   4.882   9.829  0.00  0.00    +0.000 C 
ATOM     14  C   UNL     1      45.005   3.417   9.501  0.00  0.00    +0.000 C 
ATOM     15  N   UNL     1      44.774   2.593  10.670  0.00  0.00    +0.000 N 
ATOM     16  H   UNL     1      42.084   1.988  12.208  0.00  0.00    +0.000 HD
ATOM     17  H   UNL     1      44.960   1.605  10.520  0.00  0.00    +0.000 HD
ENDBRANCH   1  12
BRANCH   5  18
ATOM     18  C   UNL     1      47.589   8.652  13.819  0.00  0.00    +0.000 C 
BRANCH  18  19
ATOM     19  N   UNL     1      47.868   7.854  14.990  0.00  0.00    +0.000 N 
ATOM     20  C   UNL     1      48.832   6.874  14.973  0.00  0.00    +0.000 C 
ATOM     21  O   UNL     1      49.523   6.660  13.981  0.00  0.00    +0.000 OA
ATOM     22  H   UNL     1      47.157   7.830  15.716  0.00  0.00    +0.000 HD
BRANCH  20  23
ATOM     23  C   UNL     1      49.043   6.138  16.234  0.00  0.00    +0.000 A 
ATOM     24  C   UNL     1      50.008   6.570  17.128  0.00  0.00    +0.000 A 
ATOM     25  S   UNL     1      50.082   5.637  18.556  0.00  0.00    +0.000 S 
ATOM     26  C   UNL     1      48.859   4.591  18.000  0.00  0.00    +0.000 A 
ATOM     27  N   UNL     1      48.453   3.527  18.746  0.00  0.00    +0.000 NA
ATOM     28  C   UNL     1      47.542   2.805  18.189  0.00  0.00    +0.000 A 
ATOM     29  N   UNL     1      46.993   3.048  16.959  0.00  0.00    +0.000 N 
ATOM     30  C   UNL     1      47.347   4.128  16.184  0.00  0.00    +0.000 A 
ATOM     31  O   UNL     1      46.803   4.349  15.108  0.00  0.00    +0.000 OA
ATOM     32  C   UNL     1      48.384   4.965  16.755  0.00  0.00    +0.000 A 
ATOM     33  H   UNL     1      46.270   2.451  16.586  0.00  0.00    +0.000 HD
ENDBRANCH  20  23
ENDBRANCH  18  19
ENDBRANCH   5  18
TORSDOF 4
ENDMDL
MODEL 4
REMARK VINA RESULT:    -8.333      3.718      5.766
REMARK INTER + INTRA:         -10.163
REMARK INTER:                  -9.112
REMARK INTRA:                  -1.052
REMARK UNBOUND:                 0.118
REMARK  Name = 
REMARK  4 active torsions:
REMARK  status: ('A' for Active; 'I' for Inactive)
REMARK    1  A    between atoms: C_4  and  N_5
REMARK    2  A    between atoms: C_9  and  C_10
REMARK    3  A    between atoms: C_10  and  N_11
REMARK    4  A    between atoms: C_12  and  C_14
REMARK                            x       y       z     vdW  Elec       q    Type
REMARK                         _______ _______ _______ _____ _____    ______ ____
ROOT
ATOM      1  N   UNL     1      45.943   4.032  13.664  0.00  0.00    +0.000 N 
ATOM      2  C   UNL     1      46.823   4.578  14.612  0.00  0.00    +0.000 A 
ATOM      3  C   UNL     1      46.997   3.894  15.813  0.00  0.00    +0.000 A 
ATOM      4  C   UNL     1      47.846   4.418  16.790  0.00  0.00    +0.000 A 
ATOM      5  C   UNL     1      48.571   5.577  16.522  0.00  0.00    +0.000 A 
ATOM      6  C   UNL     1      48.367   6.168  15.281  0.00  0.00    +0.000 A 
ATOM      7  N   UNL     1      47.512   5.700  14.336  0.00  0.00    +0.000 NA
ATOM      8  H   UNL     1      46.466   3.307  13.177  0.00  0.00    +0.000 HD
ENDROOT
BRANCH   1  12
ATOM      9  N   UNL     1      42.087   6.334  11.753  0.00  0.00    +0.000 NA
ATOM     10  C   UNL     1      43.132   5.581  11.637  0.00  0.00    +0.000 C 
ATOM     11  C   UNL     1      43.786   4.909  12.819  0.00  0.00    +0.000 C 
ATOM     12  C   UNL     1      45.318   4.986  12.724  0.00  0.00    +0.000 C 
ATOM     13  C   UNL     1      45.793   4.618  11.302  0.00  0.00    +0.000 C 
ATOM     14  C   UNL     1      45.091   5.451  10.238  0.00  0.00    +0.000 C 
ATOM     15  N   UNL     1      43.654   5.359  10.397  0.00  0.00    +0.000 N 
ATOM     16  H   UNL     1      41.815   6.412  12.739  0.00  0.00    +0.000 HD
ATOM     17  H   UNL     1      43.129   5.875   9.696  0.00  0.00    +0.000 HD
ENDBRANCH   1  12
BRANCH   5  18
ATOM     18  C   UNL     1      49.512   6.172  17.529  0.00  0.00    +0.000 C 
BRANCH  18  19
ATOM     19  N   UNL     1      50.504   5.220  17.971  0.00  0.00    +0.000 N 
ATOM     20  C   UNL     1      51.766   5.198  17.427  0.00  0.00    +0.000 C 
ATOM     21  O   UNL     1      52.119   6.006  16.572  0.00  0.00    +0.000 OA
ATOM     22  H   UNL     1      50.169   4.400  18.469  0.00  0.00    +0.000 HD
BRANCH  20  23
ATOM     23  C   UNL     1      52.699   4.195  17.972  0.00  0.00    +0.000 A 
ATOM     24  C   UNL     1      53.860   4.610  18.603  0.00  0.00    +0.000 A 
ATOM     25  S   UNL     1      54.798   3.324  19.222  0.00  0.00    +0.000 S 
ATOM     26  C   UNL     1      53.706   2.166  18.618  0.00  0.00    +0.000 A 
ATOM     27  N   UNL     1      53.935   0.834  18.779  0.00  0.00    +0.000 NA
ATOM     28  C   UNL     1      53.042   0.073  18.246  0.00  0.00    +0.000 A 
ATOM     29  N   UNL     1      51.935   0.517  17.572  0.00  0.00    +0.000 N 
ATOM     30  C   UNL     1      51.645   1.852  17.413  0.00  0.00    +0.000 A 
ATOM     31  O   UNL     1      50.621   2.220  16.849  0.00  0.00    +0.000 OA
ATOM     32  C   UNL     1      52.629   2.755  17.978  0.00  0.00    +0.000 A 
ATOM     33  H   UNL     1      51.265  -0.133  17.192  0.00  0.00    +0.000 HD
ENDBRANCH  20  23
ENDBRANCH  18  19
ENDBRANCH   5  18
TORSDOF 4
ENDMDL
MODEL 5
REMARK VINA RESULT:    -8.216      1.444      2.154
REMARK INTER + INTRA:         -10.020
REMARK INTER:                  -9.195
REMARK INTRA:                  -0.824
REMARK UNBOUND:                 0.118
REMARK  Name = 
REMARK  4 active torsions:
REMARK  status: ('A' for Active; 'I' for Inactive)
REMARK    1  A    between atoms: C_4  and  N_5
REMARK    2  A    between atoms: C_9  and  C_10
REMARK    3  A    between atoms: C_10  and  N_11
REMARK    4  A    between atoms: C_12  and  C_14
REMARK                            x       y       z     vdW  Elec       q    Type
REMARK                         _______ _______ _______ _____ _____    ______ ____
ROOT
ATOM      1  N   UNL     1      44.542   5.353  10.423  0.00  0.00    +0.000 N 
ATOM      2  C   UNL     1      45.255   6.198  11.288  0.00  0.00    +0.000 A 
ATOM      3  C   UNL     1      44.786   7.498  11.465  0.00  0.00    +0.000 A 
ATOM      4  C   UNL     1      45.482   8.375  12.299  0.00  0.00    +0.000 A 
ATOM      5  C   UNL     1      46.591   7.918  13.006  0.00  0.00    +0.000 A 
ATOM      6  C   UNL     1      46.960   6.595  12.801  0.00  0.00    +0.000 A 
ATOM      7  N   UNL     1      46.325   5.739  11.960  0.00  0.00    +0.000 NA
ATOM      8  H   UNL     1      43.753   4.997  10.960  0.00  0.00    +0.000 HD
ENDROOT
BRANCH   1  12
ATOM      9  N   UNL     1      47.382   3.542   6.891  0.00  0.00    +0.000 NA
ATOM     10  C   UNL     1      46.301   3.522   7.600  0.00  0.00    +0.000 C 
ATOM     11  C   UNL     1      45.841   4.706   8.415  0.00  0.00    +0.000 C 
ATOM     12  C   UNL     1      45.312   4.262   9.789  0.00  0.00    +0.000 C 
ATOM     13  C   UNL     1      44.370   3.049   9.642  0.00  0.00    +0.000 C 
ATOM     14  C   UNL     1      45.025   1.915   8.865  0.00  0.00    +0.000 C 
ATOM     15  N   UNL     1      45.526   2.401   7.595  0.00  0.00    +0.000 N 
ATOM     16  H   UNL     1      47.859   4.443   6.998  0.00  0.00    +0.000 HD
ATOM     17  H   UNL     1      45.951   1.680   7.018  0.00  0.00    +0.000 HD
ENDBRANCH   1  12
BRANCH   5  18
ATOM     18  C   UNL     1      47.363   8.813  13.932  0.00  0.00    +0.000 C 
BRANCH  18  19
ATOM     19  N   UNL     1      47.736   8.138  15.152  0.00  0.00    +0.000 N 
ATOM     20  C   UNL     1      49.028   7.725  15.373  0.00  0.00    +0.000 C 
ATOM     21  O   UNL     1      49.928   7.943  14.565  0.00  0.00    +0.000 OA
ATOM     22  H   UNL     1      46.988   7.725  15.701  0.00  0.00    +0.000 HD
BRANCH  20  23
ATOM     23  C   UNL     1      49.295   7.064  16.664  0.00  0.00    +0.000 A 
ATOM     24  C   UNL     1      50.036   7.722  17.632  0.00  0.00    +0.000 A 
ATOM     25  S   UNL     1      50.204   6.838  19.083  0.00  0.00    +0.000 S 
ATOM     26  C   UNL     1      49.335   5.521  18.443  0.00  0.00    +0.000 A 
ATOM     27  N   UNL     1      49.135   4.390  19.174  0.00  0.00    +0.000 NA
ATOM     28  C   UNL     1      48.487   3.464  18.554  0.00  0.00    +0.000 A 
ATOM     29  N   UNL     1      48.012   3.563  17.274  0.00  0.00    +0.000 N 
ATOM     30  C   UNL     1      48.160   4.697  16.509  0.00  0.00    +0.000 A 
ATOM     31  O   UNL     1      47.682   4.775  15.384  0.00  0.00    +0.000 OA
ATOM     32  C   UNL     1      48.900   5.765  17.152  0.00  0.00    +0.000 A 
ATOM     33  H   UNL     1      47.497   2.805  16.852  0.00  0.00    +0.000 HD
ENDBRANCH  20  23
ENDBRANCH  18  19
ENDBRANCH   5  18
TORSDOF 4
ENDMDL
MODEL 6
REMARK VINA RESULT:    -7.963      2.878      8.829
REMARK INTER + INTRA:          -9.708
REMARK INTER:                  -8.779
REMARK INTRA:                  -0.928
REMARK UNBOUND:                 0.118
REMARK  Name = 
REMARK  4 active torsions:
REMARK  status: ('A' for Active; 'I' for Inactive)
REMARK    1  A    between atoms: C_4  and  N_5
REMARK    2  A    between atoms: C_9  and  C_10
REMARK    3  A    between atoms: C_10  and  N_11
REMARK    4  A    between atoms: C_12  and  C_14
REMARK                            x       y       z     vdW  Elec       q    Type
REMARK                         _______ _______ _______ _____ _____    ______ ____
ROOT
ATOM      1  N   UNL     1      49.934   7.494  17.678  0.00  0.00    +0.000 N 
ATOM      2  C   UNL     1      49.352   7.551  16.401  0.00  0.00    +0.000 A 
ATOM      3  C   UNL     1      48.696   8.723  16.034  0.00  0.00    +0.000 A 
ATOM      4  C   UNL     1      48.084   8.809  14.782  0.00  0.00    +0.000 A 
ATOM      5  C   UNL     1      48.205   7.752  13.883  0.00  0.00    +0.000 A 
ATOM      6  C   UNL     1      48.914   6.640  14.319  0.00  0.00    +0.000 A 
ATOM      7  N   UNL     1      49.477   6.518  15.549  0.00  0.00    +0.000 NA
ATOM      8  H   UNL     1      50.830   7.973  17.603  0.00  0.00    +0.000 HD
ENDROOT
BRANCH   1  12
ATOM      9  N   UNL     1      48.432   3.842  20.546  0.00  0.00    +0.000 NA
ATOM     10  C   UNL     1      49.314   4.718  20.193  0.00  0.00    +0.000 C 
ATOM     11  C   UNL     1      48.980   5.903  19.320  0.00  0.00    +0.000 C 
ATOM     12  C   UNL     1      50.079   6.148  18.273  0.00  0.00    +0.000 C 
ATOM     13  C   UNL     1      51.477   6.074  18.924  0.00  0.00    +0.000 C 
ATOM     14  C   UNL     1      51.672   4.775  19.695  0.00  0.00    +0.000 C 
ATOM     15  N   UNL     1      50.594   4.588  20.644  0.00  0.00    +0.000 N 
ATOM     16  H   UNL     1      47.523   4.067  20.127  0.00  0.00    +0.000 HD
ATOM     17  H   UNL     1      50.685   3.748  21.210  0.00  0.00    +0.000 HD
ENDBRANCH   1  12
BRANCH   5  18
ATOM     18  C   UNL     1      47.584   7.800  12.517  0.00  0.00    +0.000 C 
BRANCH  18  19
ATOM     19  N   UNL     1      46.894   6.574  12.192  0.00  0.00    +0.000 N 
ATOM     20  C   UNL     1      45.521   6.506  12.191  0.00  0.00    +0.000 C 
ATOM     21  O   UNL     1      44.822   7.488  12.429  0.00  0.00    +0.000 OA
ATOM     22  H   UNL     1      47.428   5.712  12.249  0.00  0.00    +0.000 HD
BRANCH  20  23
ATOM     23  C   UNL     1      44.928   5.207  11.824  0.00  0.00    +0.000 A 
ATOM     24  C   UNL     1      44.214   4.487  12.767  0.00  0.00    +0.000 A 
ATOM     25  S   UNL     1      43.552   3.035  12.161  0.00  0.00    +0.000 S 
ATOM     26  C   UNL     1      44.244   3.297  10.628  0.00  0.00    +0.000 A 
ATOM     27  N   UNL     1      44.086   2.393   9.623  0.00  0.00    +0.000 NA
ATOM     28  C   UNL     1      44.689   2.706   8.527  0.00  0.00    +0.000 A 
ATOM     29  N   UNL     1      45.430   3.841   8.337  0.00  0.00    +0.000 N 
ATOM     30  C   UNL     1      45.589   4.799   9.311  0.00  0.00    +0.000 A 
ATOM     31  O   UNL     1      46.217   5.830   9.097  0.00  0.00    +0.000 OA
ATOM     32  C   UNL     1      44.946   4.488  10.574  0.00  0.00    +0.000 A 
ATOM     33  H   UNL     1      45.863   4.035   7.447  0.00  0.00    +0.000 HD
ENDBRANCH  20  23
ENDBRANCH  18  19
ENDBRANCH   5  18
TORSDOF 4
ENDMDL
MODEL 7
REMARK VINA RESULT:    -7.663      3.763      9.127
REMARK INTER + INTRA:          -9.337
REMARK INTER:                  -8.541
REMARK INTRA:                  -0.796
REMARK UNBOUND:                 0.118
REMARK  Name = 
REMARK  4 active torsions:
REMARK  status: ('A' for Active; 'I' for Inactive)
REMARK    1  A    between atoms: C_4  and  N_5
REMARK    2  A    between atoms: C_9  and  C_10
REMARK    3  A    between atoms: C_10  and  N_11
REMARK    4  A    between atoms: C_12  and  C_14
REMARK                            x       y       z     vdW  Elec       q    Type
REMARK                         _______ _______ _______ _____ _____    ______ ____
ROOT
ATOM      1  N   UNL     1      52.515   4.842  18.311  0.00  0.00    +0.000 N 
ATOM      2  C   UNL     1      51.209   4.513  17.911  0.00  0.00    +0.000 A 
ATOM      3  C   UNL     1      50.917   3.172  17.674  0.00  0.00    +0.000 A 
ATOM      4  C   UNL     1      49.637   2.808  17.251  0.00  0.00    +0.000 A 
ATOM      5  C   UNL     1      48.645   3.780  17.148  0.00  0.00    +0.000 A 
ATOM      6  C   UNL     1      49.016   5.085  17.447  0.00  0.00    +0.000 A 
ATOM      7  N   UNL     1      50.266   5.466  17.814  0.00  0.00    +0.000 NA
ATOM      8  H   UNL     1      52.560   4.654  19.311  0.00  0.00    +0.000 HD
ENDROOT
BRANCH   1  12
ATOM      9  N   UNL     1      54.192   8.229  15.225  0.00  0.00    +0.000 NA
ATOM     10  C   UNL     1      54.296   7.528  16.305  0.00  0.00    +0.000 C 
ATOM     11  C   UNL     1      53.493   6.273  16.541  0.00  0.00    +0.000 C 
ATOM     12  C   UNL     1      52.975   6.209  17.987  0.00  0.00    +0.000 C 
ATOM     13  C   UNL     1      54.097   6.572  18.983  0.00  0.00    +0.000 C 
ATOM     14  C   UNL     1      54.743   7.908  18.644  0.00  0.00    +0.000 C 
ATOM     15  N   UNL     1      55.185   7.916  17.264  0.00  0.00    +0.000 N 
ATOM     16  H   UNL     1      53.486   7.821  14.604  0.00  0.00    +0.000 HD
ATOM     17  H   UNL     1      55.651   8.776  16.986  0.00  0.00    +0.000 HD
ENDBRANCH   1  12
BRANCH   5  18
ATOM     18  C   UNL     1      47.247   3.440  16.719  0.00  0.00    +0.000 C 
BRANCH  18  19
ATOM     19  N   UNL     1      46.728   4.391  15.764  0.00  0.00    +0.000 N 
ATOM     20  C   UNL     1      46.781   4.149  14.413  0.00  0.00    +0.000 C 
ATOM     21  O   UNL     1      47.235   3.102  13.957  0.00  0.00    +0.000 OA
ATOM     22  H   UNL     1      46.593   5.345  16.087  0.00  0.00    +0.000 HD
BRANCH  20  23
ATOM     23  C   UNL     1      46.201   5.183  13.536  0.00  0.00    +0.000 A 
ATOM     24  C   UNL     1      46.923   6.333  13.261  0.00  0.00    +0.000 A 
ATOM     25  S   UNL     1      46.128   7.398  12.188  0.00  0.00    +0.000 S 
ATOM     26  C   UNL     1      44.768   6.378  12.099  0.00  0.00    +0.000 A 
ATOM     27  N   UNL     1      43.681   6.722  11.355  0.00  0.00    +0.000 NA
ATOM     28  C   UNL     1      42.713   5.871  11.403  0.00  0.00    +0.000 A 
ATOM     29  N   UNL     1      42.731   4.704  12.120  0.00  0.00    +0.000 N 
ATOM     30  C   UNL     1      43.819   4.299  12.858  0.00  0.00    +0.000 A 
ATOM     31  O   UNL     1      43.825   3.226  13.450  0.00  0.00    +0.000 OA
ATOM     32  C   UNL     1      44.930   5.231  12.855  0.00  0.00    +0.000 A 
ATOM     33  H   UNL     1      41.945   4.073  12.101  0.00  0.00    +0.000 HD
ENDBRANCH  20  23
ENDBRANCH  18  19
ENDBRANCH   5  18
TORSDOF 4
ENDMDL
MODEL 8
REMARK VINA RESULT:    -7.649      2.430      3.556
REMARK INTER + INTRA:          -9.320
REMARK INTER:                  -9.765
REMARK INTRA:                   0.445
REMARK UNBOUND:                 0.118
REMARK  Name = 
REMARK  4 active torsions:
REMARK  status: ('A' for Active; 'I' for Inactive)
REMARK    1  A    between atoms: C_4  and  N_5
REMARK    2  A    between atoms: C_9  and  C_10
REMARK    3  A    between atoms: C_10  and  N_11
REMARK    4  A    between atoms: C_12  and  C_14
REMARK                            x       y       z     vdW  Elec       q    Type
REMARK                         _______ _______ _______ _____ _____    ______ ____
ROOT
ATOM      1  N   UNL     1      44.196   6.422  10.929  0.00  0.00    +0.000 N 
ATOM      2  C   UNL     1      45.347   6.508  11.729  0.00  0.00    +0.000 A 
ATOM      3  C   UNL     1      46.032   7.721  11.759  0.00  0.00    +0.000 A 
ATOM      4  C   UNL     1      47.194   7.838  12.523  0.00  0.00    +0.000 A 
ATOM      5  C   UNL     1      47.612   6.767  13.310  0.00  0.00    +0.000 A 
ATOM      6  C   UNL     1      46.843   5.612  13.251  0.00  0.00    +0.000 A 
ATOM      7  N   UNL     1      45.736   5.462  12.479  0.00  0.00    +0.000 NA
ATOM      8  H   UNL     1      43.441   6.836  11.473  0.00  0.00    +0.000 HD
ENDROOT
BRANCH   1  12
ATOM      9  N   UNL     1      42.870   1.773  11.596  0.00  0.00    +0.000 NA
ATOM     10  C   UNL     1      43.681   2.666  11.132  0.00  0.00    +0.000 C 
ATOM     11  C   UNL     1      43.674   4.097  11.609  0.00  0.00    +0.000 C 
ATOM     12  C   UNL     1      43.841   5.075  10.434  0.00  0.00    +0.000 C 
ATOM     13  C   UNL     1      44.975   4.609   9.496  0.00  0.00    +0.000 C 
ATOM     14  C   UNL     1      44.778   3.168   9.045  0.00  0.00    +0.000 C 
ATOM     15  N   UNL     1      44.600   2.302  10.193  0.00  0.00    +0.000 N 
ATOM     16  H   UNL     1      42.237   2.193  12.285  0.00  0.00    +0.000 HD
ATOM     17  H   UNL     1      44.491   1.320   9.954  0.00  0.00    +0.000 HD
ENDBRANCH   1  12
BRANCH   5  18
ATOM     18  C   UNL     1      48.842   6.847  14.166  0.00  0.00    +0.000 C 
BRANCH  18  19
ATOM     19  N   UNL     1      48.521   7.055  15.558  0.00  0.00    +0.000 N 
ATOM     20  C   UNL     1      49.296   6.519  16.558  0.00  0.00    +0.000 C 
ATOM     21  O   UNL     1      50.313   5.873  16.317  0.00  0.00    +0.000 OA
ATOM     22  H   UNL     1      47.573   7.350  15.776  0.00  0.00    +0.000 HD
BRANCH  20  23
ATOM     23  C   UNL     1      48.881   6.815  17.942  0.00  0.00    +0.000 A 
ATOM     24  C   UNL     1      48.631   8.124  18.318  0.00  0.00    +0.000 A 
ATOM     25  S   UNL     1      48.110   8.282  19.937  0.00  0.00    +0.000 S 
ATOM     26  C   UNL     1      48.254   6.607  20.203  0.00  0.00    +0.000 A 
ATOM     27  N   UNL     1      47.983   6.065  21.422  0.00  0.00    +0.000 NA
ATOM     28  C   UNL     1      48.163   4.789  21.487  0.00  0.00    +0.000 A 
ATOM     29  N   UNL     1      48.582   4.003  20.448  0.00  0.00    +0.000 N 
ATOM     30  C   UNL     1      48.836   4.501  19.191  0.00  0.00    +0.000 A 
ATOM     31  O   UNL     1      49.162   3.765  18.266  0.00  0.00    +0.000 OA
ATOM     32  C   UNL     1      48.667   5.936  19.066  0.00  0.00    +0.000 A 
ATOM     33  H   UNL     1      48.688   3.006  20.562  0.00  0.00    +0.000 HD
ENDBRANCH  20  23
ENDBRANCH  18  19
ENDBRANCH   5  18
TORSDOF 4
ENDMDL
MODEL 9
REMARK VINA RESULT:    -7.621      3.620      6.017
REMARK INTER + INTRA:          -9.285
REMARK INTER:                  -8.428
REMARK INTRA:                  -0.857
REMARK UNBOUND:                 0.118
REMARK  Name = 
REMARK  4 active torsions:
REMARK  status: ('A' for Active; 'I' for Inactive)
REMARK    1  A    between atoms: C_4  and  N_5
REMARK    2  A    between atoms: C_9  and  C_10
REMARK    3  A    between atoms: C_10  and  N_11
REMARK    4  A    between atoms: C_12  and  C_14
REMARK                            x       y       z     vdW  Elec       q    Type
REMARK                         _______ _______ _______ _____ _____    ______ ____
ROOT
ATOM      1  N   UNL     1      42.966   8.455  10.664  0.00  0.00    +0.000 N 
ATOM      2  C   UNL     1      43.692   7.453  11.328  0.00  0.00    +0.000 A 
ATOM      3  C   UNL     1      43.099   6.201  11.470  0.00  0.00    +0.000 A 
ATOM      4  C   UNL     1      43.780   5.187  12.146  0.00  0.00    +0.000 A 
ATOM      5  C   UNL     1      45.077   5.413  12.600  0.00  0.00    +0.000 A 
ATOM      6  C   UNL     1      45.605   6.678  12.375  0.00  0.00    +0.000 A 
ATOM      7  N   UNL     1      44.943   7.692  11.762  0.00  0.00    +0.000 NA
ATOM      8  H   UNL     1      43.090   8.282   9.668  0.00  0.00    +0.000 HD
ENDROOT
BRANCH   1  12
ATOM      9  N   UNL     1      41.789  12.889  12.329  0.00  0.00    +0.000 NA
ATOM     10  C   UNL     1      42.264  12.110  11.413  0.00  0.00    +0.000 C 
ATOM     11  C   UNL     1      42.019  10.622  11.404  0.00  0.00    +0.000 C 
ATOM     12  C   UNL     1      43.294   9.851  11.025  0.00  0.00    +0.000 C 
ATOM     13  C   UNL     1      43.978  10.500   9.802  0.00  0.00    +0.000 C 
ATOM     14  C   UNL     1      44.226  11.987  10.018  0.00  0.00    +0.000 C 
ATOM     15  N   UNL     1      42.996  12.651  10.398  0.00  0.00    +0.000 N 
ATOM     16  H   UNL     1      41.269  12.343  13.023  0.00  0.00    +0.000 HD
ATOM     17  H   UNL     1      43.094  13.654  10.529  0.00  0.00    +0.000 HD
ENDBRANCH   1  12
BRANCH   5  18
ATOM     18  C   UNL     1      45.862   4.351  13.314  0.00  0.00    +0.000 C 
BRANCH  18  19
ATOM     19  N   UNL     1      46.458   4.845  14.533  0.00  0.00    +0.000 N 
ATOM     20  C   UNL     1      47.330   4.074  15.264  0.00  0.00    +0.000 C 
ATOM     21  O   UNL     1      47.671   2.953  14.898  0.00  0.00    +0.000 OA
ATOM     22  H   UNL     1      46.007   5.636  14.982  0.00  0.00    +0.000 HD
BRANCH  20  23
ATOM     23  C   UNL     1      47.891   4.692  16.481  0.00  0.00    +0.000 A 
ATOM     24  C   UNL     1      47.584   4.163  17.723  0.00  0.00    +0.000 A 
ATOM     25  S   UNL     1      48.358   4.964  19.017  0.00  0.00    +0.000 S 
ATOM     26  C   UNL     1      49.088   6.080  17.959  0.00  0.00    +0.000 A 
ATOM     27  N   UNL     1      49.879   7.082  18.433  0.00  0.00    +0.000 NA
ATOM     28  C   UNL     1      50.341   7.870  17.523  0.00  0.00    +0.000 A 
ATOM     29  N   UNL     1      50.093   7.748  16.182  0.00  0.00    +0.000 N 
ATOM     30  C   UNL     1      49.329   6.733  15.654  0.00  0.00    +0.000 A 
ATOM     31  O   UNL     1      49.164   6.620  14.445  0.00  0.00    +0.000 OA
ATOM     32  C   UNL     1      48.767   5.827  16.637  0.00  0.00    +0.000 A 
ATOM     33  H   UNL     1      50.499   8.390  15.519  0.00  0.00    +0.000 HD
ENDBRANCH  20  23
ENDBRANCH  18  19
ENDBRANCH   5  18
TORSDOF 4
ENDMDL
