MODEL 1
REMARK VINA RESULT:    -8.750      0.000      0.000
REMARK INTER + INTRA:         -12.674
REMARK INTER:                 -11.819
REMARK INTRA:                  -0.856
REMARK UNBOUND:                -0.856
REMARK  Name = 
REMARK  6 active torsions:
REMARK  status: ('A' for Active; 'I' for Inactive)
REMARK    1  A    between atoms: C_2  and  C_4
REMARK    2  A    between atoms: N_8  and  C_9
REMARK    3  A    between atoms: C_9  and  C_10
REMARK    4  A    between atoms: C_10  and  C_11
REMARK    5  A    between atoms: C_15  and  O_16
REMARK    6  A    between atoms: O_16  and  C_17
REMARK                            x       y       z     vdW  Elec       q    Type
REMARK                         _______ _______ _______ _____ _____    ______ ____
ROOT
ATOM      1  C   UNL     1      46.518   2.499   7.682  0.00  0.00    +0.000 A 
ATOM      2  C   UNL     1      45.822   1.925   8.734  0.00  0.00    +0.000 A 
ATOM      3  C   UNL     1      45.005   2.727   9.526  0.00  0.00    +0.000 A 
ATOM      4  C   UNL     1      44.890   4.091   9.265  0.00  0.00    +0.000 A 
ATOM      5  N   UNL     1      44.071   4.916  10.003  0.00  0.00    +0.000 N 
ATOM      6  N   UNL     1      45.587   4.666   8.265  0.00  0.00    +0.000 NA
ATOM      7  C   UNL     1      46.392   3.869   7.506  0.00  0.00    +0.000 A 
ATOM      8  H   UNL     1      44.054   5.883   9.708  0.00  0.00    +0.000 HD
ENDROOT
BRANCH   1  10
ATOM      9  N   UNL     1      48.463   2.344   6.239  0.00  0.00    +0.000 N 
ATOM     10  C   UNL     1      47.376   1.709   6.777  0.00  0.00    +0.000 C 
ATOM     11  O   UNL     1      47.141   0.534   6.539  0.00  0.00    +0.000 OA
ATOM     12  H   UNL     1      49.097   1.768   5.697  0.00  0.00    +0.000 HD
ATOM     13  H   UNL     1      48.815   3.221   6.595  0.00  0.00    +0.000 HD
ENDBRANCH   1  10
BRANCH   5  14
ATOM     14  C   UNL     1      43.213   4.402  11.049  0.00  0.00    +0.000 C 
BRANCH  14  15
ATOM     15  C   UNL     1      43.271   5.205  12.347  0.00  0.00    +0.000 C 
BRANCH  15  16
ATOM     16  C   UNL     1      44.721   5.391  12.745  0.00  0.00    +0.000 A 
ATOM     17  C   UNL     1      45.351   6.631  12.587  0.00  0.00    +0.000 A 
ATOM     18  C   UNL     1      46.651   6.829  13.059  0.00  0.00    +0.000 A 
ATOM     19  C   UNL     1      47.338   5.791  13.691  0.00  0.00    +0.000 A 
ATOM     20  C   UNL     1      46.726   4.550  13.846  0.00  0.00    +0.000 A 
ATOM     21  C   UNL     1      45.421   4.356  13.384  0.00  0.00    +0.000 A 
BRANCH  20  22
ATOM     22  O   UNL     1      47.298   3.476  14.483  0.00  0.00    +0.000 OA
BRANCH  22  23
ATOM     23  C   UNL     1      47.934   3.686  15.763  0.00  0.00    +0.000 C 
ATOM     24  C   UNL     1      48.393   2.422  16.531  0.00  0.00    +0.000 C 
ATOM     25  C   UNL     1      47.772   3.007  17.808  0.00  0.00    +0.000 C 
ATOM     26  C   UNL     1      46.948   3.955  16.928  0.00  0.00    +0.000 C 
ENDBRANCH  22  23
ENDBRANCH  20  22
ENDBRANCH  15  16
ENDBRANCH  14  15
ENDBRANCH   5  14
TORSDOF 6
ENDMDL
MODEL 2
REMARK VINA RESULT:    -8.212      1.863      3.405
REMARK INTER + INTRA:         -11.948
REMARK INTER:                 -10.987
REMARK INTRA:                  -0.960
REMARK UNBOUND:                -0.856
REMARK  Name = 
REMARK  6 active torsions:
REMARK  status: ('A' for Active; 'I' for Inactive)
REMARK    1  A    between atoms: C_2  and  C_4
REMARK    2  A    between atoms: N_8  and  C_9
REMARK    3  A    between atoms: C_9  and  C_10
REMARK    4  A    between atoms: C_10  and  C_11
REMARK    5  A    between atoms: C_15  and  O_16
REMARK    6  A    between atoms: O_16  and  C_17
REMARK                            x       y       z     vdW  Elec       q    Type
REMARK                         _______ _______ _______ _____ _____    ______ ____
ROOT
ATOM      1  C   UNL     1      46.525   2.509   7.681  0.00  0.00    +0.000 A 
ATOM      2  C   UNL     1      45.749   1.957   8.689  0.00  0.00    +0.000 A 
ATOM      3  C   UNL     1      44.922   2.786   9.440  0.00  0.00    +0.000 A 
ATOM      4  C   UNL     1      44.876   4.155   9.184  0.00  0.00    +0.000 A 
ATOM      5  N   UNL     1      44.050   5.008   9.882  0.00  0.00    +0.000 N 
ATOM      6  N   UNL     1      45.649   4.707   8.228  0.00  0.00    +0.000 NA
ATOM      7  C   UNL     1      46.463   3.884   7.509  0.00  0.00    +0.000 A 
ATOM      8  H   UNL     1      44.087   5.977   9.594  0.00  0.00    +0.000 HD
ENDROOT
BRANCH   1  10
ATOM      9  N   UNL     1      48.512   2.301   6.303  0.00  0.00    +0.000 N 
ATOM     10  C   UNL     1      47.401   1.691   6.819  0.00  0.00    +0.000 C 
ATOM     11  O   UNL     1      47.158   0.514   6.596  0.00  0.00    +0.000 OA
ATOM     12  H   UNL     1      49.154   1.707   5.792  0.00  0.00    +0.000 HD
ATOM     13  H   UNL     1      48.864   3.180   6.653  0.00  0.00    +0.000 HD
ENDBRANCH   1  10
BRANCH   5  14
ATOM     14  C   UNL     1      43.115   4.523  10.875  0.00  0.00    +0.000 C 
BRANCH  14  15
ATOM     15  C   UNL     1      43.065   5.371  12.144  0.00  0.00    +0.000 C 
BRANCH  15  16
ATOM     16  C   UNL     1      44.457   5.452  12.737  0.00  0.00    +0.000 A 
ATOM     17  C   UNL     1      45.131   4.290  13.135  0.00  0.00    +0.000 A 
ATOM     18  C   UNL     1      46.455   4.357  13.575  0.00  0.00    +0.000 A 
ATOM     19  C   UNL     1      47.121   5.584  13.626  0.00  0.00    +0.000 A 
ATOM     20  C   UNL     1      46.459   6.747  13.241  0.00  0.00    +0.000 A 
ATOM     21  C   UNL     1      45.137   6.678  12.790  0.00  0.00    +0.000 A 
BRANCH  20  22
ATOM     22  O   UNL     1      47.030   7.995  13.218  0.00  0.00    +0.000 OA
BRANCH  22  23
ATOM     23  C   UNL     1      48.447   8.106  12.955  0.00  0.00    +0.000 C 
ATOM     24  C   UNL     1      49.017   9.535  12.789  0.00  0.00    +0.000 C 
ATOM     25  C   UNL     1      49.786   9.054  11.550  0.00  0.00    +0.000 C 
ATOM     26  C   UNL     1      48.842   7.847  11.480  0.00  0.00    +0.000 C 
ENDBRANCH  22  23
ENDBRANCH  20  22
ENDBRANCH  15  16
ENDBRANCH  14  15
ENDBRANCH   5  14
TORSDOF 6
ENDMDL
MODEL 3
REMARK VINA RESULT:    -7.866      1.735      2.128
REMARK INTER + INTRA:         -11.481
REMARK INTER:                 -10.468
REMARK INTRA:                  -1.013
REMARK UNBOUND:                -0.856
REMARK  Name = 
REMARK  6 active torsions:
REMARK  status: ('A' for Active; 'I' for Inactive)
REMARK    1  A    between atoms: C_2  and  C_4
REMARK    2  A    between atoms: N_8  and  C_9
REMARK    3  A    between atoms: C_9  and  C_10
REMARK    4  A    between atoms: C_10  and  C_11
REMARK    5  A    between atoms: C_15  and  O_16
REMARK    6  A    between atoms: O_16  and  C_17
REMARK                            x       y       z     vdW  Elec       q    Type
REMARK                         _______ _______ _______ _____ _____    ______ ____
ROOT
ATOM      1  C   UNL     1      46.414   2.755   7.359  0.00  0.00    +0.000 A 
ATOM      2  C   UNL     1      45.800   3.902   7.840  0.00  0.00    +0.000 A 
ATOM      3  C   UNL     1      44.965   3.811   8.949  0.00  0.00    +0.000 A 
ATOM      4  C   UNL     1      44.748   2.581   9.569  0.00  0.00    +0.000 A 
ATOM      5  N   UNL     1      43.954   2.449  10.687  0.00  0.00    +0.000 N 
ATOM      6  N   UNL     1      45.314   1.455   9.091  0.00  0.00    +0.000 NA
ATOM      7  C   UNL     1      46.119   1.560   7.996  0.00  0.00    +0.000 A 
ATOM      8  H   UNL     1      43.887   1.512  11.060  0.00  0.00    +0.000 HD
ENDROOT
BRANCH   1  10
ATOM      9  N   UNL     1      48.661   2.537   6.470  0.00  0.00    +0.000 N 
ATOM     10  C   UNL     1      47.339   2.777   6.209  0.00  0.00    +0.000 C 
ATOM     11  O   UNL     1      46.939   2.974   5.071  0.00  0.00    +0.000 OA
ATOM     12  H   UNL     1      49.271   2.460   5.664  0.00  0.00    +0.000 HD
ATOM     13  H   UNL     1      48.984   2.142   7.341  0.00  0.00    +0.000 HD
ENDBRANCH   1  10
BRANCH   5  14
ATOM     14  C   UNL     1      43.359   3.596  11.340  0.00  0.00    +0.000 C 
BRANCH  14  15
ATOM     15  C   UNL     1      43.960   3.909  12.708  0.00  0.00    +0.000 C 
BRANCH  15  16
ATOM     16  C   UNL     1      45.012   4.987  12.549  0.00  0.00    +0.000 A 
ATOM     17  C   UNL     1      44.746   6.136  11.793  0.00  0.00    +0.000 A 
ATOM     18  C   UNL     1      45.675   7.178  11.741  0.00  0.00    +0.000 A 
ATOM     19  C   UNL     1      46.881   7.084  12.440  0.00  0.00    +0.000 A 
ATOM     20  C   UNL     1      47.160   5.943  13.187  0.00  0.00    +0.000 A 
ATOM     21  C   UNL     1      46.225   4.905  13.249  0.00  0.00    +0.000 A 
BRANCH  20  22
ATOM     22  O   UNL     1      48.296   5.766  13.938  0.00  0.00    +0.000 OA
BRANCH  22  23
ATOM     23  C   UNL     1      48.326   6.286  15.286  0.00  0.00    +0.000 C 
ATOM     24  C   UNL     1      49.718   6.617  15.877  0.00  0.00    +0.000 C 
ATOM     25  C   UNL     1      49.307   5.902  17.172  0.00  0.00    +0.000 C 
ATOM     26  C   UNL     1      48.188   5.206  16.388  0.00  0.00    +0.000 C 
ENDBRANCH  22  23
ENDBRANCH  20  22
ENDBRANCH  15  16
ENDBRANCH  14  15
ENDBRANCH   5  14
TORSDOF 6
ENDMDL
MODEL 4
REMARK VINA RESULT:    -7.070      3.398      8.188
REMARK INTER + INTRA:         -10.406
REMARK INTER:                 -10.145
REMARK INTRA:                  -0.261
REMARK UNBOUND:                -0.856
REMARK  Name = 
REMARK  6 active torsions:
REMARK  status: ('A' for Active; 'I' for Inactive)
REMARK    1  A    between atoms: C_2  and  C_4
REMARK    2  A    between atoms: N_8  and  C_9
REMARK    3  A    between atoms: C_9  and  C_10
REMARK    4  A    between atoms: C_10  and  C_11
REMARK    5  A    between atoms: C_15  and  O_16
REMARK    6  A    between atoms: O_16  and  C_17
REMARK                            x       y       z     vdW  Elec       q    Type
REMARK                         _______ _______ _______ _____ _____    ______ ____
ROOT
ATOM      1  C   UNL     1      48.494   4.333  17.617  0.00  0.00    +0.000 A 
ATOM      2  C   UNL     1      48.800   5.475  16.894  0.00  0.00    +0.000 A 
ATOM      3  C   UNL     1      48.213   5.667  15.647  0.00  0.00    +0.000 A 
ATOM      4  C   UNL     1      47.327   4.722  15.132  0.00  0.00    +0.000 A 
ATOM      5  N   UNL     1      46.700   4.886  13.917  0.00  0.00    +0.000 N 
ATOM      6  N   UNL     1      47.047   3.593  15.812  0.00  0.00    +0.000 NA
ATOM      7  C   UNL     1      47.641   3.413  17.026  0.00  0.00    +0.000 A 
ATOM      8  H   UNL     1      46.063   4.144  13.656  0.00  0.00    +0.000 HD
ENDROOT
BRANCH   1  10
ATOM      9  N   UNL     1      48.358   3.209  19.764  0.00  0.00    +0.000 N 
ATOM     10  C   UNL     1      49.050   4.074  18.960  0.00  0.00    +0.000 C 
ATOM     11  O   UNL     1      50.095   4.589  19.328  0.00  0.00    +0.000 OA
ATOM     12  H   UNL     1      48.796   2.966  20.644  0.00  0.00    +0.000 HD
ATOM     13  H   UNL     1      47.638   2.594  19.413  0.00  0.00    +0.000 HD
ENDBRANCH   1  10
BRANCH   5  14
ATOM     14  C   UNL     1      46.857   6.092  13.133  0.00  0.00    +0.000 C 
BRANCH  14  15
ATOM     15  C   UNL     1      45.577   6.548  12.436  0.00  0.00    +0.000 C 
BRANCH  15  16
ATOM     16  C   UNL     1      45.096   5.443  11.519  0.00  0.00    +0.000 A 
ATOM     17  C   UNL     1      44.074   4.574  11.923  0.00  0.00    +0.000 A 
ATOM     18  C   UNL     1      43.556   3.630  11.034  0.00  0.00    +0.000 A 
ATOM     19  C   UNL     1      44.054   3.539   9.732  0.00  0.00    +0.000 A 
ATOM     20  C   UNL     1      45.075   4.391   9.321  0.00  0.00    +0.000 A 
ATOM     21  C   UNL     1      45.585   5.344  10.208  0.00  0.00    +0.000 A 
BRANCH  20  22
ATOM     22  O   UNL     1      45.609   4.410   8.056  0.00  0.00    +0.000 OA
BRANCH  22  23
ATOM     23  C   UNL     1      45.775   3.158   7.353  0.00  0.00    +0.000 C 
ATOM     24  C   UNL     1      46.266   1.949   8.185  0.00  0.00    +0.000 C 
ATOM     25  C   UNL     1      47.266   1.621   7.067  0.00  0.00    +0.000 C 
ATOM     26  C   UNL     1      47.092   3.053   6.544  0.00  0.00    +0.000 C 
ENDBRANCH  22  23
ENDBRANCH  20  22
ENDBRANCH  15  16
ENDBRANCH  14  15
ENDBRANCH   5  14
TORSDOF 6
ENDMDL
MODEL 5
REMARK VINA RESULT:    -6.951      3.582      8.256
REMARK INTER + INTRA:         -10.245
REMARK INTER:                  -9.509
REMARK INTRA:                  -0.735
REMARK UNBOUND:                -0.856
REMARK  Name = 
REMARK  6 active torsions:
REMARK  status: ('A' for Active; 'I' for Inactive)
REMARK    1  A    between atoms: C_2  and  C_4
REMARK    2  A    between atoms: N_8  and  C_9
REMARK    3  A    between atoms: C_9  and  C_10
REMARK    4  A    between atoms: C_10  and  C_11
REMARK    5  A    between atoms: C_15  and  O_16
REMARK    6  A    between atoms: O_16  and  C_17
REMARK                            x       y       z     vdW  Elec       q    Type
REMARK                         _______ _______ _______ _____ _____    ______ ____
ROOT
ATOM      1  C   UNL     1      48.168   4.760  18.100  0.00  0.00    +0.000 A 
ATOM      2  C   UNL     1      48.692   5.708  17.235  0.00  0.00    +0.000 A 
ATOM      3  C   UNL     1      48.333   5.672  15.891  0.00  0.00    +0.000 A 
ATOM      4  C   UNL     1      47.459   4.694  15.420  0.00  0.00    +0.000 A 
ATOM      5  N   UNL     1      47.053   4.639  14.105  0.00  0.00    +0.000 N 
ATOM      6  N   UNL     1      46.968   3.749  16.246  0.00  0.00    +0.000 NA
ATOM      7  C   UNL     1      47.339   3.790  17.557  0.00  0.00    +0.000 A 
ATOM      8  H   UNL     1      46.401   3.899  13.885  0.00  0.00    +0.000 HD
ENDROOT
BRANCH   1  10
ATOM      9  N   UNL     1      48.489   3.535  20.171  0.00  0.00    +0.000 N 
ATOM     10  C   UNL     1      48.473   4.752  19.545  0.00  0.00    +0.000 C 
ATOM     11  O   UNL     1      48.725   5.784  20.149  0.00  0.00    +0.000 OA
ATOM     12  H   UNL     1      48.793   3.532  21.138  0.00  0.00    +0.000 HD
ATOM     13  H   UNL     1      48.523   2.662  19.666  0.00  0.00    +0.000 HD
ENDBRANCH   1  10
BRANCH   5  14
ATOM     14  C   UNL     1      47.447   5.646  13.143  0.00  0.00    +0.000 C 
BRANCH  14  15
ATOM     15  C   UNL     1      46.311   6.578  12.723  0.00  0.00    +0.000 C 
BRANCH  15  16
ATOM     16  C   UNL     1      45.142   5.743  12.244  0.00  0.00    +0.000 A 
ATOM     17  C   UNL     1      43.928   5.749  12.941  0.00  0.00    +0.000 A 
ATOM     18  C   UNL     1      42.818   5.068  12.434  0.00  0.00    +0.000 A 
ATOM     19  C   UNL     1      42.909   4.369  11.228  0.00  0.00    +0.000 A 
ATOM     20  C   UNL     1      44.113   4.348  10.530  0.00  0.00    +0.000 A 
ATOM     21  C   UNL     1      45.221   5.039  11.032  0.00  0.00    +0.000 A 
BRANCH  20  22
ATOM     22  O   UNL     1      44.300   3.724   9.321  0.00  0.00    +0.000 OA
BRANCH  22  23
ATOM     23  C   UNL     1      45.640   3.351   8.932  0.00  0.00    +0.000 C 
ATOM     24  C   UNL     1      46.087   3.744   7.502  0.00  0.00    +0.000 C 
ATOM     25  C   UNL     1      46.658   2.330   7.323  0.00  0.00    +0.000 C 
ATOM     26  C   UNL     1      45.790   1.871   8.501  0.00  0.00    +0.000 C 
ENDBRANCH  22  23
ENDBRANCH  20  22
ENDBRANCH  15  16
ENDBRANCH  14  15
ENDBRANCH   5  14
TORSDOF 6
ENDMDL
MODEL 6
REMARK VINA RESULT:    -6.753      3.647      7.136
REMARK INTER + INTRA:          -9.977
REMARK INTER:                  -9.079
REMARK INTRA:                  -0.898
REMARK UNBOUND:                -0.856
REMARK  Name = 
REMARK  6 active torsions:
REMARK  status: ('A' for Active; 'I' for Inactive)
REMARK    1  A    between atoms: C_2  and  C_4
REMARK    2  A    between atoms: N_8  and  C_9
REMARK    3  A    between atoms: C_9  and  C_10
REMARK    4  A    between atoms: C_10  and  C_11
REMARK    5  A    between atoms: C_15  and  O_16
REMARK    6  A    between atoms: O_16  and  C_17
REMARK                            x       y       z     vdW  Elec       q    Type
REMARK                         _______ _______ _______ _____ _____    ______ ____
ROOT
ATOM      1  C   UNL     1      48.787   7.812  12.388  0.00  0.00    +0.000 A 
ATOM      2  C   UNL     1      48.262   6.549  12.162  0.00  0.00    +0.000 A 
ATOM      3  C   UNL     1      46.906   6.327  12.387  0.00  0.00    +0.000 A 
ATOM      4  C   UNL     1      46.087   7.362  12.834  0.00  0.00    +0.000 A 
ATOM      5  N   UNL     1      44.736   7.196  13.040  0.00  0.00    +0.000 N 
ATOM      6  N   UNL     1      46.593   8.586  13.088  0.00  0.00    +0.000 NA
ATOM      7  C   UNL     1      47.925   8.783  12.875  0.00  0.00    +0.000 A 
ATOM      8  H   UNL     1      44.241   8.024  13.346  0.00  0.00    +0.000 HD
ENDROOT
BRANCH   1  10
ATOM      9  N   UNL     1      50.893   7.308  11.294  0.00  0.00    +0.000 N 
ATOM     10  C   UNL     1      50.206   8.134  12.141  0.00  0.00    +0.000 C 
ATOM     11  O   UNL     1      50.737   9.111  12.650  0.00  0.00    +0.000 OA
ATOM     12  H   UNL     1      51.837   7.591  11.057  0.00  0.00    +0.000 HD
ATOM     13  H   UNL     1      50.435   6.649  10.682  0.00  0.00    +0.000 HD
ENDBRANCH   1  10
BRANCH   5  14
ATOM     14  C   UNL     1      44.063   5.954  12.726  0.00  0.00    +0.000 C 
BRANCH  14  15
ATOM     15  C   UNL     1      43.482   5.905  11.314  0.00  0.00    +0.000 C 
BRANCH  15  16
ATOM     16  C   UNL     1      44.012   4.676  10.607  0.00  0.00    +0.000 A 
ATOM     17  C   UNL     1      43.665   3.393  11.049  0.00  0.00    +0.000 A 
ATOM     18  C   UNL     1      44.063   2.265  10.328  0.00  0.00    +0.000 A 
ATOM     19  C   UNL     1      44.814   2.403   9.159  0.00  0.00    +0.000 A 
ATOM     20  C   UNL     1      45.173   3.672   8.713  0.00  0.00    +0.000 A 
ATOM     21  C   UNL     1      44.765   4.802   9.429  0.00  0.00    +0.000 A 
BRANCH  20  22
ATOM     22  O   UNL     1      45.877   3.920   7.561  0.00  0.00    +0.000 OA
BRANCH  22  23
ATOM     23  C   UNL     1      46.297   2.802   6.749  0.00  0.00    +0.000 C 
ATOM     24  C   UNL     1      47.694   2.205   7.049  0.00  0.00    +0.000 C 
ATOM     25  C   UNL     1      47.982   2.191   5.542  0.00  0.00    +0.000 C 
ATOM     26  C   UNL     1      46.840   3.197   5.352  0.00  0.00    +0.000 C 
ENDBRANCH  22  23
ENDBRANCH  20  22
ENDBRANCH  15  16
ENDBRANCH  14  15
ENDBRANCH   5  14
TORSDOF 6
ENDMDL
MODEL 7
REMARK VINA RESULT:    -6.540      2.958      4.403
REMARK INTER + INTRA:          -9.690
REMARK INTER:                  -8.854
REMARK INTRA:                  -0.836
REMARK UNBOUND:                -0.856
REMARK  Name = 
REMARK  6 active torsions:
REMARK  status: ('A' for Active; 'I' for Inactive)
REMARK    1  A    between atoms: C_2  and  C_4
REMARK    2  A    between atoms: N_8  and  C_9
REMARK    3  A    between atoms: C_9  and  C_10
REMARK    4  A    between atoms: C_10  and  C_11
REMARK    5  A    between atoms: C_15  and  O_16
REMARK    6  A    between atoms: O_16  and  C_17
REMARK                            x       y       z     vdW  Elec       q    Type
REMARK                         _______ _______ _______ _____ _____    ______ ____
ROOT
ATOM      1  C   UNL     1      44.356   4.229  11.497  0.00  0.00    +0.000 A 
ATOM      2  C   UNL     1      45.099   5.082  10.695  0.00  0.00    +0.000 A 
ATOM      3  C   UNL     1      45.511   6.308  11.207  0.00  0.00    +0.000 A 
ATOM      4  C   UNL     1      45.181   6.674  12.510  0.00  0.00    +0.000 A 
ATOM      5  N   UNL     1      45.594   7.864  13.069  0.00  0.00    +0.000 N 
ATOM      6  N   UNL     1      44.433   5.867  13.288  0.00  0.00    +0.000 NA
ATOM      7  C   UNL     1      44.025   4.675  12.767  0.00  0.00    +0.000 A 
ATOM      8  H   UNL     1      45.311   8.012  14.028  0.00  0.00    +0.000 HD
ENDROOT
BRANCH   1  10
ATOM      9  N   UNL     1      44.602   2.336   9.999  0.00  0.00    +0.000 N 
ATOM     10  C   UNL     1      43.911   2.898  11.037  0.00  0.00    +0.000 C 
ATOM     11  O   UNL     1      42.983   2.314  11.577  0.00  0.00    +0.000 OA
ATOM     12  H   UNL     1      44.351   1.385   9.755  0.00  0.00    +0.000 HD
ATOM     13  H   UNL     1      45.504   2.674   9.695  0.00  0.00    +0.000 HD
ENDBRANCH   1  10
BRANCH   5  14
ATOM     14  C   UNL     1      46.468   8.776  12.362  0.00  0.00    +0.000 C 
BRANCH  14  15
ATOM     15  C   UNL     1      47.947   8.405  12.449  0.00  0.00    +0.000 C 
BRANCH  15  16
ATOM     16  C   UNL     1      48.312   8.176  13.901  0.00  0.00    +0.000 A 
ATOM     17  C   UNL     1      48.294   9.236  14.816  0.00  0.00    +0.000 A 
ATOM     18  C   UNL     1      48.522   9.001  16.175  0.00  0.00    +0.000 A 
ATOM     19  C   UNL     1      48.772   7.706  16.635  0.00  0.00    +0.000 A 
ATOM     20  C   UNL     1      48.801   6.646  15.733  0.00  0.00    +0.000 A 
ATOM     21  C   UNL     1      48.563   6.880  14.375  0.00  0.00    +0.000 A 
BRANCH  20  22
ATOM     22  O   UNL     1      49.002   5.333  16.084  0.00  0.00    +0.000 OA
BRANCH  22  23
ATOM     23  C   UNL     1      47.850   4.500  16.344  0.00  0.00    +0.000 C 
ATOM     24  C   UNL     1      47.380   4.397  17.816  0.00  0.00    +0.000 C 
ATOM     25  C   UNL     1      47.258   2.876  17.641  0.00  0.00    +0.000 C 
ATOM     26  C   UNL     1      48.163   2.984  16.407  0.00  0.00    +0.000 C 
ENDBRANCH  22  23
ENDBRANCH  20  22
ENDBRANCH  15  16
ENDBRANCH  14  15
ENDBRANCH   5  14
TORSDOF 6
ENDMDL
MODEL 8
REMARK VINA RESULT:    -6.133      4.308      7.639
REMARK INTER + INTRA:          -9.139
REMARK INTER:                  -8.124
REMARK INTRA:                  -1.015
REMARK UNBOUND:                -0.856
REMARK  Name = 
REMARK  6 active torsions:
REMARK  status: ('A' for Active; 'I' for Inactive)
REMARK    1  A    between atoms: C_2  and  C_4
REMARK    2  A    between atoms: N_8  and  C_9
REMARK    3  A    between atoms: C_9  and  C_10
REMARK    4  A    between atoms: C_10  and  C_11
REMARK    5  A    between atoms: C_15  and  O_16
REMARK    6  A    between atoms: O_16  and  C_17
REMARK                            x       y       z     vdW  Elec       q    Type
REMARK                         _______ _______ _______ _____ _____    ______ ____
ROOT
ATOM      1  C   UNL     1      42.698  10.810  11.007  0.00  0.00    +0.000 A 
ATOM      2  C   UNL     1      42.920   9.498  10.617  0.00  0.00    +0.000 A 
ATOM      3  C   UNL     1      44.100   8.867  10.997  0.00  0.00    +0.000 A 
ATOM      4  C   UNL     1      45.048   9.545  11.761  0.00  0.00    +0.000 A 
ATOM      5  N   UNL     1      46.216   8.951  12.185  0.00  0.00    +0.000 N 
ATOM      6  N   UNL     1      44.858  10.831  12.119  0.00  0.00    +0.000 NA
ATOM      7  C   UNL     1      43.702  11.439  11.728  0.00  0.00    +0.000 A 
ATOM      8  H   UNL     1      46.817   9.535  12.750  0.00  0.00    +0.000 HD
ENDROOT
BRANCH   1  10
ATOM      9  N   UNL     1      40.970  12.401  11.614  0.00  0.00    +0.000 N 
ATOM     10  C   UNL     1      41.457  11.536  10.672  0.00  0.00    +0.000 C 
ATOM     11  O   UNL     1      40.904  11.390   9.592  0.00  0.00    +0.000 OA
ATOM     12  H   UNL     1      40.173  12.964  11.337  0.00  0.00    +0.000 HD
ATOM     13  H   UNL     1      41.518  12.720  12.399  0.00  0.00    +0.000 HD
ENDBRANCH   1  10
BRANCH   5  14
ATOM     14  C   UNL     1      46.496   7.553  11.933  0.00  0.00    +0.000 C 
BRANCH  14  15
ATOM     15  C   UNL     1      46.090   6.625  13.076  0.00  0.00    +0.000 C 
BRANCH  15  16
ATOM     16  C   UNL     1      45.087   5.616  12.558  0.00  0.00    +0.000 A 
ATOM     17  C   UNL     1      43.714   5.810  12.755  0.00  0.00    +0.000 A 
ATOM     18  C   UNL     1      42.787   4.937  12.179  0.00  0.00    +0.000 A 
ATOM     19  C   UNL     1      43.219   3.859  11.403  0.00  0.00    +0.000 A 
ATOM     20  C   UNL     1      44.582   3.651  11.208  0.00  0.00    +0.000 A 
ATOM     21  C   UNL     1      45.509   4.531  11.775  0.00  0.00    +0.000 A 
BRANCH  20  22
ATOM     22  O   UNL     1      45.111   2.646  10.436  0.00  0.00    +0.000 OA
BRANCH  22  23
ATOM     23  C   UNL     1      44.924   2.700   9.004  0.00  0.00    +0.000 C 
ATOM     24  C   UNL     1      46.019   2.039   8.131  0.00  0.00    +0.000 C 
ATOM     25  C   UNL     1      46.008   3.280   7.227  0.00  0.00    +0.000 C 
ATOM     26  C   UNL     1      45.320   4.052   8.360  0.00  0.00    +0.000 C 
ENDBRANCH  22  23
ENDBRANCH  20  22
ENDBRANCH  15  16
ENDBRANCH  14  15
ENDBRANCH   5  14
TORSDOF 6
ENDMDL
MODEL 9
REMARK VINA RESULT:    -6.089      4.543      7.173
REMARK INTER + INTRA:          -9.081
REMARK INTER:                  -8.112
REMARK INTRA:                  -0.969
REMARK UNBOUND:                -0.856
REMARK  Name = 
REMARK  6 active torsions:
REMARK  status: ('A' for Active; 'I' for Inactive)
REMARK    1  A    between atoms: C_2  and  C_4
REMARK    2  A    between atoms: N_8  and  C_9
REMARK    3  A    between atoms: C_9  and  C_10
REMARK    4  A    between atoms: C_10  and  C_11
REMARK    5  A    between atoms: C_15  and  O_16
REMARK    6  A    between atoms: O_16  and  C_17
REMARK                            x       y       z     vdW  Elec       q    Type
REMARK                         _______ _______ _______ _____ _____    ______ ____
ROOT
ATOM      1  C   UNL     1      44.557   4.038  11.475  0.00  0.00    +0.000 A 
ATOM      2  C   UNL     1      45.108   4.998  10.641  0.00  0.00    +0.000 A 
ATOM      3  C   UNL     1      45.730   6.109  11.202  0.00  0.00    +0.000 A 
ATOM      4  C   UNL     1      45.797   6.256  12.586  0.00  0.00    +0.000 A 
ATOM      5  N   UNL     1      46.429   7.323  13.186  0.00  0.00    +0.000 N 
ATOM      6  N   UNL     1      45.237   5.345  13.407  0.00  0.00    +0.000 NA
ATOM      7  C   UNL     1      44.620   4.269  12.841  0.00  0.00    +0.000 A 
ATOM      8  H   UNL     1      46.431   7.311  14.197  0.00  0.00    +0.000 HD
ENDROOT
BRANCH   1  10
ATOM      9  N   UNL     1      44.476   2.234   9.854  0.00  0.00    +0.000 N 
ATOM     10  C   UNL     1      43.911   2.816  10.956  0.00  0.00    +0.000 C 
ATOM     11  O   UNL     1      42.931   2.331  11.502  0.00  0.00    +0.000 OA
ATOM     12  H   UNL     1      44.083   1.346   9.564  0.00  0.00    +0.000 HD
ATOM     13  H   UNL     1      45.404   2.464   9.530  0.00  0.00    +0.000 HD
ENDBRANCH   1  10
BRANCH   5  14
ATOM     14  C   UNL     1      47.137   8.322  12.414  0.00  0.00    +0.000 C 
BRANCH  14  15
ATOM     15  C   UNL     1      46.846   9.757  12.845  0.00  0.00    +0.000 C 
BRANCH  15  16
ATOM     16  C   UNL     1      45.948  10.408  11.814  0.00  0.00    +0.000 A 
ATOM     17  C   UNL     1      46.444  11.406  10.965  0.00  0.00    +0.000 A 
ATOM     18  C   UNL     1      45.646  11.924   9.942  0.00  0.00    +0.000 A 
ATOM     19  C   UNL     1      44.344  11.454   9.755  0.00  0.00    +0.000 A 
ATOM     20  C   UNL     1      43.837  10.469  10.597  0.00  0.00    +0.000 A 
ATOM     21  C   UNL     1      44.639   9.943  11.615  0.00  0.00    +0.000 A 
BRANCH  20  22
ATOM     22  O   UNL     1      42.587   9.913  10.479  0.00  0.00    +0.000 OA
BRANCH  22  23
ATOM     23  C   UNL     1      41.430  10.762  10.650  0.00  0.00    +0.000 C 
ATOM     24  C   UNL     1      41.440  11.720  11.866  0.00  0.00    +0.000 C 
ATOM     25  C   UNL     1      39.997  11.295  12.176  0.00  0.00    +0.000 C 
ATOM     26  C   UNL     1      40.214  10.056  11.300  0.00  0.00    +0.000 C 
ENDBRANCH  22  23
ENDBRANCH  20  22
ENDBRANCH  15  16
ENDBRANCH  14  15
ENDBRANCH   5  14
TORSDOF 6
ENDMDL
