MODEL 1
REMARK VINA RESULT:    -8.487      0.000      0.000
REMARK INTER + INTRA:         -11.589
REMARK INTER:                 -10.968
REMARK INTRA:                  -0.621
REMARK UNBOUND:                -0.621
REMARK  Name = 
REMARK  5 active torsions:
REMARK  status: ('A' for Active; 'I' for Inactive)
REMARK    1  A    between atoms: C_2  and  C_4
REMARK    2  A    between atoms: C_8  and  O_9
REMARK    3  A    between atoms: O_9  and  C_10
REMARK    4  A    between atoms: C_10  and  C_11
REMARK    5  A    between atoms: C_15  and  C_16
REMARK                            x       y       z     vdW  Elec       q    Type
REMARK                         _______ _______ _______ _____ _____    ______ ____
ROOT
ATOM      1  C   UNL     1      43.374   3.860  11.160  0.00  0.00    +0.000 C 
ENDROOT
BRANCH   1   2
ATOM      2  C   UNL     1      44.506   4.384  12.010  0.00  0.00    +0.000 A 
ATOM      3  C   UNL     1      45.323   3.500  12.728  0.00  0.00    +0.000 A 
ATOM      4  C   UNL     1      46.449   3.975  13.396  0.00  0.00    +0.000 A 
ATOM      5  C   UNL     1      46.794   5.324  13.308  0.00  0.00    +0.000 A 
ATOM      6  C   UNL     1      46.014   6.221  12.558  0.00  0.00    +0.000 A 
ATOM      7  C   UNL     1      44.825   5.752  11.986  0.00  0.00    +0.000 A 
BRANCH   6   8
ATOM      8  C   UNL     1      46.579   7.602  12.246  0.00  0.00    +0.000 C 
ATOM      9  C   UNL     1      48.067   7.614  11.866  0.00  0.00    +0.000 C 
ATOM     10  C   UNL     1      48.993   7.946  13.032  0.00  0.00    +0.000 C 
ATOM     11  C   UNL     1      48.510   9.177  13.785  0.00  0.00    +0.000 C 
ATOM     12  N   UNL     1      47.187   8.927  14.349  0.00  0.00    +0.000 NA
ATOM     13  C   UNL     1      46.202   8.697  13.284  0.00  0.00    +0.000 C 
ATOM     14  H   UNL     1      46.895   9.736  14.902  0.00  0.00    +0.000 HD
ENDBRANCH   6   8
ENDBRANCH   1   2
BRANCH   1  15
ATOM     15  O   UNL     1      43.792   2.751  10.369  0.00  0.00    +0.000 OA
BRANCH  15  20
ATOM     16  C   UNL     1      46.344   2.101   7.866  0.00  0.00    +0.000 A 
ATOM     17  C   UNL     1      46.607   3.376   7.354  0.00  0.00    +0.000 A 
ATOM     18  C   UNL     1      45.906   4.476   7.839  0.00  0.00    +0.000 A 
ATOM     19  C   UNL     1      44.949   4.308   8.843  0.00  0.00    +0.000 A 
ATOM     20  C   UNL     1      44.692   3.040   9.375  0.00  0.00    +0.000 A 
ATOM     21  C   UNL     1      45.395   1.937   8.883  0.00  0.00    +0.000 A 
BRANCH  16  23
ATOM     22  N   UNL     1      46.685  -0.300   7.656  0.00  0.00    +0.000 N 
ATOM     23  C   UNL     1      47.104   0.951   7.313  0.00  0.00    +0.000 C 
ATOM     24  O   UNL     1      48.048   1.116   6.545  0.00  0.00    +0.000 OA
ATOM     25  H   UNL     1      47.141  -1.070   7.185  0.00  0.00    +0.000 HD
ATOM     26  H   UNL     1      45.783  -0.473   8.077  0.00  0.00    +0.000 HD
ENDBRANCH  16  23
ENDBRANCH  15  20
ENDBRANCH   1  15
TORSDOF 5
ENDMDL
MODEL 2
REMARK VINA RESULT:    -7.580      1.685      2.213
REMARK INTER + INTRA:         -10.417
REMARK INTER:                  -9.458
REMARK INTRA:                  -0.959
REMARK UNBOUND:                -0.621
REMARK  Name = 
REMARK  5 active torsions:
REMARK  status: ('A' for Active; 'I' for Inactive)
REMARK    1  A    between atoms: C_2  and  C_4
REMARK    2  A    between atoms: C_8  and  O_9
REMARK    3  A    between atoms: O_9  and  C_10
REMARK    4  A    between atoms: C_10  and  C_11
REMARK    5  A    between atoms: C_15  and  C_16
REMARK                            x       y       z     vdW  Elec       q    Type
REMARK                         _______ _______ _______ _____ _____    ______ ____
ROOT
ATOM      1  C   UNL     1      44.510   5.571  10.710  0.00  0.00    +0.000 C 
ENDROOT
BRANCH   1   2
ATOM      2  C   UNL     1      45.447   5.570  11.894  0.00  0.00    +0.000 A 
ATOM      3  C   UNL     1      45.266   4.658  12.942  0.00  0.00    +0.000 A 
ATOM      4  C   UNL     1      46.212   4.565  13.960  0.00  0.00    +0.000 A 
ATOM      5  C   UNL     1      47.367   5.346  13.910  0.00  0.00    +0.000 A 
ATOM      6  C   UNL     1      47.591   6.237  12.846  0.00  0.00    +0.000 A 
ATOM      7  C   UNL     1      46.580   6.400  11.891  0.00  0.00    +0.000 A 
BRANCH   6   8
ATOM      8  C   UNL     1      48.979   6.843  12.676  0.00  0.00    +0.000 C 
ATOM      9  C   UNL     1      49.564   7.470  13.950  0.00  0.00    +0.000 C 
ATOM     10  C   UNL     1      49.361   8.979  14.037  0.00  0.00    +0.000 C 
ATOM     11  C   UNL     1      49.763   9.664  12.738  0.00  0.00    +0.000 C 
ATOM     12  N   UNL     1      48.925   9.183  11.644  0.00  0.00    +0.000 NA
ATOM     13  C   UNL     1      49.134   7.747  11.421  0.00  0.00    +0.000 C 
ATOM     14  H   UNL     1      49.161   9.691  10.788  0.00  0.00    +0.000 HD
ENDBRANCH   6   8
ENDBRANCH   1   2
BRANCH   1  15
ATOM     15  O   UNL     1      45.220   5.389   9.488  0.00  0.00    +0.000 OA
BRANCH  15  20
ATOM     16  C   UNL     1      46.518   2.620   7.527  0.00  0.00    +0.000 A 
ATOM     17  C   UNL     1      45.831   1.521   8.051  0.00  0.00    +0.000 A 
ATOM     18  C   UNL     1      44.927   1.701   9.094  0.00  0.00    +0.000 A 
ATOM     19  C   UNL     1      44.699   2.980   9.609  0.00  0.00    +0.000 A 
ATOM     20  C   UNL     1      45.369   4.088   9.079  0.00  0.00    +0.000 A 
ATOM     21  C   UNL     1      46.278   3.903   8.035  0.00  0.00    +0.000 A 
BRANCH  16  23
ATOM     22  N   UNL     1      47.323   3.114   5.284  0.00  0.00    +0.000 N 
ATOM     23  C   UNL     1      47.484   2.384   6.424  0.00  0.00    +0.000 C 
ATOM     24  O   UNL     1      48.415   1.593   6.545  0.00  0.00    +0.000 OA
ATOM     25  H   UNL     1      48.050   3.024   4.587  0.00  0.00    +0.000 HD
ATOM     26  H   UNL     1      46.730   3.932   5.242  0.00  0.00    +0.000 HD
ENDBRANCH  16  23
ENDBRANCH  15  20
ENDBRANCH   1  15
TORSDOF 5
ENDMDL
MODEL 3
REMARK VINA RESULT:    -7.203      2.606      7.084
REMARK INTER + INTRA:          -9.929
REMARK INTER:                  -9.108
REMARK INTRA:                  -0.821
REMARK UNBOUND:                -0.621
REMARK  Name = 
REMARK  5 active torsions:
REMARK  status: ('A' for Active; 'I' for Inactive)
REMARK    1  A    between atoms: C_2  and  C_4
REMARK    2  A    between atoms: C_8  and  O_9
REMARK    3  A    between atoms: O_9  and  C_10
REMARK    4  A    between atoms: C_10  and  C_11
REMARK    5  A    between atoms: C_15  and  C_16
REMARK                            x       y       z     vdW  Elec       q    Type
REMARK                         _______ _______ _______ _____ _____    ______ ____
ROOT
ATOM      1  C   UNL     1      45.456   6.627  12.329  0.00  0.00    +0.000 C 
ENDROOT
BRANCH   1   2
ATOM      2  C   UNL     1      44.949   5.230  12.069  0.00  0.00    +0.000 A 
ATOM      3  C   UNL     1      44.171   4.567  13.028  0.00  0.00    +0.000 A 
ATOM      4  C   UNL     1      43.589   3.338  12.728  0.00  0.00    +0.000 A 
ATOM      5  C   UNL     1      43.738   2.789  11.454  0.00  0.00    +0.000 A 
ATOM      6  C   UNL     1      44.478   3.457  10.463  0.00  0.00    +0.000 A 
ATOM      7  C   UNL     1      45.150   4.634  10.813  0.00  0.00    +0.000 A 
BRANCH   6   8
ATOM      8  C   UNL     1      44.370   2.978   9.020  0.00  0.00    +0.000 C 
ATOM      9  C   UNL     1      44.979   1.592   8.758  0.00  0.00    +0.000 C 
ATOM     10  C   UNL     1      46.400   1.644   8.206  0.00  0.00    +0.000 C 
ATOM     11  C   UNL     1      46.506   2.623   7.047  0.00  0.00    +0.000 C 
ATOM     12  N   UNL     1      46.177   3.970   7.504  0.00  0.00    +0.000 NA
ATOM     13  C   UNL     1      44.783   4.039   7.960  0.00  0.00    +0.000 C 
ATOM     14  H   UNL     1      46.307   4.631   6.734  0.00  0.00    +0.000 HD
ENDBRANCH   6   8
ENDBRANCH   1   2
BRANCH   1  15
ATOM     15  O   UNL     1      46.615   6.910  11.549  0.00  0.00    +0.000 OA
BRANCH  15  20
ATOM     16  C   UNL     1      48.830   6.997  14.427  0.00  0.00    +0.000 A 
ATOM     17  C   UNL     1      49.952   7.672  13.934  0.00  0.00    +0.000 A 
ATOM     18  C   UNL     1      49.981   8.092  12.608  0.00  0.00    +0.000 A 
ATOM     19  C   UNL     1      48.886   7.850  11.774  0.00  0.00    +0.000 A 
ATOM     20  C   UNL     1      47.752   7.192  12.263  0.00  0.00    +0.000 A 
ATOM     21  C   UNL     1      47.728   6.768  13.594  0.00  0.00    +0.000 A 
BRANCH  16  23
ATOM     22  N   UNL     1      48.405   7.441  16.783  0.00  0.00    +0.000 N 
ATOM     23  C   UNL     1      48.843   6.554  15.845  0.00  0.00    +0.000 C 
ATOM     24  O   UNL     1      49.197   5.421  16.159  0.00  0.00    +0.000 OA
ATOM     25  H   UNL     1      48.315   7.089  17.726  0.00  0.00    +0.000 HD
ATOM     26  H   UNL     1      47.887   8.275  16.541  0.00  0.00    +0.000 HD
ENDBRANCH  16  23
ENDBRANCH  15  20
ENDBRANCH   1  15
TORSDOF 5
ENDMDL
MODEL 4
REMARK VINA RESULT:    -7.167      4.249      7.730
REMARK INTER + INTRA:          -9.882
REMARK INTER:                  -9.125
REMARK INTRA:                  -0.757
REMARK UNBOUND:                -0.621
REMARK  Name = 
REMARK  5 active torsions:
REMARK  status: ('A' for Active; 'I' for Inactive)
REMARK    1  A    between atoms: C_2  and  C_4
REMARK    2  A    between atoms: C_8  and  O_9
REMARK    3  A    between atoms: O_9  and  C_10
REMARK    4  A    between atoms: C_10  and  C_11
REMARK    5  A    between atoms: C_15  and  C_16
REMARK                            x       y       z     vdW  Elec       q    Type
REMARK                         _______ _______ _______ _____ _____    ______ ____
ROOT
ATOM      1  C   UNL     1      47.089   3.721  14.331  0.00  0.00    +0.000 C 
ENDROOT
BRANCH   1   2
ATOM      2  C   UNL     1      46.383   4.573  13.305  0.00  0.00    +0.000 A 
ATOM      3  C   UNL     1      46.759   5.908  13.110  0.00  0.00    +0.000 A 
ATOM      4  C   UNL     1      46.203   6.646  12.068  0.00  0.00    +0.000 A 
ATOM      5  C   UNL     1      45.307   6.041  11.187  0.00  0.00    +0.000 A 
ATOM      6  C   UNL     1      44.947   4.691  11.337  0.00  0.00    +0.000 A 
ATOM      7  C   UNL     1      45.427   3.994  12.453  0.00  0.00    +0.000 A 
BRANCH   6   8
ATOM      8  C   UNL     1      44.210   3.996  10.198  0.00  0.00    +0.000 C 
ATOM      9  C   UNL     1      44.424   2.477  10.129  0.00  0.00    +0.000 C 
ATOM     10  C   UNL     1      45.508   2.057   9.140  0.00  0.00    +0.000 C 
ATOM     11  C   UNL     1      45.321   2.744   7.795  0.00  0.00    +0.000 C 
ATOM     12  N   UNL     1      45.429   4.191   7.957  0.00  0.00    +0.000 NA
ATOM     13  C   UNL     1      44.354   4.699   8.819  0.00  0.00    +0.000 C 
ATOM     14  H   UNL     1      45.361   4.641   7.041  0.00  0.00    +0.000 HD
ENDBRANCH   6   8
ENDBRANCH   1   2
BRANCH   1  15
ATOM     15  O   UNL     1      46.514   3.886  15.625  0.00  0.00    +0.000 OA
BRANCH  15  20
ATOM     16  C   UNL     1      49.504   3.100  17.533  0.00  0.00    +0.000 A 
ATOM     17  C   UNL     1      49.368   3.907  18.668  0.00  0.00    +0.000 A 
ATOM     18  C   UNL     1      48.264   4.745  18.794  0.00  0.00    +0.000 A 
ATOM     19  C   UNL     1      47.289   4.773  17.794  0.00  0.00    +0.000 A 
ATOM     20  C   UNL     1      47.408   3.958  16.664  0.00  0.00    +0.000 A 
ATOM     21  C   UNL     1      48.519   3.120  16.538  0.00  0.00    +0.000 A 
BRANCH  16  23
ATOM     22  N   UNL     1      51.772   2.540  18.216  0.00  0.00    +0.000 N 
ATOM     23  C   UNL     1      50.702   2.229  17.431  0.00  0.00    +0.000 C 
ATOM     24  O   UNL     1      50.717   1.243  16.698  0.00  0.00    +0.000 OA
ATOM     25  H   UNL     1      52.535   1.876  18.218  0.00  0.00    +0.000 HD
ATOM     26  H   UNL     1      51.706   3.183  18.993  0.00  0.00    +0.000 HD
ENDBRANCH  16  23
ENDBRANCH  15  20
ENDBRANCH   1  15
TORSDOF 5
ENDMDL
MODEL 5
REMARK VINA RESULT:    -7.092      3.991      7.995
REMARK INTER + INTRA:          -9.787
REMARK INTER:                  -9.092
REMARK INTRA:                  -0.695
REMARK UNBOUND:                -0.621
REMARK  Name = 
REMARK  5 active torsions:
REMARK  status: ('A' for Active; 'I' for Inactive)
REMARK    1  A    between atoms: C_2  and  C_4
REMARK    2  A    between atoms: C_8  and  O_9
REMARK    3  A    between atoms: O_9  and  C_10
REMARK    4  A    between atoms: C_10  and  C_11
REMARK    5  A    between atoms: C_15  and  C_16
REMARK                            x       y       z     vdW  Elec       q    Type
REMARK                         _______ _______ _______ _____ _____    ______ ____
ROOT
ATOM      1  C   UNL     1      46.820   3.789  13.523  0.00  0.00    +0.000 C 
ENDROOT
BRANCH   1   2
ATOM      2  C   UNL     1      45.494   3.883  12.808  0.00  0.00    +0.000 A 
ATOM      3  C   UNL     1      44.478   4.712  13.302  0.00  0.00    +0.000 A 
ATOM      4  C   UNL     1      43.313   4.905  12.565  0.00  0.00    +0.000 A 
ATOM      5  C   UNL     1      43.177   4.312  11.309  0.00  0.00    +0.000 A 
ATOM      6  C   UNL     1      44.201   3.512  10.774  0.00  0.00    +0.000 A 
ATOM      7  C   UNL     1      45.317   3.236  11.573  0.00  0.00    +0.000 A 
BRANCH   6   8
ATOM      8  C   UNL     1      44.141   3.133   9.299  0.00  0.00    +0.000 C 
ATOM      9  C   UNL     1      44.723   1.750   8.969  0.00  0.00    +0.000 C 
ATOM     10  C   UNL     1      46.167   1.795   8.480  0.00  0.00    +0.000 C 
ATOM     11  C   UNL     1      46.348   2.846   7.394  0.00  0.00    +0.000 C 
ATOM     12  N   UNL     1      46.036   4.169   7.927  0.00  0.00    +0.000 NA
ATOM     13  C   UNL     1      44.627   4.249   8.330  0.00  0.00    +0.000 C 
ATOM     14  H   UNL     1      46.216   4.875   7.209  0.00  0.00    +0.000 HD
ENDBRANCH   6   8
ENDBRANCH   1   2
BRANCH   1  15
ATOM     15  O   UNL     1      46.643   3.721  14.935  0.00  0.00    +0.000 OA
BRANCH  15  20
ATOM     16  C   UNL     1      48.258   5.085  17.889  0.00  0.00    +0.000 A 
ATOM     17  C   UNL     1      48.924   6.209  17.387  0.00  0.00    +0.000 A 
ATOM     18  C   UNL     1      48.850   6.509  16.030  0.00  0.00    +0.000 A 
ATOM     19  C   UNL     1      48.102   5.698  15.174  0.00  0.00    +0.000 A 
ATOM     20  C   UNL     1      47.418   4.583  15.670  0.00  0.00    +0.000 A 
ATOM     21  C   UNL     1      47.498   4.281  17.032  0.00  0.00    +0.000 A 
BRANCH  16  23
ATOM     22  N   UNL     1      48.596   3.496  19.701  0.00  0.00    +0.000 N 
ATOM     23  C   UNL     1      48.373   4.791  19.340  0.00  0.00    +0.000 C 
ATOM     24  O   UNL     1      48.311   5.683  20.183  0.00  0.00    +0.000 OA
ATOM     25  H   UNL     1      48.782   3.329  20.681  0.00  0.00    +0.000 HD
ATOM     26  H   UNL     1      48.891   2.792  19.040  0.00  0.00    +0.000 HD
ENDBRANCH  16  23
ENDBRANCH  15  20
ENDBRANCH   1  15
TORSDOF 5
ENDMDL
MODEL 6
REMARK VINA RESULT:    -6.964      4.070      7.897
REMARK INTER + INTRA:          -9.621
REMARK INTER:                  -8.636
REMARK INTRA:                  -0.985
REMARK UNBOUND:                -0.621
REMARK  Name = 
REMARK  5 active torsions:
REMARK  status: ('A' for Active; 'I' for Inactive)
REMARK    1  A    between atoms: C_2  and  C_4
REMARK    2  A    between atoms: C_8  and  O_9
REMARK    3  A    between atoms: O_9  and  C_10
REMARK    4  A    between atoms: C_10  and  C_11
REMARK    5  A    between atoms: C_15  and  C_16
REMARK                            x       y       z     vdW  Elec       q    Type
REMARK                         _______ _______ _______ _____ _____    ______ ____
ROOT
ATOM      1  C   UNL     1      48.828   7.845  14.188  0.00  0.00    +0.000 C 
ENDROOT
BRANCH   1   2
ATOM      2  C   UNL     1      47.460   7.671  13.574  0.00  0.00    +0.000 A 
ATOM      3  C   UNL     1      46.652   8.785  13.313  0.00  0.00    +0.000 A 
ATOM      4  C   UNL     1      45.453   8.633  12.620  0.00  0.00    +0.000 A 
ATOM      5  C   UNL     1      45.081   7.377  12.140  0.00  0.00    +0.000 A 
ATOM      6  C   UNL     1      45.897   6.252  12.353  0.00  0.00    +0.000 A 
ATOM      7  C   UNL     1      47.040   6.400  13.147  0.00  0.00    +0.000 A 
BRANCH   6   8
ATOM      8  C   UNL     1      45.607   4.977  11.570  0.00  0.00    +0.000 C 
ATOM      9  C   UNL     1      44.423   5.078  10.597  0.00  0.00    +0.000 C 
ATOM     10  C   UNL     1      43.115   4.540  11.168  0.00  0.00    +0.000 C 
ATOM     11  C   UNL     1      43.314   3.170  11.801  0.00  0.00    +0.000 C 
ATOM     12  N   UNL     1      44.255   3.269  12.912  0.00  0.00    +0.000 NA
ATOM     13  C   UNL     1      45.580   3.685  12.436  0.00  0.00    +0.000 C 
ATOM     14  H   UNL     1      44.338   2.357  13.369  0.00  0.00    +0.000 HD
ENDBRANCH   6   8
ENDBRANCH   1   2
BRANCH   1  15
ATOM     15  O   UNL     1      49.268   6.646  14.820  0.00  0.00    +0.000 OA
BRANCH  15  20
ATOM     16  C   UNL     1      48.015   4.876  17.735  0.00  0.00    +0.000 A 
ATOM     17  C   UNL     1      47.951   5.882  18.704  0.00  0.00    +0.000 A 
ATOM     18  C   UNL     1      48.352   7.177  18.387  0.00  0.00    +0.000 A 
ATOM     19  C   UNL     1      48.806   7.472  17.099  0.00  0.00    +0.000 A 
ATOM     20  C   UNL     1      48.856   6.477  16.118  0.00  0.00    +0.000 A 
ATOM     21  C   UNL     1      48.457   5.177  16.440  0.00  0.00    +0.000 A 
BRANCH  16  23
ATOM     22  N   UNL     1      48.194   2.941  19.200  0.00  0.00    +0.000 N 
ATOM     23  C   UNL     1      47.590   3.505  18.116  0.00  0.00    +0.000 C 
ATOM     24  O   UNL     1      46.701   2.916  17.507  0.00  0.00    +0.000 OA
ATOM     25  H   UNL     1      47.818   2.056  19.514  0.00  0.00    +0.000 HD
ATOM     26  H   UNL     1      48.740   3.479  19.858  0.00  0.00    +0.000 HD
ENDBRANCH  16  23
ENDBRANCH  15  20
ENDBRANCH   1  15
TORSDOF 5
ENDMDL
MODEL 7
REMARK VINA RESULT:    -6.775      3.011      4.852
REMARK INTER + INTRA:          -9.376
REMARK INTER:                  -8.464
REMARK INTRA:                  -0.912
REMARK UNBOUND:                -0.621
REMARK  Name = 
REMARK  5 active torsions:
REMARK  status: ('A' for Active; 'I' for Inactive)
REMARK    1  A    between atoms: C_2  and  C_4
REMARK    2  A    between atoms: C_8  and  O_9
REMARK    3  A    between atoms: O_9  and  C_10
REMARK    4  A    between atoms: C_10  and  C_11
REMARK    5  A    between atoms: C_15  and  C_16
REMARK                            x       y       z     vdW  Elec       q    Type
REMARK                         _______ _______ _______ _____ _____    ______ ____
ROOT
ATOM      1  C   UNL     1      46.935   6.677  11.775  0.00  0.00    +0.000 C 
ENDROOT
BRANCH   1   2
ATOM      2  C   UNL     1      47.859   6.800  12.962  0.00  0.00    +0.000 A 
ATOM      3  C   UNL     1      48.690   7.918  13.102  0.00  0.00    +0.000 A 
ATOM      4  C   UNL     1      49.435   8.095  14.265  0.00  0.00    +0.000 A 
ATOM      5  C   UNL     1      49.314   7.183  15.314  0.00  0.00    +0.000 A 
ATOM      6  C   UNL     1      48.454   6.076  15.213  0.00  0.00    +0.000 A 
ATOM      7  C   UNL     1      47.798   5.851  13.996  0.00  0.00    +0.000 A 
BRANCH   6   8
ATOM      8  C   UNL     1      48.130   5.281  16.473  0.00  0.00    +0.000 C 
ATOM      9  C   UNL     1      49.248   5.265  17.525  0.00  0.00    +0.000 C 
ATOM     10  C   UNL     1      50.131   4.023  17.459  0.00  0.00    +0.000 C 
ATOM     11  C   UNL     1      49.293   2.755  17.390  0.00  0.00    +0.000 C 
ATOM     12  N   UNL     1      48.478   2.764  16.179  0.00  0.00    +0.000 NA
ATOM     13  C   UNL     1      47.520   3.876  16.204  0.00  0.00    +0.000 C 
ATOM     14  H   UNL     1      47.963   1.883  16.111  0.00  0.00    +0.000 HD
ENDBRANCH   6   8
ENDBRANCH   1   2
BRANCH   1  15
ATOM     15  O   UNL     1      45.568   6.678  12.180  0.00  0.00    +0.000 OA
BRANCH  15  20
ATOM     16  C   UNL     1      44.500   3.687  10.415  0.00  0.00    +0.000 A 
ATOM     17  C   UNL     1      43.608   3.098  11.317  0.00  0.00    +0.000 A 
ATOM     18  C   UNL     1      43.369   3.699  12.549  0.00  0.00    +0.000 A 
ATOM     19  C   UNL     1      44.011   4.895  12.880  0.00  0.00    +0.000 A 
ATOM     20  C   UNL     1      44.892   5.502  11.977  0.00  0.00    +0.000 A 
ATOM     21  C   UNL     1      45.132   4.893  10.743  0.00  0.00    +0.000 A 
BRANCH  16  23
ATOM     22  N   UNL     1      44.960   1.663   9.143  0.00  0.00    +0.000 N 
ATOM     23  C   UNL     1      44.738   3.008   9.116  0.00  0.00    +0.000 C 
ATOM     24  O   UNL     1      44.696   3.623   8.054  0.00  0.00    +0.000 OA
ATOM     25  H   UNL     1      45.009   1.198   8.247  0.00  0.00    +0.000 HD
ATOM     26  H   UNL     1      44.762   1.097   9.957  0.00  0.00    +0.000 HD
ENDBRANCH  16  23
ENDBRANCH  15  20
ENDBRANCH   1  15
TORSDOF 5
ENDMDL
MODEL 8
REMARK VINA RESULT:    -6.739      4.140      6.773
REMARK INTER + INTRA:          -9.330
REMARK INTER:                  -8.494
REMARK INTRA:                  -0.836
REMARK UNBOUND:                -0.621
REMARK  Name = 
REMARK  5 active torsions:
REMARK  status: ('A' for Active; 'I' for Inactive)
REMARK    1  A    between atoms: C_2  and  C_4
REMARK    2  A    between atoms: C_8  and  O_9
REMARK    3  A    between atoms: O_9  and  C_10
REMARK    4  A    between atoms: C_10  and  C_11
REMARK    5  A    between atoms: C_15  and  C_16
REMARK                            x       y       z     vdW  Elec       q    Type
REMARK                         _______ _______ _______ _____ _____    ______ ____
ROOT
ATOM      1  C   UNL     1      47.076   3.458  14.429  0.00  0.00    +0.000 C 
ENDROOT
BRANCH   1   2
ATOM      2  C   UNL     1      46.560   4.277  13.271  0.00  0.00    +0.000 A 
ATOM      3  C   UNL     1      45.443   3.850  12.542  0.00  0.00    +0.000 A 
ATOM      4  C   UNL     1      44.886   4.676  11.568  0.00  0.00    +0.000 A 
ATOM      5  C   UNL     1      45.411   5.950  11.354  0.00  0.00    +0.000 A 
ATOM      6  C   UNL     1      46.505   6.416  12.103  0.00  0.00    +0.000 A 
ATOM      7  C   UNL     1      47.123   5.534  12.998  0.00  0.00    +0.000 A 
BRANCH   6   8
ATOM      8  C   UNL     1      46.855   7.899  12.047  0.00  0.00    +0.000 C 
ATOM      9  C   UNL     1      48.347   8.197  11.835  0.00  0.00    +0.000 C 
ATOM     10  C   UNL     1      49.102   8.485  13.129  0.00  0.00    +0.000 C 
ATOM     11  C   UNL     1      48.358   9.497  13.987  0.00  0.00    +0.000 C 
ATOM     12  N   UNL     1      47.052   8.964  14.365  0.00  0.00    +0.000 NA
ATOM     13  C   UNL     1      46.214   8.752  13.178  0.00  0.00    +0.000 C 
ATOM     14  H   UNL     1      46.583   9.625  14.989  0.00  0.00    +0.000 HD
ENDBRANCH   6   8
ENDBRANCH   1   2
BRANCH   1  15
ATOM     15  O   UNL     1      46.525   3.905  15.665  0.00  0.00    +0.000 OA
BRANCH  15  20
ATOM     16  C   UNL     1      49.512   3.152  17.592  0.00  0.00    +0.000 A 
ATOM     17  C   UNL     1      49.352   3.944  18.734  0.00  0.00    +0.000 A 
ATOM     18  C   UNL     1      48.233   4.763  18.858  0.00  0.00    +0.000 A 
ATOM     19  C   UNL     1      47.267   4.784  17.850  0.00  0.00    +0.000 A 
ATOM     20  C   UNL     1      47.409   3.982  16.712  0.00  0.00    +0.000 A 
ATOM     21  C   UNL     1      48.535   3.164  16.588  0.00  0.00    +0.000 A 
BRANCH  16  23
ATOM     22  N   UNL     1      51.793   2.639  18.269  0.00  0.00    +0.000 N 
ATOM     23  C   UNL     1      50.726   2.302  17.491  0.00  0.00    +0.000 C 
ATOM     24  O   UNL     1      50.756   1.310  16.768  0.00  0.00    +0.000 OA
ATOM     25  H   UNL     1      52.568   1.990  18.273  0.00  0.00    +0.000 HD
ATOM     26  H   UNL     1      51.719   3.288  19.040  0.00  0.00    +0.000 HD
ENDBRANCH  16  23
ENDBRANCH  15  20
ENDBRANCH   1  15
TORSDOF 5
ENDMDL
MODEL 9
REMARK VINA RESULT:    -6.690      3.963      6.475
REMARK INTER + INTRA:          -9.267
REMARK INTER:                  -8.127
REMARK INTRA:                  -1.140
REMARK UNBOUND:                -0.621
REMARK  Name = 
REMARK  5 active torsions:
REMARK  status: ('A' for Active; 'I' for Inactive)
REMARK    1  A    between atoms: C_2  and  C_4
REMARK    2  A    between atoms: C_8  and  O_9
REMARK    3  A    between atoms: O_9  and  C_10
REMARK    4  A    between atoms: C_10  and  C_11
REMARK    5  A    between atoms: C_15  and  C_16
REMARK                            x       y       z     vdW  Elec       q    Type
REMARK                         _______ _______ _______ _____ _____    ______ ____
ROOT
ATOM      1  C   UNL     1      49.449   7.673  13.757  0.00  0.00    +0.000 C 
ENDROOT
BRANCH   1   2
ATOM      2  C   UNL     1      49.204   7.816  15.239  0.00  0.00    +0.000 A 
ATOM      3  C   UNL     1      48.611   8.977  15.752  0.00  0.00    +0.000 A 
ATOM      4  C   UNL     1      48.259   9.046  17.098  0.00  0.00    +0.000 A 
ATOM      5  C   UNL     1      48.451   7.940  17.925  0.00  0.00    +0.000 A 
ATOM      6  C   UNL     1      49.005   6.750  17.423  0.00  0.00    +0.000 A 
ATOM      7  C   UNL     1      49.457   6.733  16.098  0.00  0.00    +0.000 A 
BRANCH   6   8
ATOM      8  C   UNL     1      48.925   5.486  18.272  0.00  0.00    +0.000 C 
ATOM      9  C   UNL     1      49.664   4.274  17.687  0.00  0.00    +0.000 C 
ATOM     10  C   UNL     1      48.758   3.321  16.913  0.00  0.00    +0.000 C 
ATOM     11  C   UNL     1      47.502   2.990  17.706  0.00  0.00    +0.000 C 
ATOM     12  N   UNL     1      46.733   4.207  17.949  0.00  0.00    +0.000 NA
ATOM     13  C   UNL     1      47.495   5.146  18.781  0.00  0.00    +0.000 C 
ATOM     14  H   UNL     1      45.863   3.967  18.431  0.00  0.00    +0.000 HD
ENDBRANCH   6   8
ENDBRANCH   1   2
BRANCH   1  15
ATOM     15  O   UNL     1      48.873   6.472  13.250  0.00  0.00    +0.000 OA
BRANCH  15  20
ATOM     16  C   UNL     1      45.492   5.206  12.844  0.00  0.00    +0.000 A 
ATOM     17  C   UNL     1      44.768   6.357  12.516  0.00  0.00    +0.000 A 
ATOM     18  C   UNL     1      45.416   7.587  12.446  0.00  0.00    +0.000 A 
ATOM     19  C   UNL     1      46.789   7.670  12.691  0.00  0.00    +0.000 A 
ATOM     20  C   UNL     1      47.525   6.521  13.003  0.00  0.00    +0.000 A 
ATOM     21  C   UNL     1      46.871   5.289  13.077  0.00  0.00    +0.000 A 
BRANCH  16  23
ATOM     22  N   UNL     1      45.439   2.790  12.555  0.00  0.00    +0.000 N 
ATOM     23  C   UNL     1      44.762   3.915  12.921  0.00  0.00    +0.000 C 
ATOM     24  O   UNL     1      43.608   3.855  13.336  0.00  0.00    +0.000 OA
ATOM     25  H   UNL     1      44.968   1.911  12.718  0.00  0.00    +0.000 HD
ATOM     26  H   UNL     1      46.444   2.773  12.446  0.00  0.00    +0.000 HD
ENDBRANCH  16  23
ENDBRANCH  15  20
ENDBRANCH   1  15
TORSDOF 5
ENDMDL
