MODEL 1
REMARK VINA RESULT:    -8.477      0.000      0.000
REMARK INTER + INTRA:         -11.782
REMARK INTER:                 -10.955
REMARK INTRA:                  -0.827
REMARK UNBOUND:                -0.827
REMARK  Name = 
REMARK  5 active torsions:
REMARK  status: ('A' for Active; 'I' for Inactive)
REMARK    1  A    between atoms: C_2  and  C_4
REMARK    2  A    between atoms: C_7  and  S_8
REMARK    3  A    between atoms: S_8  and  C_9
REMARK    4  A    between atoms: C_9  and  C_10
REMARK    5  A    between atoms: C_14  and  C_15
REMARK                            x       y       z     vdW  Elec       q    Type
REMARK                         _______ _______ _______ _____ _____    ______ ____
ROOT
ATOM      1  C   UNL     1      44.186   4.015  12.225  0.00  0.00    +0.000 C 
ENDROOT
BRANCH   1   2
ATOM      2  C   UNL     1      45.403   4.747  12.733  0.00  0.00    +0.000 A 
ATOM      3  C   UNL     1      45.908   5.852  12.039  0.00  0.00    +0.000 A 
ATOM      4  C   UNL     1      47.037   6.516  12.510  0.00  0.00    +0.000 A 
ATOM      5  C   UNL     1      47.655   6.100  13.692  0.00  0.00    +0.000 A 
ATOM      6  C   UNL     1      47.148   5.030  14.449  0.00  0.00    +0.000 A 
ATOM      7  C   UNL     1      46.026   4.352  13.930  0.00  0.00    +0.000 A 
BRANCH   6   8
ATOM      8  C   UNL     1      47.707   4.683  15.780  0.00  0.00    +0.000 A 
ATOM      9  C   UNL     1      48.501   5.603  16.490  0.00  0.00    +0.000 A 
ATOM     10  C   UNL     1      48.949   5.338  17.788  0.00  0.00    +0.000 A 
ATOM     11  C   UNL     1      48.609   4.143  18.411  0.00  0.00    +0.000 A 
ATOM     12  C   UNL     1      47.847   3.203  17.724  0.00  0.00    +0.000 A 
ATOM     13  C   UNL     1      47.412   3.465  16.421  0.00  0.00    +0.000 A 
ENDBRANCH   6   8
ENDBRANCH   1   2
BRANCH   1  14
ATOM     14  S   UNL     1      43.637   4.655  10.609  0.00  0.00    +0.000 S 
BRANCH  14  18
ATOM     15  C   UNL     1      46.505   2.504   7.711  0.00  0.00    +0.000 A 
ATOM     16  C   UNL     1      46.406   3.898   7.648  0.00  0.00    +0.000 A 
ATOM     17  C   UNL     1      45.544   4.582   8.514  0.00  0.00    +0.000 A 
ATOM     18  C   UNL     1      44.765   3.890   9.448  0.00  0.00    +0.000 A 
ATOM     19  C   UNL     1      44.862   2.492   9.491  0.00  0.00    +0.000 A 
ATOM     20  C   UNL     1      45.718   1.799   8.627  0.00  0.00    +0.000 A 
BRANCH  15  22
ATOM     21  N   UNL     1      48.537   2.381   6.377  0.00  0.00    +0.000 N 
ATOM     22  C   UNL     1      47.412   1.740   6.815  0.00  0.00    +0.000 C 
ATOM     23  O   UNL     1      47.191   0.575   6.515  0.00  0.00    +0.000 OA
ATOM     24  H   UNL     1      49.201   1.811   5.867  0.00  0.00    +0.000 HD
ATOM     25  H   UNL     1      48.881   3.225   6.809  0.00  0.00    +0.000 HD
ENDBRANCH  15  22
ENDBRANCH  14  18
ENDBRANCH   1  14
TORSDOF 5
ENDMDL
MODEL 2
REMARK VINA RESULT:    -8.425      2.169      4.069
REMARK INTER + INTRA:         -11.714
REMARK INTER:                 -10.734
REMARK INTRA:                  -0.980
REMARK UNBOUND:                -0.827
REMARK  Name = 
REMARK  5 active torsions:
REMARK  status: ('A' for Active; 'I' for Inactive)
REMARK    1  A    between atoms: C_2  and  C_4
REMARK    2  A    between atoms: C_7  and  S_8
REMARK    3  A    between atoms: S_8  and  C_9
REMARK    4  A    between atoms: C_9  and  C_10
REMARK    5  A    between atoms: C_14  and  C_15
REMARK                            x       y       z     vdW  Elec       q    Type
REMARK                         _______ _______ _______ _____ _____    ______ ____
ROOT
ATOM      1  C   UNL     1      44.049   5.794  11.275  0.00  0.00    +0.000 C 
ENDROOT
BRANCH   1   2
ATOM      2  C   UNL     1      45.379   5.870  11.983  0.00  0.00    +0.000 A 
ATOM      3  C   UNL     1      45.729   4.913  12.942  0.00  0.00    +0.000 A 
ATOM      4  C   UNL     1      46.955   4.996  13.596  0.00  0.00    +0.000 A 
ATOM      5  C   UNL     1      47.853   6.019  13.278  0.00  0.00    +0.000 A 
ATOM      6  C   UNL     1      47.565   6.967  12.281  0.00  0.00    +0.000 A 
ATOM      7  C   UNL     1      46.302   6.881  11.662  0.00  0.00    +0.000 A 
BRANCH   6   8
ATOM      8  C   UNL     1      48.575   7.958  11.834  0.00  0.00    +0.000 A 
ATOM      9  C   UNL     1      48.247   9.323  11.725  0.00  0.00    +0.000 A 
ATOM     10  C   UNL     1      49.209  10.287  11.409  0.00  0.00    +0.000 A 
ATOM     11  C   UNL     1      50.529   9.908  11.198  0.00  0.00    +0.000 A 
ATOM     12  C   UNL     1      50.879   8.564  11.273  0.00  0.00    +0.000 A 
ATOM     13  C   UNL     1      49.911   7.600  11.576  0.00  0.00    +0.000 A 
ENDBRANCH   6   8
ENDBRANCH   1   2
BRANCH   1  14
ATOM     14  S   UNL     1      43.592   4.075  10.876  0.00  0.00    +0.000 S 
BRANCH  14  18
ATOM     15  C   UNL     1      46.499   2.738   7.558  0.00  0.00    +0.000 A 
ATOM     16  C   UNL     1      46.233   4.103   7.709  0.00  0.00    +0.000 A 
ATOM     17  C   UNL     1      45.354   4.543   8.707  0.00  0.00    +0.000 A 
ATOM     18  C   UNL     1      44.724   3.632   9.563  0.00  0.00    +0.000 A 
ATOM     19  C   UNL     1      44.988   2.265   9.392  0.00  0.00    +0.000 A 
ATOM     20  C   UNL     1      45.861   1.816   8.395  0.00  0.00    +0.000 A 
BRANCH  15  22
ATOM     21  N   UNL     1      47.532   2.961   5.366  0.00  0.00    +0.000 N 
ATOM     22  C   UNL     1      47.429   2.230   6.517  0.00  0.00    +0.000 C 
ATOM     23  O   UNL     1      48.109   1.229   6.692  0.00  0.00    +0.000 OA
ATOM     24  H   UNL     1      48.255   2.669   4.719  0.00  0.00    +0.000 HD
ATOM     25  H   UNL     1      47.201   3.911   5.298  0.00  0.00    +0.000 HD
ENDBRANCH  15  22
ENDBRANCH  14  18
ENDBRANCH   1  14
TORSDOF 5
ENDMDL
MODEL 3
REMARK VINA RESULT:    -8.160      2.010      4.353
REMARK INTER + INTRA:         -11.372
REMARK INTER:                 -10.357
REMARK INTRA:                  -1.015
REMARK UNBOUND:                -0.827
REMARK  Name = 
REMARK  5 active torsions:
REMARK  status: ('A' for Active; 'I' for Inactive)
REMARK    1  A    between atoms: C_2  and  C_4
REMARK    2  A    between atoms: C_7  and  S_8
REMARK    3  A    between atoms: S_8  and  C_9
REMARK    4  A    between atoms: C_9  and  C_10
REMARK    5  A    between atoms: C_14  and  C_15
REMARK                            x       y       z     vdW  Elec       q    Type
REMARK                         _______ _______ _______ _____ _____    ______ ____
ROOT
ATOM      1  C   UNL     1      44.313   3.731  12.413  0.00  0.00    +0.000 C 
ENDROOT
BRANCH   1   2
ATOM      2  C   UNL     1      45.359   4.745  12.806  0.00  0.00    +0.000 A 
ATOM      3  C   UNL     1      46.486   4.355  13.537  0.00  0.00    +0.000 A 
ATOM      4  C   UNL     1      47.442   5.298  13.904  0.00  0.00    +0.000 A 
ATOM      5  C   UNL     1      47.294   6.633  13.520  0.00  0.00    +0.000 A 
ATOM      6  C   UNL     1      46.206   7.057  12.737  0.00  0.00    +0.000 A 
ATOM      7  C   UNL     1      45.235   6.089  12.412  0.00  0.00    +0.000 A 
BRANCH   6   8
ATOM      8  C   UNL     1      46.125   8.438  12.199  0.00  0.00    +0.000 A 
ATOM      9  C   UNL     1      44.896   8.975  11.773  0.00  0.00    +0.000 A 
ATOM     10  C   UNL     1      44.777  10.306  11.363  0.00  0.00    +0.000 A 
ATOM     11  C   UNL     1      45.891  11.138  11.373  0.00  0.00    +0.000 A 
ATOM     12  C   UNL     1      47.125  10.630  11.764  0.00  0.00    +0.000 A 
ATOM     13  C   UNL     1      47.242   9.293  12.161  0.00  0.00    +0.000 A 
ENDBRANCH   6   8
ENDBRANCH   1   2
BRANCH   1  14
ATOM     14  S   UNL     1      43.480   4.187  10.857  0.00  0.00    +0.000 S 
BRANCH  14  18
ATOM     15  C   UNL     1      46.468   2.732   7.663  0.00  0.00    +0.000 A 
ATOM     16  C   UNL     1      46.275   4.108   7.826  0.00  0.00    +0.000 A 
ATOM     17  C   UNL     1      45.374   4.583   8.787  0.00  0.00    +0.000 A 
ATOM     18  C   UNL     1      44.649   3.698   9.594  0.00  0.00    +0.000 A 
ATOM     19  C   UNL     1      44.840   2.321   9.410  0.00  0.00    +0.000 A 
ATOM     20  C   UNL     1      45.735   1.837   8.450  0.00  0.00    +0.000 A 
BRANCH  15  22
ATOM     21  N   UNL     1      47.552   2.879   5.490  0.00  0.00    +0.000 N 
ATOM     22  C   UNL     1      47.418   2.186   6.660  0.00  0.00    +0.000 C 
ATOM     23  O   UNL     1      48.087   1.187   6.882  0.00  0.00    +0.000 OA
ATOM     24  H   UNL     1      48.287   2.563   4.869  0.00  0.00    +0.000 HD
ATOM     25  H   UNL     1      47.229   3.829   5.384  0.00  0.00    +0.000 HD
ENDBRANCH  15  22
ENDBRANCH  14  18
ENDBRANCH   1  14
TORSDOF 5
ENDMDL
MODEL 4
REMARK VINA RESULT:    -8.005      3.708      7.789
REMARK INTER + INTRA:         -11.172
REMARK INTER:                 -10.399
REMARK INTRA:                  -0.773
REMARK UNBOUND:                -0.827
REMARK  Name = 
REMARK  5 active torsions:
REMARK  status: ('A' for Active; 'I' for Inactive)
REMARK    1  A    between atoms: C_2  and  C_4
REMARK    2  A    between atoms: C_7  and  S_8
REMARK    3  A    between atoms: S_8  and  C_9
REMARK    4  A    between atoms: C_9  and  C_10
REMARK    5  A    between atoms: C_14  and  C_15
REMARK                            x       y       z     vdW  Elec       q    Type
REMARK                         _______ _______ _______ _____ _____    ______ ____
ROOT
ATOM      1  C   UNL     1      45.810   7.508  11.813  0.00  0.00    +0.000 C 
ENDROOT
BRANCH   1   2
ATOM      2  C   UNL     1      45.035   6.331  11.276  0.00  0.00    +0.000 A 
ATOM      3  C   UNL     1      43.692   6.147  11.625  0.00  0.00    +0.000 A 
ATOM      4  C   UNL     1      42.986   5.053  11.132  0.00  0.00    +0.000 A 
ATOM      5  C   UNL     1      43.606   4.149  10.265  0.00  0.00    +0.000 A 
ATOM      6  C   UNL     1      44.935   4.328   9.845  0.00  0.00    +0.000 A 
ATOM      7  C   UNL     1      45.638   5.423  10.388  0.00  0.00    +0.000 A 
BRANCH   6   8
ATOM      8  C   UNL     1      45.548   3.461   8.807  0.00  0.00    +0.000 A 
ATOM      9  C   UNL     1      46.214   4.020   7.701  0.00  0.00    +0.000 A 
ATOM     10  C   UNL     1      46.889   3.225   6.770  0.00  0.00    +0.000 A 
ATOM     11  C   UNL     1      46.917   1.843   6.926  0.00  0.00    +0.000 A 
ATOM     12  C   UNL     1      46.245   1.259   7.995  0.00  0.00    +0.000 A 
ATOM     13  C   UNL     1      45.560   2.058   8.917  0.00  0.00    +0.000 A 
ENDBRANCH   6   8
ENDBRANCH   1   2
BRANCH   1  14
ATOM     14  S   UNL     1      47.578   7.116  12.021  0.00  0.00    +0.000 S 
BRANCH  14  18
ATOM     15  C   UNL     1      47.574   4.703  15.949  0.00  0.00    +0.000 A 
ATOM     16  C   UNL     1      48.347   5.867  15.875  0.00  0.00    +0.000 A 
ATOM     17  C   UNL     1      48.371   6.622  14.697  0.00  0.00    +0.000 A 
ATOM     18  C   UNL     1      47.632   6.229  13.575  0.00  0.00    +0.000 A 
ATOM     19  C   UNL     1      46.873   5.053  13.656  0.00  0.00    +0.000 A 
ATOM     20  C   UNL     1      46.846   4.289  14.828  0.00  0.00    +0.000 A 
BRANCH  15  22
ATOM     21  N   UNL     1      48.487   4.090  18.120  0.00  0.00    +0.000 N 
ATOM     22  C   UNL     1      47.516   3.876  17.181  0.00  0.00    +0.000 C 
ATOM     23  O   UNL     1      46.618   3.069  17.376  0.00  0.00    +0.000 OA
ATOM     24  H   UNL     1      48.366   3.606  19.001  0.00  0.00    +0.000 HD
ATOM     25  H   UNL     1      49.070   4.913  18.115  0.00  0.00    +0.000 HD
ENDBRANCH  15  22
ENDBRANCH  14  18
ENDBRANCH   1  14
TORSDOF 5
ENDMDL
MODEL 5
REMARK VINA RESULT:    -7.821      2.628      3.495
REMARK INTER + INTRA:         -10.934
REMARK INTER:                  -9.979
REMARK INTRA:                  -0.955
REMARK UNBOUND:                -0.827
REMARK  Name = 
REMARK  5 active torsions:
REMARK  status: ('A' for Active; 'I' for Inactive)
REMARK    1  A    between atoms: C_2  and  C_4
REMARK    2  A    between atoms: C_7  and  S_8
REMARK    3  A    between atoms: S_8  and  C_9
REMARK    4  A    between atoms: C_9  and  C_10
REMARK    5  A    between atoms: C_14  and  C_15
REMARK                            x       y       z     vdW  Elec       q    Type
REMARK                         _______ _______ _______ _____ _____    ______ ____
ROOT
ATOM      1  C   UNL     1      44.867   3.806  12.261  0.00  0.00    +0.000 C 
ENDROOT
BRANCH   1   2
ATOM      2  C   UNL     1      45.286   5.249  12.124  0.00  0.00    +0.000 A 
ATOM      3  C   UNL     1      44.335   6.242  11.864  0.00  0.00    +0.000 A 
ATOM      4  C   UNL     1      44.731   7.570  11.730  0.00  0.00    +0.000 A 
ATOM      5  C   UNL     1      46.075   7.921  11.883  0.00  0.00    +0.000 A 
ATOM      6  C   UNL     1      47.053   6.964  12.201  0.00  0.00    +0.000 A 
ATOM      7  C   UNL     1      46.631   5.622  12.294  0.00  0.00    +0.000 A 
BRANCH   6   8
ATOM      8  C   UNL     1      48.451   7.353  12.516  0.00  0.00    +0.000 A 
ATOM      9  C   UNL     1      49.318   7.806  11.504  0.00  0.00    +0.000 A 
ATOM     10  C   UNL     1      50.602   8.278  11.793  0.00  0.00    +0.000 A 
ATOM     11  C   UNL     1      51.051   8.311  13.109  0.00  0.00    +0.000 A 
ATOM     12  C   UNL     1      50.226   7.844  14.128  0.00  0.00    +0.000 A 
ATOM     13  C   UNL     1      48.947   7.361  13.833  0.00  0.00    +0.000 A 
ENDBRANCH   6   8
ENDBRANCH   1   2
BRANCH   1  14
ATOM     14  S   UNL     1      43.747   3.296  10.916  0.00  0.00    +0.000 S 
BRANCH  14  18
ATOM     15  C   UNL     1      46.556   2.831   7.291  0.00  0.00    +0.000 A 
ATOM     16  C   UNL     1      46.204   1.689   8.020  0.00  0.00    +0.000 A 
ATOM     17  C   UNL     1      45.353   1.796   9.126  0.00  0.00    +0.000 A 
ATOM     18  C   UNL     1      44.847   3.038   9.527  0.00  0.00    +0.000 A 
ATOM     19  C   UNL     1      45.218   4.176   8.798  0.00  0.00    +0.000 A 
ATOM     20  C   UNL     1      46.072   4.080   7.692  0.00  0.00    +0.000 A 
BRANCH  15  22
ATOM     21  N   UNL     1      48.746   2.383   6.328  0.00  0.00    +0.000 N 
ATOM     22  C   UNL     1      47.451   2.761   6.107  0.00  0.00    +0.000 C 
ATOM     23  O   UNL     1      47.043   2.987   4.976  0.00  0.00    +0.000 OA
ATOM     24  H   UNL     1      49.309   2.225   5.501  0.00  0.00    +0.000 HD
ATOM     25  H   UNL     1      49.040   1.939   7.184  0.00  0.00    +0.000 HD
ENDBRANCH  15  22
ENDBRANCH  14  18
ENDBRANCH   1  14
TORSDOF 5
ENDMDL
MODEL 6
REMARK VINA RESULT:    -7.814      2.984      5.384
REMARK INTER + INTRA:         -10.924
REMARK INTER:                  -9.958
REMARK INTRA:                  -0.966
REMARK UNBOUND:                -0.827
REMARK  Name = 
REMARK  5 active torsions:
REMARK  status: ('A' for Active; 'I' for Inactive)
REMARK    1  A    between atoms: C_2  and  C_4
REMARK    2  A    between atoms: C_7  and  S_8
REMARK    3  A    between atoms: S_8  and  C_9
REMARK    4  A    between atoms: C_9  and  C_10
REMARK    5  A    between atoms: C_14  and  C_15
REMARK                            x       y       z     vdW  Elec       q    Type
REMARK                         _______ _______ _______ _____ _____    ______ ____
ROOT
ATOM      1  C   UNL     1      44.771   4.628  12.334  0.00  0.00    +0.000 C 
ENDROOT
BRANCH   1   2
ATOM      2  C   UNL     1      45.429   5.984  12.270  0.00  0.00    +0.000 A 
ATOM      3  C   UNL     1      46.799   6.121  12.524  0.00  0.00    +0.000 A 
ATOM      4  C   UNL     1      47.397   7.377  12.472  0.00  0.00    +0.000 A 
ATOM      5  C   UNL     1      46.639   8.503  12.139  0.00  0.00    +0.000 A 
ATOM      6  C   UNL     1      45.273   8.402  11.822  0.00  0.00    +0.000 A 
ATOM      7  C   UNL     1      44.685   7.125  11.919  0.00  0.00    +0.000 A 
BRANCH   6   8
ATOM      8  C   UNL     1      44.502   9.567  11.320  0.00  0.00    +0.000 A 
ATOM      9  C   UNL     1      45.051  10.862  11.350  0.00  0.00    +0.000 A 
ATOM     10  C   UNL     1      44.386  11.956  10.787  0.00  0.00    +0.000 A 
ATOM     11  C   UNL     1      43.152  11.778  10.172  0.00  0.00    +0.000 A 
ATOM     12  C   UNL     1      42.572  10.514  10.149  0.00  0.00    +0.000 A 
ATOM     13  C   UNL     1      43.234   9.424  10.727  0.00  0.00    +0.000 A 
ENDBRANCH   6   8
ENDBRANCH   1   2
BRANCH   1  14
ATOM     14  S   UNL     1      43.673   4.342  10.908  0.00  0.00    +0.000 S 
BRANCH  14  18
ATOM     15  C   UNL     1      46.526   2.775   7.643  0.00  0.00    +0.000 A 
ATOM     16  C   UNL     1      46.373   4.157   7.796  0.00  0.00    +0.000 A 
ATOM     17  C   UNL     1      45.514   4.666   8.778  0.00  0.00    +0.000 A 
ATOM     18  C   UNL     1      44.791   3.809   9.615  0.00  0.00    +0.000 A 
ATOM     19  C   UNL     1      44.942   2.425   9.443  0.00  0.00    +0.000 A 
ATOM     20  C   UNL     1      45.795   1.907   8.462  0.00  0.00    +0.000 A 
BRANCH  15  22
ATOM     21  N   UNL     1      47.540   2.865   5.433  0.00  0.00    +0.000 N 
ATOM     22  C   UNL     1      47.431   2.194   6.619  0.00  0.00    +0.000 C 
ATOM     23  O   UNL     1      48.087   1.185   6.835  0.00  0.00    +0.000 OA
ATOM     24  H   UNL     1      48.248   2.524   4.794  0.00  0.00    +0.000 HD
ATOM     25  H   UNL     1      47.232   3.820   5.322  0.00  0.00    +0.000 HD
ENDBRANCH  15  22
ENDBRANCH  14  18
ENDBRANCH   1  14
TORSDOF 5
ENDMDL
MODEL 7
REMARK VINA RESULT:    -7.115      4.660      7.814
REMARK INTER + INTRA:         -10.021
REMARK INTER:                  -9.296
REMARK INTRA:                  -0.725
REMARK UNBOUND:                -0.827
REMARK  Name = 
REMARK  5 active torsions:
REMARK  status: ('A' for Active; 'I' for Inactive)
REMARK    1  A    between atoms: C_2  and  C_4
REMARK    2  A    between atoms: C_7  and  S_8
REMARK    3  A    between atoms: S_8  and  C_9
REMARK    4  A    between atoms: C_9  and  C_10
REMARK    5  A    between atoms: C_14  and  C_15
REMARK                            x       y       z     vdW  Elec       q    Type
REMARK                         _______ _______ _______ _____ _____    ______ ____
ROOT
ATOM      1  C   UNL     1      44.958   7.268  11.277  0.00  0.00    +0.000 C 
ENDROOT
BRANCH   1   2
ATOM      2  C   UNL     1      44.610   5.831  10.978  0.00  0.00    +0.000 A 
ATOM      3  C   UNL     1      43.557   5.201  11.651  0.00  0.00    +0.000 A 
ATOM      4  C   UNL     1      43.247   3.872  11.375  0.00  0.00    +0.000 A 
ATOM      5  C   UNL     1      43.968   3.170  10.405  0.00  0.00    +0.000 A 
ATOM      6  C   UNL     1      44.995   3.781   9.666  0.00  0.00    +0.000 A 
ATOM      7  C   UNL     1      45.312   5.115   9.992  0.00  0.00    +0.000 A 
BRANCH   6   8
ATOM      8  C   UNL     1      45.658   3.089   8.533  0.00  0.00    +0.000 A 
ATOM      9  C   UNL     1      46.065   3.803   7.390  0.00  0.00    +0.000 A 
ATOM     10  C   UNL     1      46.784   3.192   6.359  0.00  0.00    +0.000 A 
ATOM     11  C   UNL     1      47.120   1.846   6.448  0.00  0.00    +0.000 A 
ATOM     12  C   UNL     1      46.709   1.107   7.553  0.00  0.00    +0.000 A 
ATOM     13  C   UNL     1      45.977   1.719   8.577  0.00  0.00    +0.000 A 
ENDBRANCH   6   8
ENDBRANCH   1   2
BRANCH   1  14
ATOM     14  S   UNL     1      45.902   7.426  12.829  0.00  0.00    +0.000 S 
BRANCH  14  18
ATOM     15  C   UNL     1      49.908   9.220  11.421  0.00  0.00    +0.000 A 
ATOM     16  C   UNL     1      49.842   7.848  11.687  0.00  0.00    +0.000 A 
ATOM     17  C   UNL     1      48.640   7.272  12.117  0.00  0.00    +0.000 A 
ATOM     18  C   UNL     1      47.491   8.051  12.294  0.00  0.00    +0.000 A 
ATOM     19  C   UNL     1      47.574   9.428  12.038  0.00  0.00    +0.000 A 
ATOM     20  C   UNL     1      48.771  10.013  11.612  0.00  0.00    +0.000 A 
BRANCH  15  22
ATOM     21  N   UNL     1      51.462  11.091  11.494  0.00  0.00    +0.000 N 
ATOM     22  C   UNL     1      51.160   9.870  10.958  0.00  0.00    +0.000 C 
ATOM     23  O   UNL     1      51.916   9.325  10.166  0.00  0.00    +0.000 OA
ATOM     24  H   UNL     1      52.374  11.465  11.259  0.00  0.00    +0.000 HD
ATOM     25  H   UNL     1      51.015  11.440  12.328  0.00  0.00    +0.000 HD
ENDBRANCH  15  22
ENDBRANCH  14  18
ENDBRANCH   1  14
TORSDOF 5
ENDMDL
MODEL 8
REMARK VINA RESULT:    -6.975      4.324      7.790
REMARK INTER + INTRA:          -9.841
REMARK INTER:                  -9.061
REMARK INTRA:                  -0.780
REMARK UNBOUND:                -0.827
REMARK  Name = 
REMARK  5 active torsions:
REMARK  status: ('A' for Active; 'I' for Inactive)
REMARK    1  A    between atoms: C_2  and  C_4
REMARK    2  A    between atoms: C_7  and  S_8
REMARK    3  A    between atoms: S_8  and  C_9
REMARK    4  A    between atoms: C_9  and  C_10
REMARK    5  A    between atoms: C_14  and  C_15
REMARK                            x       y       z     vdW  Elec       q    Type
REMARK                         _______ _______ _______ _____ _____    ______ ____
ROOT
ATOM      1  C   UNL     1      45.850   5.038  13.933  0.00  0.00    +0.000 C 
ENDROOT
BRANCH   1   2
ATOM      2  C   UNL     1      44.966   4.727  12.750  0.00  0.00    +0.000 A 
ATOM      3  C   UNL     1      43.609   5.067  12.769  0.00  0.00    +0.000 A 
ATOM      4  C   UNL     1      42.799   4.770  11.677  0.00  0.00    +0.000 A 
ATOM      5  C   UNL     1      43.343   4.156  10.546  0.00  0.00    +0.000 A 
ATOM      6  C   UNL     1      44.712   3.849  10.462  0.00  0.00    +0.000 A 
ATOM      7  C   UNL     1      45.501   4.127  11.596  0.00  0.00    +0.000 A 
BRANCH   6   8
ATOM      8  C   UNL     1      45.321   3.339   9.208  0.00  0.00    +0.000 A 
ATOM      9  C   UNL     1      45.765   4.227   8.210  0.00  0.00    +0.000 A 
ATOM     10  C   UNL     1      46.437   3.775   7.070  0.00  0.00    +0.000 A 
ATOM     11  C   UNL     1      46.686   2.417   6.903  0.00  0.00    +0.000 A 
ATOM     12  C   UNL     1      46.235   1.513   7.859  0.00  0.00    +0.000 A 
ATOM     13  C   UNL     1      45.551   1.968   8.992  0.00  0.00    +0.000 A 
ENDBRANCH   6   8
ENDBRANCH   1   2
BRANCH   1  14
ATOM     14  S   UNL     1      47.422   5.803  13.420  0.00  0.00    +0.000 S 
BRANCH  14  18
ATOM     15  C   UNL     1      46.381  10.076  12.039  0.00  0.00    +0.000 A 
ATOM     16  C   UNL     1      45.347   9.239  12.473  0.00  0.00    +0.000 A 
ATOM     17  C   UNL     1      45.630   7.935  12.899  0.00  0.00    +0.000 A 
ATOM     18  C   UNL     1      46.940   7.444  12.893  0.00  0.00    +0.000 A 
ATOM     19  C   UNL     1      47.966   8.288  12.442  0.00  0.00    +0.000 A 
ATOM     20  C   UNL     1      47.693   9.591  12.011  0.00  0.00    +0.000 A 
BRANCH  15  22
ATOM     21  N   UNL     1      46.485  12.475  12.438  0.00  0.00    +0.000 N 
ATOM     22  C   UNL     1      46.126  11.468  11.586  0.00  0.00    +0.000 C 
ATOM     23  O   UNL     1      45.658  11.712  10.483  0.00  0.00    +0.000 OA
ATOM     24  H   UNL     1      46.415  13.415  12.068  0.00  0.00    +0.000 HD
ATOM     25  H   UNL     1      47.105  12.326  13.220  0.00  0.00    +0.000 HD
ENDBRANCH  15  22
ENDBRANCH  14  18
ENDBRANCH   1  14
TORSDOF 5
ENDMDL
MODEL 9
REMARK VINA RESULT:    -6.790      4.535      8.854
REMARK INTER + INTRA:          -9.602
REMARK INTER:                  -9.045
REMARK INTRA:                  -0.557
REMARK UNBOUND:                -0.827
REMARK  Name = 
REMARK  5 active torsions:
REMARK  status: ('A' for Active; 'I' for Inactive)
REMARK    1  A    between atoms: C_2  and  C_4
REMARK    2  A    between atoms: C_7  and  S_8
REMARK    3  A    between atoms: S_8  and  C_9
REMARK    4  A    between atoms: C_9  and  C_10
REMARK    5  A    between atoms: C_14  and  C_15
REMARK                            x       y       z     vdW  Elec       q    Type
REMARK                         _______ _______ _______ _____ _____    ______ ____
ROOT
ATOM      1  C   UNL     1      45.807   5.154  14.010  0.00  0.00    +0.000 C 
ENDROOT
BRANCH   1   2
ATOM      2  C   UNL     1      44.935   4.899  12.806  0.00  0.00    +0.000 A 
ATOM      3  C   UNL     1      43.605   5.333  12.787  0.00  0.00    +0.000 A 
ATOM      4  C   UNL     1      42.805   5.086  11.676  0.00  0.00    +0.000 A 
ATOM      5  C   UNL     1      43.334   4.427  10.562  0.00  0.00    +0.000 A 
ATOM      6  C   UNL     1      44.679   4.024  10.517  0.00  0.00    +0.000 A 
ATOM      7  C   UNL     1      45.456   4.254  11.670  0.00  0.00    +0.000 A 
BRANCH   6   8
ATOM      8  C   UNL     1      45.284   3.464   9.282  0.00  0.00    +0.000 A 
ATOM      9  C   UNL     1      45.806   4.312   8.287  0.00  0.00    +0.000 A 
ATOM     10  C   UNL     1      46.474   3.806   7.168  0.00  0.00    +0.000 A 
ATOM     11  C   UNL     1      46.641   2.434   7.018  0.00  0.00    +0.000 A 
ATOM     12  C   UNL     1      46.112   1.570   7.972  0.00  0.00    +0.000 A 
ATOM     13  C   UNL     1      45.433   2.079   9.084  0.00  0.00    +0.000 A 
ENDBRANCH   6   8
ENDBRANCH   1   2
BRANCH   1  14
ATOM     14  S   UNL     1      47.097   3.880  14.195  0.00  0.00    +0.000 S 
BRANCH  14  18
ATOM     15  C   UNL     1      48.551   4.557  18.516  0.00  0.00    +0.000 A 
ATOM     16  C   UNL     1      48.073   3.291  18.158  0.00  0.00    +0.000 A 
ATOM     17  C   UNL     1      47.624   3.053  16.853  0.00  0.00    +0.000 A 
ATOM     18  C   UNL     1      47.637   4.069  15.891  0.00  0.00    +0.000 A 
ATOM     19  C   UNL     1      48.104   5.337  16.266  0.00  0.00    +0.000 A 
ATOM     20  C   UNL     1      48.551   5.586  17.569  0.00  0.00    +0.000 A 
BRANCH  15  22
ATOM     21  N   UNL     1      50.272   4.357  20.225  0.00  0.00    +0.000 N 
ATOM     22  C   UNL     1      49.043   4.851  19.887  0.00  0.00    +0.000 C 
ATOM     23  O   UNL     1      48.403   5.540  20.669  0.00  0.00    +0.000 OA
ATOM     24  H   UNL     1      50.644   4.664  21.116  0.00  0.00    +0.000 HD
ATOM     25  H   UNL     1      50.929   4.024  19.536  0.00  0.00    +0.000 HD
ENDBRANCH  15  22
ENDBRANCH  14  18
ENDBRANCH   1  14
TORSDOF 5
ENDMDL
