MODEL 1
REMARK VINA RESULT:    -7.105      0.000      0.000
REMARK INTER + INTRA:          -9.559
REMARK INTER:                  -8.767
REMARK INTRA:                  -0.792
REMARK UNBOUND:                -0.792
REMARK  Name = 
REMARK  4 active torsions:
REMARK  status: ('A' for Active; 'I' for Inactive)
REMARK    1  A    between atoms: C_5  and  N_6
REMARK    2  A    between atoms: N_6  and  C_7
REMARK    3  A    between atoms: C_7  and  C_8
REMARK    4  A    between atoms: C_12  and  N_13
REMARK                            x       y       z     vdW  Elec       q    Type
REMARK                         _______ _______ _______ _____ _____    ______ ____
ROOT
ATOM      1  C   UNL     1      45.055   4.789  12.272  0.00  0.00    +0.000 A 
ATOM      2  C   UNL     1      45.566   3.634  12.880  0.00  0.00    +0.000 A 
ATOM      3  C   UNL     1      46.755   3.666  13.604  0.00  0.00    +0.000 A 
ATOM      4  C   UNL     1      47.458   4.865  13.725  0.00  0.00    +0.000 A 
ATOM      5  C   UNL     1      46.985   6.058  13.165  0.00  0.00    +0.000 A 
ATOM      6  C   UNL     1      45.765   5.993  12.475  0.00  0.00    +0.000 A 
ENDROOT
BRANCH   5   7
ATOM      7  N   UNL     1      47.711   7.230  13.297  0.00  0.00    +0.000 N 
ATOM      8  C   UNL     1      47.073   8.549  13.406  0.00  0.00    +0.000 C 
ATOM      9  C   UNL     1      47.375   9.435  12.178  0.00  0.00    +0.000 C 
ATOM     10  N   UNL     1      48.818   9.549  11.878  0.00  0.00    +0.000 NA
ATOM     11  C   UNL     1      49.356   8.187  11.679  0.00  0.00    +0.000 C 
ATOM     12  C   UNL     1      49.127   7.241  12.882  0.00  0.00    +0.000 C 
ATOM     13  H   UNL     1      49.277   9.950  12.695  0.00  0.00    +0.000 HD
ENDBRANCH   5   7
BRANCH   1  14
ATOM     14  C   UNL     1      43.830   4.728  11.361  0.00  0.00    +0.000 C 
ATOM     15  C   UNL     1      42.474   5.082  11.972  0.00  0.00    +0.000 C 
ATOM     16  C   UNL     1      43.142   6.045  11.051  0.00  0.00    +0.000 C 
BRANCH  14  17
ATOM     17  N   UNL     1      43.796   3.575  10.443  0.00  0.00    +0.000 N 
ATOM     18  H   UNL     1      43.466   2.711  10.858  0.00  0.00    +0.000 HD
BRANCH  17  23
ATOM     19  C   UNL     1      46.173   1.974   8.032  0.00  0.00    +0.000 A 
ATOM     20  C   UNL     1      46.589   3.120   7.378  0.00  0.00    +0.000 A 
ATOM     21  N   UNL     1      46.143   4.352   7.680  0.00  0.00    +0.000 NA
ATOM     22  C   UNL     1      45.227   4.429   8.679  0.00  0.00    +0.000 A 
ATOM     23  C   UNL     1      44.701   3.340   9.386  0.00  0.00    +0.000 A 
ATOM     24  C   UNL     1      45.230   2.095   9.060  0.00  0.00    +0.000 A 
ENDBRANCH  17  23
ENDBRANCH  14  17
ENDBRANCH   1  14
TORSDOF 4
ENDMDL
MODEL 2
REMARK VINA RESULT:    -6.759      2.248      3.643
REMARK INTER + INTRA:          -9.132
REMARK INTER:                  -8.742
REMARK INTRA:                  -0.390
REMARK UNBOUND:                -0.792
REMARK  Name = 
REMARK  4 active torsions:
REMARK  status: ('A' for Active; 'I' for Inactive)
REMARK    1  A    between atoms: C_5  and  N_6
REMARK    2  A    between atoms: N_6  and  C_7
REMARK    3  A    between atoms: C_7  and  C_8
REMARK    4  A    between atoms: C_12  and  N_13
REMARK                            x       y       z     vdW  Elec       q    Type
REMARK                         _______ _______ _______ _____ _____    ______ ____
ROOT
ATOM      1  C   UNL     1      45.660   5.078  12.705  0.00  0.00    +0.000 A 
ATOM      2  C   UNL     1      46.133   6.297  12.201  0.00  0.00    +0.000 A 
ATOM      3  C   UNL     1      47.190   6.968  12.810  0.00  0.00    +0.000 A 
ATOM      4  C   UNL     1      47.788   6.425  13.948  0.00  0.00    +0.000 A 
ATOM      5  C   UNL     1      47.379   5.197  14.482  0.00  0.00    +0.000 A 
ATOM      6  C   UNL     1      46.337   4.533  13.818  0.00  0.00    +0.000 A 
ENDROOT
BRANCH   5   7
ATOM      7  N   UNL     1      47.989   4.690  15.617  0.00  0.00    +0.000 N 
ATOM      8  C   UNL     1      47.785   3.309  16.077  0.00  0.00    +0.000 C 
ATOM      9  C   UNL     1      47.032   3.258  17.423  0.00  0.00    +0.000 C 
ATOM     10  N   UNL     1      47.650   4.097  18.472  0.00  0.00    +0.000 NA
ATOM     11  C   UNL     1      47.721   5.485  17.970  0.00  0.00    +0.000 C 
ATOM     12  C   UNL     1      48.493   5.630  16.637  0.00  0.00    +0.000 C 
ATOM     13  H   UNL     1      48.605   3.767  18.615  0.00  0.00    +0.000 HD
ENDBRANCH   5   7
BRANCH   1  14
ATOM     14  C   UNL     1      44.412   4.412  12.125  0.00  0.00    +0.000 C 
ATOM     15  C   UNL     1      43.190   4.286  13.033  0.00  0.00    +0.000 C 
ATOM     16  C   UNL     1      43.192   5.294  11.935  0.00  0.00    +0.000 C 
BRANCH  14  17
ATOM     17  N   UNL     1      44.673   3.223  11.294  0.00  0.00    +0.000 N 
ATOM     18  H   UNL     1      45.053   2.429  11.797  0.00  0.00    +0.000 HD
BRANCH  17  23
ATOM     19  C   UNL     1      45.901   2.234   7.897  0.00  0.00    +0.000 A 
ATOM     20  C   UNL     1      46.019   3.502   7.355  0.00  0.00    +0.000 A 
ATOM     21  N   UNL     1      45.726   4.628   8.029  0.00  0.00    +0.000 NA
ATOM     22  C   UNL     1      45.283   4.467   9.302  0.00  0.00    +0.000 A 
ATOM     23  C   UNL     1      45.084   3.238   9.944  0.00  0.00    +0.000 A 
ATOM     24  C   UNL     1      45.444   2.109   9.214  0.00  0.00    +0.000 A 
ENDBRANCH  17  23
ENDBRANCH  14  17
ENDBRANCH   1  14
TORSDOF 4
ENDMDL
MODEL 3
REMARK VINA RESULT:    -6.668      2.044      6.312
REMARK INTER + INTRA:          -9.019
REMARK INTER:                  -8.352
REMARK INTRA:                  -0.667
REMARK UNBOUND:                -0.792
REMARK  Name = 
REMARK  4 active torsions:
REMARK  status: ('A' for Active; 'I' for Inactive)
REMARK    1  A    between atoms: C_5  and  N_6
REMARK    2  A    between atoms: N_6  and  C_7
REMARK    3  A    between atoms: C_7  and  C_8
REMARK    4  A    between atoms: C_12  and  N_13
REMARK                            x       y       z     vdW  Elec       q    Type
REMARK                         _______ _______ _______ _____ _____    ______ ____
ROOT
ATOM      1  C   UNL     1      45.211   5.417  12.048  0.00  0.00    +0.000 A 
ATOM      2  C   UNL     1      44.309   4.826  12.944  0.00  0.00    +0.000 A 
ATOM      3  C   UNL     1      43.550   3.719  12.576  0.00  0.00    +0.000 A 
ATOM      4  C   UNL     1      43.679   3.187  11.294  0.00  0.00    +0.000 A 
ATOM      5  C   UNL     1      44.583   3.714  10.363  0.00  0.00    +0.000 A 
ATOM      6  C   UNL     1      45.358   4.806  10.783  0.00  0.00    +0.000 A 
ENDROOT
BRANCH   5   7
ATOM      7  N   UNL     1      44.682   3.167   9.095  0.00  0.00    +0.000 N 
ATOM      8  C   UNL     1      44.867   1.728   8.864  0.00  0.00    +0.000 C 
ATOM      9  C   UNL     1      46.245   1.420   8.241  0.00  0.00    +0.000 C 
ATOM     10  N   UNL     1      46.527   2.209   7.023  0.00  0.00    +0.000 NA
ATOM     11  C   UNL     1      46.422   3.642   7.368  0.00  0.00    +0.000 C 
ATOM     12  C   UNL     1      45.054   4.044   7.968  0.00  0.00    +0.000 C 
ATOM     13  H   UNL     1      45.800   1.998   6.338  0.00  0.00    +0.000 HD
ENDBRANCH   5   7
BRANCH   1  14
ATOM     14  C   UNL     1      45.939   6.714  12.398  0.00  0.00    +0.000 C 
ATOM     15  C   UNL     1      47.181   6.612  13.282  0.00  0.00    +0.000 C 
ATOM     16  C   UNL     1      47.334   6.891  11.826  0.00  0.00    +0.000 C 
BRANCH  14  17
ATOM     17  N   UNL     1      45.060   7.852  12.721  0.00  0.00    +0.000 N 
ATOM     18  H   UNL     1      44.203   7.604  13.202  0.00  0.00    +0.000 HD
BRANCH  17  23
ATOM     19  C   UNL     1      43.945  10.345  10.157  0.00  0.00    +0.000 A 
ATOM     20  C   UNL     1      44.880  11.330  10.423  0.00  0.00    +0.000 A 
ATOM     21  N   UNL     1      45.828  11.219  11.370  0.00  0.00    +0.000 NA
ATOM     22  C   UNL     1      45.824  10.067  12.089  0.00  0.00    +0.000 A 
ATOM     23  C   UNL     1      44.908   9.019  11.941  0.00  0.00    +0.000 A 
ATOM     24  C   UNL     1      43.976   9.170  10.917  0.00  0.00    +0.000 A 
ENDBRANCH  17  23
ENDBRANCH  14  17
ENDBRANCH   1  14
TORSDOF 4
ENDMDL
MODEL 4
REMARK VINA RESULT:    -6.529      1.921      6.515
REMARK INTER + INTRA:          -8.847
REMARK INTER:                  -8.198
REMARK INTRA:                  -0.649
REMARK UNBOUND:                -0.792
REMARK  Name = 
REMARK  4 active torsions:
REMARK  status: ('A' for Active; 'I' for Inactive)
REMARK    1  A    between atoms: C_5  and  N_6
REMARK    2  A    between atoms: N_6  and  C_7
REMARK    3  A    between atoms: C_7  and  C_8
REMARK    4  A    between atoms: C_12  and  N_13
REMARK                            x       y       z     vdW  Elec       q    Type
REMARK                         _______ _______ _______ _____ _____    ______ ____
ROOT
ATOM      1  C   UNL     1      45.296   4.967  12.079  0.00  0.00    +0.000 A 
ATOM      2  C   UNL     1      44.310   4.408  12.904  0.00  0.00    +0.000 A 
ATOM      3  C   UNL     1      43.489   3.379  12.450  0.00  0.00    +0.000 A 
ATOM      4  C   UNL     1      43.642   2.895  11.150  0.00  0.00    +0.000 A 
ATOM      5  C   UNL     1      44.627   3.392  10.289  0.00  0.00    +0.000 A 
ATOM      6  C   UNL     1      45.460   4.402  10.794  0.00  0.00    +0.000 A 
ENDROOT
BRANCH   5   7
ATOM      7  N   UNL     1      44.748   2.895   9.002  0.00  0.00    +0.000 N 
ATOM      8  C   UNL     1      45.040   1.483   8.721  0.00  0.00    +0.000 C 
ATOM      9  C   UNL     1      46.428   1.303   8.069  0.00  0.00    +0.000 C 
ATOM     10  N   UNL     1      46.628   2.151   6.874  0.00  0.00    +0.000 NA
ATOM     11  C   UNL     1      46.418   3.560   7.268  0.00  0.00    +0.000 C 
ATOM     12  C   UNL     1      45.033   3.834   7.899  0.00  0.00    +0.000 C 
ATOM     13  H   UNL     1      45.909   1.906   6.193  0.00  0.00    +0.000 HD
ENDBRANCH   5   7
BRANCH   1  14
ATOM     14  C   UNL     1      46.100   6.188  12.523  0.00  0.00    +0.000 C 
ATOM     15  C   UNL     1      46.070   7.422  11.621  0.00  0.00    +0.000 C 
ATOM     16  C   UNL     1      45.309   7.426  12.904  0.00  0.00    +0.000 C 
BRANCH  14  17
ATOM     17  N   UNL     1      47.428   5.885  13.087  0.00  0.00    +0.000 N 
ATOM     18  H   UNL     1      48.059   5.407  12.455  0.00  0.00    +0.000 HD
BRANCH  17  23
ATOM     19  C   UNL     1      47.410   4.301  16.481  0.00  0.00    +0.000 A 
ATOM     20  C   UNL     1      48.220   5.218  17.129  0.00  0.00    +0.000 A 
ATOM     21  N   UNL     1      48.752   6.295  16.526  0.00  0.00    +0.000 NA
ATOM     22  C   UNL     1      48.465   6.448  15.208  0.00  0.00    +0.000 A 
ATOM     23  C   UNL     1      47.694   5.569  14.437  0.00  0.00    +0.000 A 
ATOM     24  C   UNL     1      47.133   4.495  15.122  0.00  0.00    +0.000 A 
ENDBRANCH  17  23
ENDBRANCH  14  17
ENDBRANCH   1  14
TORSDOF 4
ENDMDL
MODEL 5
REMARK VINA RESULT:    -6.230      2.433      3.243
REMARK INTER + INTRA:          -8.479
REMARK INTER:                  -7.785
REMARK INTRA:                  -0.694
REMARK UNBOUND:                -0.792
REMARK  Name = 
REMARK  4 active torsions:
REMARK  status: ('A' for Active; 'I' for Inactive)
REMARK    1  A    between atoms: C_5  and  N_6
REMARK    2  A    between atoms: N_6  and  C_7
REMARK    3  A    between atoms: C_7  and  C_8
REMARK    4  A    between atoms: C_12  and  N_13
REMARK                            x       y       z     vdW  Elec       q    Type
REMARK                         _______ _______ _______ _____ _____    ______ ____
ROOT
ATOM      1  C   UNL     1      44.848   6.594  12.210  0.00  0.00    +0.000 A 
ATOM      2  C   UNL     1      46.131   6.509  12.768  0.00  0.00    +0.000 A 
ATOM      3  C   UNL     1      46.936   7.638  12.897  0.00  0.00    +0.000 A 
ATOM      4  C   UNL     1      46.466   8.876  12.459  0.00  0.00    +0.000 A 
ATOM      5  C   UNL     1      45.183   9.030  11.919  0.00  0.00    +0.000 A 
ATOM      6  C   UNL     1      44.387   7.877  11.840  0.00  0.00    +0.000 A 
ENDROOT
BRANCH   5   7
ATOM      7  N   UNL     1      44.749  10.272  11.487  0.00  0.00    +0.000 N 
ATOM      8  C   UNL     1      43.583  10.442  10.609  0.00  0.00    +0.000 C 
ATOM      9  C   UNL     1      43.985  10.980   9.219  0.00  0.00    +0.000 C 
ATOM     10  N   UNL     1      44.806  12.208   9.282  0.00  0.00    +0.000 NA
ATOM     11  C   UNL     1      46.007  11.919  10.093  0.00  0.00    +0.000 C 
ATOM     12  C   UNL     1      45.692  11.406  11.518  0.00  0.00    +0.000 C 
ATOM     13  H   UNL     1      44.265  12.923   9.768  0.00  0.00    +0.000 HD
ENDBRANCH   5   7
BRANCH   1  14
ATOM     14  C   UNL     1      44.020   5.338  11.937  0.00  0.00    +0.000 C 
ATOM     15  C   UNL     1      42.893   5.007  12.915  0.00  0.00    +0.000 C 
ATOM     16  C   UNL     1      42.563   5.548  11.565  0.00  0.00    +0.000 C 
BRANCH  14  17
ATOM     17  N   UNL     1      44.796   4.167  11.491  0.00  0.00    +0.000 N 
ATOM     18  H   UNL     1      45.532   3.879  12.125  0.00  0.00    +0.000 HD
BRANCH  17  23
ATOM     19  C   UNL     1      45.493   2.330   8.302  0.00  0.00    +0.000 A 
ATOM     20  C   UNL     1      45.877   3.414   7.532  0.00  0.00    +0.000 A 
ATOM     21  N   UNL     1      45.919   4.676   7.993  0.00  0.00    +0.000 NA
ATOM     22  C   UNL     1      45.544   4.854   9.286  0.00  0.00    +0.000 A 
ATOM     23  C   UNL     1      45.098   3.845  10.150  0.00  0.00    +0.000 A 
ATOM     24  C   UNL     1      45.117   2.553   9.632  0.00  0.00    +0.000 A 
ENDBRANCH  17  23
ENDBRANCH  14  17
ENDBRANCH   1  14
TORSDOF 4
ENDMDL
MODEL 6
REMARK VINA RESULT:    -6.211      1.071      6.070
REMARK INTER + INTRA:          -8.456
REMARK INTER:                  -7.651
REMARK INTRA:                  -0.805
REMARK UNBOUND:                -0.792
REMARK  Name = 
REMARK  4 active torsions:
REMARK  status: ('A' for Active; 'I' for Inactive)
REMARK    1  A    between atoms: C_5  and  N_6
REMARK    2  A    between atoms: N_6  and  C_7
REMARK    3  A    between atoms: C_7  and  C_8
REMARK    4  A    between atoms: C_12  and  N_13
REMARK                            x       y       z     vdW  Elec       q    Type
REMARK                         _______ _______ _______ _____ _____    ______ ____
ROOT
ATOM      1  C   UNL     1      45.174   4.776  12.850  0.00  0.00    +0.000 A 
ATOM      2  C   UNL     1      43.923   5.306  13.196  0.00  0.00    +0.000 A 
ATOM      3  C   UNL     1      42.843   5.232  12.321  0.00  0.00    +0.000 A 
ATOM      4  C   UNL     1      43.002   4.627  11.075  0.00  0.00    +0.000 A 
ATOM      5  C   UNL     1      44.218   4.053  10.683  0.00  0.00    +0.000 A 
ATOM      6  C   UNL     1      45.273   4.114  11.606  0.00  0.00    +0.000 A 
ENDROOT
BRANCH   5   7
ATOM      7  N   UNL     1      44.345   3.466   9.435  0.00  0.00    +0.000 N 
ATOM      8  C   UNL     1      44.466   2.013   9.252  0.00  0.00    +0.000 C 
ATOM      9  C   UNL     1      45.853   1.618   8.701  0.00  0.00    +0.000 C 
ATOM     10  N   UNL     1      46.230   2.357   7.477  0.00  0.00    +0.000 NA
ATOM     11  C   UNL     1      46.184   3.803   7.779  0.00  0.00    +0.000 C 
ATOM     12  C   UNL     1      44.813   4.290   8.304  0.00  0.00    +0.000 C 
ATOM     13  H   UNL     1      45.525   2.163   6.765  0.00  0.00    +0.000 HD
ENDBRANCH   5   7
BRANCH   1  14
ATOM     14  C   UNL     1      46.396   4.980  13.745  0.00  0.00    +0.000 C 
ATOM     15  C   UNL     1      46.525   4.091  14.981  0.00  0.00    +0.000 C 
ATOM     16  C   UNL     1      47.401   3.845  13.800  0.00  0.00    +0.000 C 
BRANCH  14  17
ATOM     17  N   UNL     1      46.770   6.388  13.972  0.00  0.00    +0.000 N 
ATOM     18  H   UNL     1      46.071   6.941  14.456  0.00  0.00    +0.000 HD
BRANCH  17  23
ATOM     19  C   UNL     1      49.590   7.744  11.914  0.00  0.00    +0.000 A 
ATOM     20  C   UNL     1      49.002   8.940  11.541  0.00  0.00    +0.000 A 
ATOM     21  N   UNL     1      47.766   9.311  11.920  0.00  0.00    +0.000 NA
ATOM     22  C   UNL     1      47.089   8.430  12.701  0.00  0.00    +0.000 A 
ATOM     23  C   UNL     1      47.562   7.177  13.110  0.00  0.00    +0.000 A 
ATOM     24  C   UNL     1      48.862   6.864  12.723  0.00  0.00    +0.000 A 
ENDBRANCH  17  23
ENDBRANCH  14  17
ENDBRANCH   1  14
TORSDOF 4
ENDMDL
MODEL 7
REMARK VINA RESULT:    -6.191      1.593      2.483
REMARK INTER + INTRA:          -8.431
REMARK INTER:                  -8.751
REMARK INTRA:                   0.320
REMARK UNBOUND:                -0.792
REMARK  Name = 
REMARK  4 active torsions:
REMARK  status: ('A' for Active; 'I' for Inactive)
REMARK    1  A    between atoms: C_5  and  N_6
REMARK    2  A    between atoms: N_6  and  C_7
REMARK    3  A    between atoms: C_7  and  C_8
REMARK    4  A    between atoms: C_12  and  N_13
REMARK                            x       y       z     vdW  Elec       q    Type
REMARK                         _______ _______ _______ _____ _____    ______ ____
ROOT
ATOM      1  C   UNL     1      45.037   6.095  11.126  0.00  0.00    +0.000 A 
ATOM      2  C   UNL     1      44.335   7.273  11.416  0.00  0.00    +0.000 A 
ATOM      3  C   UNL     1      44.973   8.369  11.991  0.00  0.00    +0.000 A 
ATOM      4  C   UNL     1      46.334   8.298  12.291  0.00  0.00    +0.000 A 
ATOM      5  C   UNL     1      47.095   7.160  11.999  0.00  0.00    +0.000 A 
ATOM      6  C   UNL     1      46.426   6.090  11.386  0.00  0.00    +0.000 A 
ENDROOT
BRANCH   5   7
ATOM      7  N   UNL     1      48.442   7.118  12.317  0.00  0.00    +0.000 N 
ATOM      8  C   UNL     1      48.927   6.971  13.697  0.00  0.00    +0.000 C 
ATOM      9  C   UNL     1      49.664   8.237  14.184  0.00  0.00    +0.000 C 
ATOM     10  N   UNL     1      50.741   8.675  13.270  0.00  0.00    +0.000 NA
ATOM     11  C   UNL     1      50.149   8.901  11.935  0.00  0.00    +0.000 C 
ATOM     12  C   UNL     1      49.419   7.666  11.357  0.00  0.00    +0.000 C 
ATOM     13  H   UNL     1      51.413   7.912  13.190  0.00  0.00    +0.000 HD
ENDBRANCH   5   7
BRANCH   1  14
ATOM     14  C   UNL     1      44.313   4.845  10.629  0.00  0.00    +0.000 C 
ATOM     15  C   UNL     1      44.361   3.600  11.515  0.00  0.00    +0.000 C 
ATOM     16  C   UNL     1      43.103   4.393  11.425  0.00  0.00    +0.000 C 
BRANCH  14  17
ATOM     17  N   UNL     1      44.469   4.568   9.190  0.00  0.00    +0.000 N 
ATOM     18  H   UNL     1      43.617   4.648   8.647  0.00  0.00    +0.000 HD
BRANCH  17  23
ATOM     19  C   UNL     1      47.133   2.938   7.121  0.00  0.00    +0.000 A 
ATOM     20  C   UNL     1      46.923   1.632   7.527  0.00  0.00    +0.000 A 
ATOM     21  N   UNL     1      45.981   1.272   8.415  0.00  0.00    +0.000 NA
ATOM     22  C   UNL     1      45.224   2.276   8.927  0.00  0.00    +0.000 A 
ATOM     23  C   UNL     1      45.367   3.637   8.626  0.00  0.00    +0.000 A 
ATOM     24  C   UNL     1      46.329   3.946   7.668  0.00  0.00    +0.000 A 
ENDBRANCH  17  23
ENDBRANCH  14  17
ENDBRANCH   1  14
TORSDOF 4
ENDMDL
MODEL 8
REMARK VINA RESULT:    -6.069      2.282      6.856
REMARK INTER + INTRA:          -8.280
REMARK INTER:                  -7.629
REMARK INTRA:                  -0.650
REMARK UNBOUND:                -0.792
REMARK  Name = 
REMARK  4 active torsions:
REMARK  status: ('A' for Active; 'I' for Inactive)
REMARK    1  A    between atoms: C_5  and  N_6
REMARK    2  A    between atoms: N_6  and  C_7
REMARK    3  A    between atoms: C_7  and  C_8
REMARK    4  A    between atoms: C_12  and  N_13
REMARK                            x       y       z     vdW  Elec       q    Type
REMARK                         _______ _______ _______ _____ _____    ______ ____
ROOT
ATOM      1  C   UNL     1      46.651   7.198  12.802  0.00  0.00    +0.000 A 
ATOM      2  C   UNL     1      46.196   8.498  12.543  0.00  0.00    +0.000 A 
ATOM      3  C   UNL     1      45.031   8.722  11.815  0.00  0.00    +0.000 A 
ATOM      4  C   UNL     1      44.302   7.638  11.326  0.00  0.00    +0.000 A 
ATOM      5  C   UNL     1      44.689   6.316  11.576  0.00  0.00    +0.000 A 
ATOM      6  C   UNL     1      45.848   6.129  12.345  0.00  0.00    +0.000 A 
ENDROOT
BRANCH   5   7
ATOM      7  N   UNL     1      43.947   5.262  11.070  0.00  0.00    +0.000 N 
ATOM      8  C   UNL     1      42.990   4.501  11.886  0.00  0.00    +0.000 C 
ATOM      9  C   UNL     1      43.447   3.041  12.094  0.00  0.00    +0.000 C 
ATOM     10  N   UNL     1      43.765   2.342  10.830  0.00  0.00    +0.000 NA
ATOM     11  C   UNL     1      44.807   3.116  10.124  0.00  0.00    +0.000 C 
ATOM     12  C   UNL     1      44.414   4.586   9.844  0.00  0.00    +0.000 C 
ATOM     13  H   UNL     1      42.925   2.346  10.250  0.00  0.00    +0.000 HD
ENDBRANCH   5   7
BRANCH   1  14
ATOM     14  C   UNL     1      48.000   6.950  13.476  0.00  0.00    +0.000 C 
ATOM     15  C   UNL     1      49.251   7.475  12.771  0.00  0.00    +0.000 C 
ATOM     16  C   UNL     1      48.743   8.171  13.988  0.00  0.00    +0.000 C 
BRANCH  14  17
ATOM     17  N   UNL     1      48.160   5.612  14.072  0.00  0.00    +0.000 N 
ATOM     18  H   UNL     1      47.953   4.841  13.448  0.00  0.00    +0.000 HD
BRANCH  17  23
ATOM     19  C   UNL     1      48.281   5.419  17.811  0.00  0.00    +0.000 A 
ATOM     20  C   UNL     1      47.396   4.368  17.981  0.00  0.00    +0.000 A 
ATOM     21  N   UNL     1      46.783   3.741  16.963  0.00  0.00    +0.000 NA
ATOM     22  C   UNL     1      47.066   4.201  15.717  0.00  0.00    +0.000 A 
ATOM     23  C   UNL     1      47.911   5.279  15.421  0.00  0.00    +0.000 A 
ATOM     24  C   UNL     1      48.551   5.863  16.511  0.00  0.00    +0.000 A 
ENDBRANCH  17  23
ENDBRANCH  14  17
ENDBRANCH   1  14
TORSDOF 4
ENDMDL
MODEL 9
REMARK VINA RESULT:    -5.803      2.294      7.382
REMARK INTER + INTRA:          -7.952
REMARK INTER:                  -7.072
REMARK INTRA:                  -0.880
REMARK UNBOUND:                -0.792
REMARK  Name = 
REMARK  4 active torsions:
REMARK  status: ('A' for Active; 'I' for Inactive)
REMARK    1  A    between atoms: C_5  and  N_6
REMARK    2  A    between atoms: N_6  and  C_7
REMARK    3  A    between atoms: C_7  and  C_8
REMARK    4  A    between atoms: C_12  and  N_13
REMARK                            x       y       z     vdW  Elec       q    Type
REMARK                         _______ _______ _______ _____ _____    ______ ____
ROOT
ATOM      1  C   UNL     1      48.004   7.855  12.474  0.00  0.00    +0.000 A 
ATOM      2  C   UNL     1      47.191   8.995  12.410  0.00  0.00    +0.000 A 
ATOM      3  C   UNL     1      45.819   8.890  12.198  0.00  0.00    +0.000 A 
ATOM      4  C   UNL     1      45.238   7.632  12.037  0.00  0.00    +0.000 A 
ATOM      5  C   UNL     1      45.992   6.455  12.120  0.00  0.00    +0.000 A 
ATOM      6  C   UNL     1      47.365   6.599  12.373  0.00  0.00    +0.000 A 
ENDROOT
BRANCH   5   7
ATOM      7  N   UNL     1      45.386   5.222  11.949  0.00  0.00    +0.000 N 
ATOM      8  C   UNL     1      45.063   4.674  10.623  0.00  0.00    +0.000 C 
ATOM      9  C   UNL     1      43.539   4.566  10.404  0.00  0.00    +0.000 C 
ATOM     10  N   UNL     1      42.842   3.833  11.484  0.00  0.00    +0.000 NA
ATOM     11  C   UNL     1      43.136   4.509  12.764  0.00  0.00    +0.000 C 
ATOM     12  C   UNL     1      44.646   4.629  13.079  0.00  0.00    +0.000 C 
ATOM     13  H   UNL     1      43.238   2.893  11.529  0.00  0.00    +0.000 HD
ENDBRANCH   5   7
BRANCH   1  14
ATOM     14  C   UNL     1      49.525   7.971  12.565  0.00  0.00    +0.000 C 
ATOM     15  C   UNL     1      50.336   7.649  11.310  0.00  0.00    +0.000 C 
ATOM     16  C   UNL     1      50.178   9.067  11.742  0.00  0.00    +0.000 C 
BRANCH  14  17
ATOM     17  N   UNL     1      50.114   7.453  13.813  0.00  0.00    +0.000 N 
ATOM     18  H   UNL     1      50.579   6.557  13.724  0.00  0.00    +0.000 HD
BRANCH  17  23
ATOM     19  C   UNL     1      48.991   8.976  17.046  0.00  0.00    +0.000 A 
ATOM     20  C   UNL     1      48.698   7.804  17.722  0.00  0.00    +0.000 A 
ATOM     21  N   UNL     1      48.847   6.580  17.187  0.00  0.00    +0.000 NA
ATOM     22  C   UNL     1      49.301   6.536  15.908  0.00  0.00    +0.000 A 
ATOM     23  C   UNL     1      49.593   7.650  15.110  0.00  0.00    +0.000 A 
ATOM     24  C   UNL     1      49.461   8.889  15.729  0.00  0.00    +0.000 A 
ENDBRANCH  17  23
ENDBRANCH  14  17
ENDBRANCH   1  14
TORSDOF 4
ENDMDL
