MODEL 1
REMARK VINA RESULT:    -8.779      0.000      0.000
REMARK INTER + INTRA:         -12.846
REMARK INTER:                 -11.602
REMARK INTRA:                  -1.243
REMARK UNBOUND:                -1.243
REMARK  Name = 
REMARK  6 active torsions:
REMARK  status: ('A' for Active; 'I' for Inactive)
REMARK    1  A    between atoms: N_1  and  C_2
REMARK    2  A    between atoms: C_4  and  N_5
REMARK    3  A    between atoms: N_5  and  C_6
REMARK    4  A    between atoms: C_6  and  C_7
REMARK    5  A    between atoms: C_11  and  C_12
REMARK    6  A    between atoms: C_21  and  C_22
REMARK                            x       y       z     vdW  Elec       q    Type
REMARK                         _______ _______ _______ _____ _____    ______ ____
ROOT
ATOM      1  N   UNL     1      43.670   4.844   9.941  0.00  0.00    +0.000 N 
ATOM      2  H   UNL     1      43.536   5.762   9.530  0.00  0.00    +0.000 HD
ENDROOT
BRANCH   1   5
ATOM      3  C   UNL     1      46.280   3.497   7.610  0.00  0.00    +0.000 A 
ATOM      4  C   UNL     1      45.394   4.391   8.246  0.00  0.00    +0.000 A 
ATOM      5  C   UNL     1      44.461   3.978   9.202  0.00  0.00    +0.000 A 
ATOM      6  C   UNL     1      44.412   2.615   9.505  0.00  0.00    +0.000 A 
ATOM      7  C   UNL     1      45.245   1.702   8.856  0.00  0.00    +0.000 A 
ATOM      8  C   UNL     1      46.182   2.129   7.896  0.00  0.00    +0.000 A 
BRANCH   8   9
ATOM      9  C   UNL     1      47.059   1.079   7.257  0.00  0.00    +0.000 C 
ATOM     10  F   UNL     1      46.933  -0.173   7.788  0.00  0.00    +0.000 F 
ATOM     11  F   UNL     1      46.790   0.931   5.927  0.00  0.00    +0.000 F 
ATOM     12  F   UNL     1      48.383   1.384   7.332  0.00  0.00    +0.000 F 
ENDBRANCH   8   9
BRANCH   3  13
ATOM     13  N   UNL     1      47.064   3.991   6.555  0.00  0.00    +0.000 N 
ATOM     14  H   UNL     1      46.880   4.959   6.311  0.00  0.00    +0.000 HD
ATOM     15  H   UNL     1      48.061   3.792   6.618  0.00  0.00    +0.000 HD
ENDBRANCH   3  13
ENDBRANCH   1   5
BRANCH   1  16
ATOM     16  C   UNL     1      43.563   4.818  11.390  0.00  0.00    +0.000 C 
BRANCH  16  17
ATOM     17  C   UNL     1      44.870   5.019  12.126  0.00  0.00    +0.000 A 
ATOM     18  C   UNL     1      45.472   4.043  12.927  0.00  0.00    +0.000 A 
ATOM     19  C   UNL     1      46.689   4.297  13.553  0.00  0.00    +0.000 A 
ATOM     20  C   UNL     1      47.331   5.524  13.371  0.00  0.00    +0.000 A 
ATOM     21  C   UNL     1      46.783   6.521  12.547  0.00  0.00    +0.000 A 
ATOM     22  C   UNL     1      45.532   6.254  11.962  0.00  0.00    +0.000 A 
BRANCH  21  23
ATOM     23  C   UNL     1      47.533   7.758  12.227  0.00  0.00    +0.000 A 
ATOM     24  C   UNL     1      48.876   7.690  11.806  0.00  0.00    +0.000 A 
ATOM     25  C   UNL     1      49.584   8.830  11.422  0.00  0.00    +0.000 A 
ATOM     26  C   UNL     1      48.964  10.073  11.444  0.00  0.00    +0.000 A 
ATOM     27  C   UNL     1      47.640  10.176  11.866  0.00  0.00    +0.000 A 
ATOM     28  C   UNL     1      46.936   9.032  12.262  0.00  0.00    +0.000 A 
ENDBRANCH  21  23
ENDBRANCH  16  17
ENDBRANCH   1  16
TORSDOF 6
ENDMDL
MODEL 2
REMARK VINA RESULT:    -8.476      1.689      3.501
REMARK INTER + INTRA:         -12.444
REMARK INTER:                 -11.388
REMARK INTRA:                  -1.056
REMARK UNBOUND:                -1.243
REMARK  Name = 
REMARK  6 active torsions:
REMARK  status: ('A' for Active; 'I' for Inactive)
REMARK    1  A    between atoms: N_1  and  C_2
REMARK    2  A    between atoms: C_4  and  N_5
REMARK    3  A    between atoms: N_5  and  C_6
REMARK    4  A    between atoms: C_6  and  C_7
REMARK    5  A    between atoms: C_11  and  C_12
REMARK    6  A    between atoms: C_21  and  C_22
REMARK                            x       y       z     vdW  Elec       q    Type
REMARK                         _______ _______ _______ _____ _____    ______ ____
ROOT
ATOM      1  N   UNL     1      43.761   4.804  10.186  0.00  0.00    +0.000 N 
ATOM      2  H   UNL     1      43.425   5.647   9.732  0.00  0.00    +0.000 HD
ENDROOT
BRANCH   1   5
ATOM      3  C   UNL     1      46.295   3.543   7.727  0.00  0.00    +0.000 A 
ATOM      4  C   UNL     1      45.440   4.415   8.430  0.00  0.00    +0.000 A 
ATOM      5  C   UNL     1      44.520   3.966   9.383  0.00  0.00    +0.000 A 
ATOM      6  C   UNL     1      44.452   2.590   9.612  0.00  0.00    +0.000 A 
ATOM      7  C   UNL     1      45.255   1.700   8.896  0.00  0.00    +0.000 A 
ATOM      8  C   UNL     1      46.178   2.163   7.940  0.00  0.00    +0.000 A 
BRANCH   8   9
ATOM      9  C   UNL     1      47.022   1.135   7.225  0.00  0.00    +0.000 C 
ATOM     10  F   UNL     1      48.369   1.348   7.298  0.00  0.00    +0.000 F 
ATOM     11  F   UNL     1      46.833  -0.119   7.729  0.00  0.00    +0.000 F 
ATOM     12  F   UNL     1      46.730   1.044   5.899  0.00  0.00    +0.000 F 
ENDBRANCH   8   9
BRANCH   3  13
ATOM     13  N   UNL     1      47.066   4.081   6.683  0.00  0.00    +0.000 N 
ATOM     14  H   UNL     1      48.014   3.723   6.632  0.00  0.00    +0.000 HD
ATOM     15  H   UNL     1      46.613   4.106   5.771  0.00  0.00    +0.000 HD
ENDBRANCH   3  13
ENDBRANCH   1   5
BRANCH   1  16
ATOM     16  C   UNL     1      43.924   4.926  11.624  0.00  0.00    +0.000 C 
BRANCH  16  17
ATOM     17  C   UNL     1      45.271   5.456  12.068  0.00  0.00    +0.000 A 
ATOM     18  C   UNL     1      45.989   6.436  11.376  0.00  0.00    +0.000 A 
ATOM     19  C   UNL     1      47.213   6.890  11.862  0.00  0.00    +0.000 A 
ATOM     20  C   UNL     1      47.724   6.383  13.058  0.00  0.00    +0.000 A 
ATOM     21  C   UNL     1      47.022   5.425  13.807  0.00  0.00    +0.000 A 
ATOM     22  C   UNL     1      45.810   4.953  13.270  0.00  0.00    +0.000 A 
BRANCH  21  23
ATOM     23  C   UNL     1      47.484   5.002  15.150  0.00  0.00    +0.000 A 
ATOM     24  C   UNL     1      48.394   5.796  15.874  0.00  0.00    +0.000 A 
ATOM     25  C   UNL     1      48.788   5.466  17.172  0.00  0.00    +0.000 A 
ATOM     26  C   UNL     1      48.274   4.330  17.785  0.00  0.00    +0.000 A 
ATOM     27  C   UNL     1      47.381   3.516  17.091  0.00  0.00    +0.000 A 
ATOM     28  C   UNL     1      46.997   3.845  15.785  0.00  0.00    +0.000 A 
ENDBRANCH  21  23
ENDBRANCH  16  17
ENDBRANCH   1  16
TORSDOF 6
ENDMDL
MODEL 3
REMARK VINA RESULT:    -7.877      1.180      1.862
REMARK INTER + INTRA:         -11.653
REMARK INTER:                 -10.624
REMARK INTRA:                  -1.029
REMARK UNBOUND:                -1.243
REMARK  Name = 
REMARK  6 active torsions:
REMARK  status: ('A' for Active; 'I' for Inactive)
REMARK    1  A    between atoms: N_1  and  C_2
REMARK    2  A    between atoms: C_4  and  N_5
REMARK    3  A    between atoms: N_5  and  C_6
REMARK    4  A    between atoms: C_6  and  C_7
REMARK    5  A    between atoms: C_11  and  C_12
REMARK    6  A    between atoms: C_21  and  C_22
REMARK                            x       y       z     vdW  Elec       q    Type
REMARK                         _______ _______ _______ _____ _____    ______ ____
ROOT
ATOM      1  N   UNL     1      43.611   3.537  10.666  0.00  0.00    +0.000 N 
ATOM      2  H   UNL     1      42.697   3.119  10.524  0.00  0.00    +0.000 HD
ENDROOT
BRANCH   1   5
ATOM      3  C   UNL     1      45.833   1.767   8.219  0.00  0.00    +0.000 A 
ATOM      4  C   UNL     1      44.998   2.008   9.329  0.00  0.00    +0.000 A 
ATOM      5  C   UNL     1      44.536   3.284   9.665  0.00  0.00    +0.000 A 
ATOM      6  C   UNL     1      44.952   4.349   8.862  0.00  0.00    +0.000 A 
ATOM      7  C   UNL     1      45.815   4.145   7.784  0.00  0.00    +0.000 A 
ATOM      8  C   UNL     1      46.273   2.856   7.455  0.00  0.00    +0.000 A 
BRANCH   8   9
ATOM      9  C   UNL     1      47.188   2.721   6.261  0.00  0.00    +0.000 C 
ATOM     10  F   UNL     1      46.979   1.604   5.503  0.00  0.00    +0.000 F 
ATOM     11  F   UNL     1      47.054   3.768   5.396  0.00  0.00    +0.000 F 
ATOM     12  F   UNL     1      48.503   2.697   6.607  0.00  0.00    +0.000 F 
ENDBRANCH   8   9
BRANCH   3  13
ATOM     13  N   UNL     1      46.365   0.476   8.067  0.00  0.00    +0.000 N 
ATOM     14  H   UNL     1      45.923  -0.232   8.644  0.00  0.00    +0.000 HD
ATOM     15  H   UNL     1      46.494   0.165   7.105  0.00  0.00    +0.000 HD
ENDBRANCH   3  13
ENDBRANCH   1   5
BRANCH   1  16
ATOM     16  C   UNL     1      43.595   4.741  11.480  0.00  0.00    +0.000 C 
BRANCH  16  17
ATOM     17  C   UNL     1      44.885   5.022  12.221  0.00  0.00    +0.000 A 
ATOM     18  C   UNL     1      45.490   4.120  13.102  0.00  0.00    +0.000 A 
ATOM     19  C   UNL     1      46.692   4.444  13.728  0.00  0.00    +0.000 A 
ATOM     20  C   UNL     1      47.314   5.665  13.465  0.00  0.00    +0.000 A 
ATOM     21  C   UNL     1      46.764   6.587  12.558  0.00  0.00    +0.000 A 
ATOM     22  C   UNL     1      45.528   6.253  11.974  0.00  0.00    +0.000 A 
BRANCH  21  23
ATOM     23  C   UNL     1      47.497   7.811  12.159  0.00  0.00    +0.000 A 
ATOM     24  C   UNL     1      46.862   9.068  12.199  0.00  0.00    +0.000 A 
ATOM     25  C   UNL     1      47.547  10.247  11.905  0.00  0.00    +0.000 A 
ATOM     26  C   UNL     1      48.895  10.202  11.568  0.00  0.00    +0.000 A 
ATOM     27  C   UNL     1      49.549   8.974  11.508  0.00  0.00    +0.000 A 
ATOM     28  C   UNL     1      48.855   7.790  11.792  0.00  0.00    +0.000 A 
ENDBRANCH  21  23
ENDBRANCH  16  17
ENDBRANCH   1  16
TORSDOF 6
ENDMDL
MODEL 4
REMARK VINA RESULT:    -7.737      3.859      7.234
REMARK INTER + INTRA:         -11.468
REMARK INTER:                 -10.456
REMARK INTRA:                  -1.012
REMARK UNBOUND:                -1.243
REMARK  Name = 
REMARK  6 active torsions:
REMARK  status: ('A' for Active; 'I' for Inactive)
REMARK    1  A    between atoms: N_1  and  C_2
REMARK    2  A    between atoms: C_4  and  N_5
REMARK    3  A    between atoms: N_5  and  C_6
REMARK    4  A    between atoms: C_6  and  C_7
REMARK    5  A    between atoms: C_11  and  C_12
REMARK    6  A    between atoms: C_21  and  C_22
REMARK                            x       y       z     vdW  Elec       q    Type
REMARK                         _______ _______ _______ _____ _____    ______ ____
ROOT
ATOM      1  N   UNL     1      44.529   7.003  12.483  0.00  0.00    +0.000 N 
ATOM      2  H   UNL     1      44.480   6.486  13.355  0.00  0.00    +0.000 HD
ENDROOT
BRANCH   1   5
ATOM      3  C   UNL     1      47.184   9.650  12.412  0.00  0.00    +0.000 A 
ATOM      4  C   UNL     1      45.922   9.030  12.519  0.00  0.00    +0.000 A 
ATOM      5  C   UNL     1      45.723   7.670  12.260  0.00  0.00    +0.000 A 
ATOM      6  C   UNL     1      46.835   6.923  11.862  0.00  0.00    +0.000 A 
ATOM      7  C   UNL     1      48.087   7.521  11.704  0.00  0.00    +0.000 A 
ATOM      8  C   UNL     1      48.275   8.891  11.968  0.00  0.00    +0.000 A 
BRANCH   8   9
ATOM      9  C   UNL     1      49.665   9.454  11.792  0.00  0.00    +0.000 C 
ATOM     10  F   UNL     1      50.187  10.048  12.905  0.00  0.00    +0.000 F 
ATOM     11  F   UNL     1      50.566   8.488  11.448  0.00  0.00    +0.000 F 
ATOM     12  F   UNL     1      49.733  10.386  10.804  0.00  0.00    +0.000 F 
ENDBRANCH   8   9
BRANCH   3  13
ATOM     13  N   UNL     1      47.241  11.047  12.540  0.00  0.00    +0.000 N 
ATOM     14  H   UNL     1      46.509  11.447  13.119  0.00  0.00    +0.000 HD
ATOM     15  H   UNL     1      48.159  11.431  12.758  0.00  0.00    +0.000 HD
ENDBRANCH   3  13
ENDBRANCH   1   5
BRANCH   1  16
ATOM     16  C   UNL     1      43.677   6.477  11.430  0.00  0.00    +0.000 C 
BRANCH  16  17
ATOM     17  C   UNL     1      43.811   4.989  11.190  0.00  0.00    +0.000 A 
ATOM     18  C   UNL     1      43.128   4.015  11.927  0.00  0.00    +0.000 A 
ATOM     19  C   UNL     1      43.287   2.665  11.628  0.00  0.00    +0.000 A 
ATOM     20  C   UNL     1      44.115   2.270  10.575  0.00  0.00    +0.000 A 
ATOM     21  C   UNL     1      44.791   3.213   9.783  0.00  0.00    +0.000 A 
ATOM     22  C   UNL     1      44.647   4.568  10.135  0.00  0.00    +0.000 A 
BRANCH  21  23
ATOM     23  C   UNL     1      45.543   2.808   8.572  0.00  0.00    +0.000 A 
ATOM     24  C   UNL     1      45.860   3.756   7.580  0.00  0.00    +0.000 A 
ATOM     25  C   UNL     1      46.635   3.425   6.467  0.00  0.00    +0.000 A 
ATOM     26  C   UNL     1      47.121   2.131   6.321  0.00  0.00    +0.000 A 
ATOM     27  C   UNL     1      46.815   1.167   7.278  0.00  0.00    +0.000 A 
ATOM     28  C   UNL     1      46.028   1.500   8.388  0.00  0.00    +0.000 A 
ENDBRANCH  21  23
ENDBRANCH  16  17
ENDBRANCH   1  16
TORSDOF 6
ENDMDL
MODEL 5
REMARK VINA RESULT:    -7.460      4.548      7.625
REMARK INTER + INTRA:         -11.102
REMARK INTER:                 -10.224
REMARK INTRA:                  -0.877
REMARK UNBOUND:                -1.243
REMARK  Name = 
REMARK  6 active torsions:
REMARK  status: ('A' for Active; 'I' for Inactive)
REMARK    1  A    between atoms: N_1  and  C_2
REMARK    2  A    between atoms: C_4  and  N_5
REMARK    3  A    between atoms: N_5  and  C_6
REMARK    4  A    between atoms: C_6  and  C_7
REMARK    5  A    between atoms: C_11  and  C_12
REMARK    6  A    between atoms: C_21  and  C_22
REMARK                            x       y       z     vdW  Elec       q    Type
REMARK                         _______ _______ _______ _____ _____    ______ ____
ROOT
ATOM      1  N   UNL     1      47.418   6.713  12.464  0.00  0.00    +0.000 N 
ATOM      2  H   UNL     1      48.225   7.230  12.128  0.00  0.00    +0.000 HD
ENDROOT
BRANCH   1   5
ATOM      3  C   UNL     1      48.446   5.910  15.979  0.00  0.00    +0.000 A 
ATOM      4  C   UNL     1      48.387   6.537  14.718  0.00  0.00    +0.000 A 
ATOM      5  C   UNL     1      47.603   6.050  13.667  0.00  0.00    +0.000 A 
ATOM      6  C   UNL     1      46.875   4.880  13.898  0.00  0.00    +0.000 A 
ATOM      7  C   UNL     1      46.951   4.213  15.122  0.00  0.00    +0.000 A 
ATOM      8  C   UNL     1      47.743   4.713  16.172  0.00  0.00    +0.000 A 
BRANCH   8   9
ATOM      9  C   UNL     1      47.753   3.941  17.470  0.00  0.00    +0.000 C 
ATOM     10  F   UNL     1      48.967   3.426  17.821  0.00  0.00    +0.000 F 
ATOM     11  F   UNL     1      47.377   4.718  18.528  0.00  0.00    +0.000 F 
ATOM     12  F   UNL     1      46.889   2.890  17.463  0.00  0.00    +0.000 F 
ENDBRANCH   8   9
BRANCH   3  13
ATOM     13  N   UNL     1      49.383   6.391  16.907  0.00  0.00    +0.000 N 
ATOM     14  H   UNL     1      50.347   6.352  16.592  0.00  0.00    +0.000 HD
ATOM     15  H   UNL     1      49.154   7.285  17.340  0.00  0.00    +0.000 HD
ENDBRANCH   3  13
ENDBRANCH   1   5
BRANCH   1  16
ATOM     16  C   UNL     1      46.143   7.237  12.006  0.00  0.00    +0.000 C 
BRANCH  16  17
ATOM     17  C   UNL     1      45.225   6.212  11.376  0.00  0.00    +0.000 A 
ATOM     18  C   UNL     1      43.845   6.160  11.597  0.00  0.00    +0.000 A 
ATOM     19  C   UNL     1      43.064   5.200  10.960  0.00  0.00    +0.000 A 
ATOM     20  C   UNL     1      43.650   4.290  10.079  0.00  0.00    +0.000 A 
ATOM     21  C   UNL     1      45.025   4.326   9.796  0.00  0.00    +0.000 A 
ATOM     22  C   UNL     1      45.797   5.279  10.487  0.00  0.00    +0.000 A 
BRANCH  21  23
ATOM     23  C   UNL     1      45.622   3.467   8.746  0.00  0.00    +0.000 A 
ATOM     24  C   UNL     1      46.241   4.044   7.620  0.00  0.00    +0.000 A 
ATOM     25  C   UNL     1      46.881   3.266   6.654  0.00  0.00    +0.000 A 
ATOM     26  C   UNL     1      46.926   1.884   6.795  0.00  0.00    +0.000 A 
ATOM     27  C   UNL     1      46.314   1.282   7.891  0.00  0.00    +0.000 A 
ATOM     28  C   UNL     1      45.662   2.065   8.853  0.00  0.00    +0.000 A 
ENDBRANCH  21  23
ENDBRANCH  16  17
ENDBRANCH   1  16
TORSDOF 6
ENDMDL
MODEL 6
REMARK VINA RESULT:    -7.444      1.152      2.212
REMARK INTER + INTRA:         -11.081
REMARK INTER:                 -10.079
REMARK INTRA:                  -1.002
REMARK UNBOUND:                -1.243
REMARK  Name = 
REMARK  6 active torsions:
REMARK  status: ('A' for Active; 'I' for Inactive)
REMARK    1  A    between atoms: N_1  and  C_2
REMARK    2  A    between atoms: C_4  and  N_5
REMARK    3  A    between atoms: N_5  and  C_6
REMARK    4  A    between atoms: C_6  and  C_7
REMARK    5  A    between atoms: C_11  and  C_12
REMARK    6  A    between atoms: C_21  and  C_22
REMARK                            x       y       z     vdW  Elec       q    Type
REMARK                         _______ _______ _______ _____ _____    ______ ____
ROOT
ATOM      1  N   UNL     1      43.893   4.903  10.376  0.00  0.00    +0.000 N 
ATOM      2  H   UNL     1      43.286   5.569   9.908  0.00  0.00    +0.000 HD
ENDROOT
BRANCH   1   5
ATOM      3  C   UNL     1      46.331   3.607   7.839  0.00  0.00    +0.000 A 
ATOM      4  C   UNL     1      45.529   4.495   8.585  0.00  0.00    +0.000 A 
ATOM      5  C   UNL     1      44.599   4.058   9.533  0.00  0.00    +0.000 A 
ATOM      6  C   UNL     1      44.465   2.679   9.714  0.00  0.00    +0.000 A 
ATOM      7  C   UNL     1      45.214   1.777   8.957  0.00  0.00    +0.000 A 
ATOM      8  C   UNL     1      46.148   2.228   8.005  0.00  0.00    +0.000 A 
BRANCH   8   9
ATOM      9  C   UNL     1      46.931   1.186   7.243  0.00  0.00    +0.000 C 
ATOM     10  F   UNL     1      48.287   1.287   7.363  0.00  0.00    +0.000 F 
ATOM     11  F   UNL     1      46.631  -0.080   7.656  0.00  0.00    +0.000 F 
ATOM     12  F   UNL     1      46.672   1.206   5.907  0.00  0.00    +0.000 F 
ENDBRANCH   8   9
BRANCH   3  13
ATOM     13  N   UNL     1      47.115   4.143   6.805  0.00  0.00    +0.000 N 
ATOM     14  H   UNL     1      47.971   4.592   7.114  0.00  0.00    +0.000 HD
ATOM     15  H   UNL     1      47.268   3.530   6.006  0.00  0.00    +0.000 HD
ENDBRANCH   3  13
ENDBRANCH   1   5
BRANCH   1  16
ATOM     16  C   UNL     1      44.364   5.338  11.679  0.00  0.00    +0.000 C 
BRANCH  16  17
ATOM     17  C   UNL     1      44.992   6.715  11.699  0.00  0.00    +0.000 A 
ATOM     18  C   UNL     1      44.269   7.904  11.559  0.00  0.00    +0.000 A 
ATOM     19  C   UNL     1      44.918   9.135  11.612  0.00  0.00    +0.000 A 
ATOM     20  C   UNL     1      46.296   9.194  11.827  0.00  0.00    +0.000 A 
ATOM     21  C   UNL     1      47.058   8.029  12.011  0.00  0.00    +0.000 A 
ATOM     22  C   UNL     1      46.384   6.798  11.908  0.00  0.00    +0.000 A 
BRANCH  21  23
ATOM     23  C   UNL     1      48.489   8.093  12.393  0.00  0.00    +0.000 A 
ATOM     24  C   UNL     1      49.495   7.939  11.419  0.00  0.00    +0.000 A 
ATOM     25  C   UNL     1      50.848   8.072  11.733  0.00  0.00    +0.000 A 
ATOM     26  C   UNL     1      51.232   8.371  13.035  0.00  0.00    +0.000 A 
ATOM     27  C   UNL     1      50.263   8.517  14.024  0.00  0.00    +0.000 A 
ATOM     28  C   UNL     1      48.906   8.372  13.708  0.00  0.00    +0.000 A 
ENDBRANCH  21  23
ENDBRANCH  16  17
ENDBRANCH   1  16
TORSDOF 6
ENDMDL
MODEL 7
REMARK VINA RESULT:    -7.430      2.297      4.033
REMARK INTER + INTRA:         -11.063
REMARK INTER:                 -10.333
REMARK INTRA:                  -0.730
REMARK UNBOUND:                -1.243
REMARK  Name = 
REMARK  6 active torsions:
REMARK  status: ('A' for Active; 'I' for Inactive)
REMARK    1  A    between atoms: N_1  and  C_2
REMARK    2  A    between atoms: C_4  and  N_5
REMARK    3  A    between atoms: N_5  and  C_6
REMARK    4  A    between atoms: C_6  and  C_7
REMARK    5  A    between atoms: C_11  and  C_12
REMARK    6  A    between atoms: C_21  and  C_22
REMARK                            x       y       z     vdW  Elec       q    Type
REMARK                         _______ _______ _______ _____ _____    ______ ____
ROOT
ATOM      1  N   UNL     1      43.840   3.680  10.795  0.00  0.00    +0.000 N 
ATOM      2  H   UNL     1      43.162   4.412  10.607  0.00  0.00    +0.000 HD
ENDROOT
BRANCH   1   5
ATOM      3  C   UNL     1      45.859   1.824   8.238  0.00  0.00    +0.000 A 
ATOM      4  C   UNL     1      45.095   2.098   9.391  0.00  0.00    +0.000 A 
ATOM      5  C   UNL     1      44.699   3.391   9.747  0.00  0.00    +0.000 A 
ATOM      6  C   UNL     1      45.110   4.438   8.917  0.00  0.00    +0.000 A 
ATOM      7  C   UNL     1      45.905   4.200   7.795  0.00  0.00    +0.000 A 
ATOM      8  C   UNL     1      46.297   2.894   7.447  0.00  0.00    +0.000 A 
BRANCH   8   9
ATOM      9  C   UNL     1      47.139   2.723   6.206  0.00  0.00    +0.000 C 
ATOM     10  F   UNL     1      46.827   1.632   5.447  0.00  0.00    +0.000 F 
ATOM     11  F   UNL     1      47.025   3.788   5.361  0.00  0.00    +0.000 F 
ATOM     12  F   UNL     1      48.467   2.616   6.483  0.00  0.00    +0.000 F 
ENDBRANCH   8   9
BRANCH   3  13
ATOM     13  N   UNL     1      46.333   0.514   8.062  0.00  0.00    +0.000 N 
ATOM     14  H   UNL     1      47.296   0.372   8.350  0.00  0.00    +0.000 HD
ATOM     15  H   UNL     1      45.717  -0.225   8.397  0.00  0.00    +0.000 HD
ENDBRANCH   3  13
ENDBRANCH   1   5
BRANCH   1  16
ATOM     16  C   UNL     1      44.183   3.532  12.198  0.00  0.00    +0.000 C 
BRANCH  16  17
ATOM     17  C   UNL     1      45.308   4.427  12.674  0.00  0.00    +0.000 A 
ATOM     18  C   UNL     1      45.648   5.640  12.068  0.00  0.00    +0.000 A 
ATOM     19  C   UNL     1      46.682   6.419  12.581  0.00  0.00    +0.000 A 
ATOM     20  C   UNL     1      47.376   6.005  13.719  0.00  0.00    +0.000 A 
ATOM     21  C   UNL     1      47.045   4.813  14.384  0.00  0.00    +0.000 A 
ATOM     22  C   UNL     1      46.026   4.024  13.819  0.00  0.00    +0.000 A 
BRANCH  21  23
ATOM     23  C   UNL     1      47.672   4.448  15.677  0.00  0.00    +0.000 A 
ATOM     24  C   UNL     1      47.817   3.096  16.043  0.00  0.00    +0.000 A 
ATOM     25  C   UNL     1      48.473   2.718  17.215  0.00  0.00    +0.000 A 
ATOM     26  C   UNL     1      49.010   3.688  18.053  0.00  0.00    +0.000 A 
ATOM     27  C   UNL     1      48.874   5.035  17.726  0.00  0.00    +0.000 A 
ATOM     28  C   UNL     1      48.205   5.411  16.554  0.00  0.00    +0.000 A 
ENDBRANCH  21  23
ENDBRANCH  16  17
ENDBRANCH   1  16
TORSDOF 6
ENDMDL
MODEL 8
REMARK VINA RESULT:    -7.262      4.731      7.936
REMARK INTER + INTRA:         -10.841
REMARK INTER:                  -9.939
REMARK INTRA:                  -0.901
REMARK UNBOUND:                -1.243
REMARK  Name = 
REMARK  6 active torsions:
REMARK  status: ('A' for Active; 'I' for Inactive)
REMARK    1  A    between atoms: N_1  and  C_2
REMARK    2  A    between atoms: C_4  and  N_5
REMARK    3  A    between atoms: N_5  and  C_6
REMARK    4  A    between atoms: C_6  and  C_7
REMARK    5  A    between atoms: C_11  and  C_12
REMARK    6  A    between atoms: C_21  and  C_22
REMARK                            x       y       z     vdW  Elec       q    Type
REMARK                         _______ _______ _______ _____ _____    ______ ____
ROOT
ATOM      1  N   UNL     1      46.832   6.215  12.695  0.00  0.00    +0.000 N 
ATOM      2  H   UNL     1      47.439   6.823  12.154  0.00  0.00    +0.000 HD
ENDROOT
BRANCH   1   5
ATOM      3  C   UNL     1      47.471   4.431  15.930  0.00  0.00    +0.000 A 
ATOM      4  C   UNL     1      46.891   4.784  14.695  0.00  0.00    +0.000 A 
ATOM      5  C   UNL     1      47.285   5.914  13.970  0.00  0.00    +0.000 A 
ATOM      6  C   UNL     1      48.282   6.718  14.527  0.00  0.00    +0.000 A 
ATOM      7  C   UNL     1      48.842   6.417  15.770  0.00  0.00    +0.000 A 
ATOM      8  C   UNL     1      48.437   5.277  16.490  0.00  0.00    +0.000 A 
BRANCH   8   9
ATOM      9  C   UNL     1      49.107   5.014  17.818  0.00  0.00    +0.000 C 
ATOM     10  F   UNL     1      48.307   5.192  18.909  0.00  0.00    +0.000 F 
ATOM     11  F   UNL     1      49.559   3.730  17.914  0.00  0.00    +0.000 F 
ATOM     12  F   UNL     1      50.198   5.802  18.022  0.00  0.00    +0.000 F 
ENDBRANCH   8   9
BRANCH   3  13
ATOM     13  N   UNL     1      46.893   3.371  16.646  0.00  0.00    +0.000 N 
ATOM     14  H   UNL     1      47.547   2.647  16.929  0.00  0.00    +0.000 HD
ATOM     15  H   UNL     1      46.266   3.641  17.403  0.00  0.00    +0.000 HD
ENDBRANCH   3  13
ENDBRANCH   1   5
BRANCH   1  16
ATOM     16  C   UNL     1      45.430   6.290  12.322  0.00  0.00    +0.000 C 
BRANCH  16  17
ATOM     17  C   UNL     1      44.868   5.023  11.712  0.00  0.00    +0.000 A 
ATOM     18  C   UNL     1      43.715   4.381  12.174  0.00  0.00    +0.000 A 
ATOM     19  C   UNL     1      43.247   3.231  11.543  0.00  0.00    +0.000 A 
ATOM     20  C   UNL     1      43.916   2.719  10.430  0.00  0.00    +0.000 A 
ATOM     21  C   UNL     1      45.057   3.350   9.907  0.00  0.00    +0.000 A 
ATOM     22  C   UNL     1      45.532   4.485  10.590  0.00  0.00    +0.000 A 
BRANCH  21  23
ATOM     23  C   UNL     1      45.676   2.901   8.638  0.00  0.00    +0.000 A 
ATOM     24  C   UNL     1      45.953   3.827   7.613  0.00  0.00    +0.000 A 
ATOM     25  C   UNL     1      46.606   3.450   6.439  0.00  0.00    +0.000 A 
ATOM     26  C   UNL     1      47.009   2.132   6.261  0.00  0.00    +0.000 A 
ATOM     27  C   UNL     1      46.740   1.190   7.251  0.00  0.00    +0.000 A 
ATOM     28  C   UNL     1      46.073   1.569   8.423  0.00  0.00    +0.000 A 
ENDBRANCH  21  23
ENDBRANCH  16  17
ENDBRANCH   1  16
TORSDOF 6
ENDMDL
MODEL 9
REMARK VINA RESULT:    -7.193      4.373      7.642
REMARK INTER + INTRA:         -10.749
REMARK INTER:                  -9.762
REMARK INTRA:                  -0.988
REMARK UNBOUND:                -1.243
REMARK  Name = 
REMARK  6 active torsions:
REMARK  status: ('A' for Active; 'I' for Inactive)
REMARK    1  A    between atoms: N_1  and  C_2
REMARK    2  A    between atoms: C_4  and  N_5
REMARK    3  A    between atoms: N_5  and  C_6
REMARK    4  A    between atoms: C_6  and  C_7
REMARK    5  A    between atoms: C_11  and  C_12
REMARK    6  A    between atoms: C_21  and  C_22
REMARK                            x       y       z     vdW  Elec       q    Type
REMARK                         _______ _______ _______ _____ _____    ______ ____
ROOT
ATOM      1  N   UNL     1      45.645   7.094  11.402  0.00  0.00    +0.000 N 
ATOM      2  H   UNL     1      45.685   7.766  10.642  0.00  0.00    +0.000 HD
ENDROOT
BRANCH   1   5
ATOM      3  C   UNL     1      47.746   8.637  14.098  0.00  0.00    +0.000 A 
ATOM      4  C   UNL     1      46.877   8.507  12.995  0.00  0.00    +0.000 A 
ATOM      5  C   UNL     1      46.593   7.275  12.397  0.00  0.00    +0.000 A 
ATOM      6  C   UNL     1      47.226   6.145  12.922  0.00  0.00    +0.000 A 
ATOM      7  C   UNL     1      48.126   6.251  13.984  0.00  0.00    +0.000 A 
ATOM      8  C   UNL     1      48.404   7.497  14.578  0.00  0.00    +0.000 A 
BRANCH   8   9
ATOM      9  C   UNL     1      49.374   7.520  15.735  0.00  0.00    +0.000 C 
ATOM     10  F   UNL     1      50.469   8.314  15.549  0.00  0.00    +0.000 F 
ATOM     11  F   UNL     1      48.790   7.981  16.880  0.00  0.00    +0.000 F 
ATOM     12  F   UNL     1      49.856   6.285  16.042  0.00  0.00    +0.000 F 
ENDBRANCH   8   9
BRANCH   3  13
ATOM     13  N   UNL     1      48.083   9.933  14.518  0.00  0.00    +0.000 N 
ATOM     14  H   UNL     1      48.137  10.618  13.770  0.00  0.00    +0.000 HD
ATOM     15  H   UNL     1      47.566  10.283  15.323  0.00  0.00    +0.000 HD
ENDBRANCH   3  13
ENDBRANCH   1   5
BRANCH   1  16
ATOM     16  C   UNL     1      44.329   6.520  11.621  0.00  0.00    +0.000 C 
BRANCH  16  17
ATOM     17  C   UNL     1      44.209   5.055  11.261  0.00  0.00    +0.000 A 
ATOM     18  C   UNL     1      43.337   4.164  11.897  0.00  0.00    +0.000 A 
ATOM     19  C   UNL     1      43.267   2.834  11.490  0.00  0.00    +0.000 A 
ATOM     20  C   UNL     1      44.053   2.381  10.430  0.00  0.00    +0.000 A 
ATOM     21  C   UNL     1      44.916   3.247   9.736  0.00  0.00    +0.000 A 
ATOM     22  C   UNL     1      44.999   4.574  10.196  0.00  0.00    +0.000 A 
BRANCH  21  23
ATOM     23  C   UNL     1      45.633   2.810   8.515  0.00  0.00    +0.000 A 
ATOM     24  C   UNL     1      45.884   3.721   7.471  0.00  0.00    +0.000 A 
ATOM     25  C   UNL     1      46.624   3.362   6.344  0.00  0.00    +0.000 A 
ATOM     26  C   UNL     1      47.141   2.077   6.234  0.00  0.00    +0.000 A 
ATOM     27  C   UNL     1      46.901   1.148   7.244  0.00  0.00    +0.000 A 
ATOM     28  C   UNL     1      46.147   1.508   8.368  0.00  0.00    +0.000 A 
ENDBRANCH  21  23
ENDBRANCH  16  17
ENDBRANCH   1  16
TORSDOF 6
ENDMDL
