MODEL 1
REMARK VINA RESULT:    -8.665      0.000      0.000
REMARK INTER + INTRA:         -11.657
REMARK INTER:                 -11.198
REMARK INTRA:                  -0.459
REMARK UNBOUND:                -0.459
REMARK  Name = 
REMARK  6 active torsions:
REMARK  status: ('A' for Active; 'I' for Inactive)
REMARK    1  A    between atoms: C_1  and  C_2
REMARK    2  A    between atoms: C_2  and  N_3
REMARK    3  A    between atoms: C_2  and  C_16
REMARK    4  A    between atoms: C_4  and  C_6
REMARK    5  A    between atoms: C_19  and  O_20
REMARK    6  A    between atoms: O_20  and  C_21
REMARK                            x       y       z     vdW  Elec       q    Type
REMARK                         _______ _______ _______ _____ _____    ______ ____
ROOT
ATOM      1  C   UNL     1      42.875   5.045  13.399  0.00  0.00    +0.000 C 
ATOM      2  C   UNL     1      44.225   4.431  13.024  0.00  0.00    +0.000 C 
ENDROOT
BRANCH   2   3
ATOM      3  C   UNL     1      44.544   4.442  11.539  0.00  0.00    +0.000 A 
ATOM      4  C   UNL     1      44.014   3.414  10.742  0.00  0.00    +0.000 A 
ATOM      5  C   UNL     1      44.315   3.331   9.382  0.00  0.00    +0.000 A 
ATOM      6  C   UNL     1      45.099   4.311   8.774  0.00  0.00    +0.000 A 
ATOM      7  C   UNL     1      45.667   5.315   9.559  0.00  0.00    +0.000 A 
ATOM      8  C   UNL     1      45.401   5.374  10.933  0.00  0.00    +0.000 A 
BRANCH   6   9
ATOM      9  O   UNL     1      45.409   4.334   7.431  0.00  0.00    +0.000 OA
BRANCH   9  10
ATOM     10  C   UNL     1      46.265   3.386   6.914  0.00  0.00    +0.000 A 
ATOM     11  C   UNL     1      46.910   3.501   5.678  0.00  0.00    +0.000 A 
ATOM     12  C   UNL     1      47.718   2.465   5.207  0.00  0.00    +0.000 A 
ATOM     13  C   UNL     1      47.943   1.342   6.000  0.00  0.00    +0.000 A 
ATOM     14  C   UNL     1      47.362   1.256   7.265  0.00  0.00    +0.000 A 
ATOM     15  C   UNL     1      46.521   2.274   7.721  0.00  0.00    +0.000 A 
ENDBRANCH   9  10
ENDBRANCH   6   9
ENDBRANCH   2   3
BRANCH   2  16
ATOM     16  N   UNL     1      45.306   5.084  13.739  0.00  0.00    +0.000 N 
ATOM     17  C   UNL     1      46.457   4.428  14.095  0.00  0.00    +0.000 C 
ATOM     18  O   UNL     1      46.687   3.269  13.759  0.00  0.00    +0.000 OA
ATOM     19  H   UNL     1      45.100   5.988  14.146  0.00  0.00    +0.000 HD
BRANCH  17  20
ATOM     20  C   UNL     1      47.436   5.210  14.856  0.00  0.00    +0.000 A 
ATOM     21  C   UNL     1      48.116   6.254  14.245  0.00  0.00    +0.000 A 
ATOM     22  S   UNL     1      49.210   7.053  15.282  0.00  0.00    +0.000 S 
ATOM     23  C   UNL     1      48.847   6.000  16.566  0.00  0.00    +0.000 A 
ATOM     24  N   UNL     1      49.484   6.108  17.766  0.00  0.00    +0.000 NA
ATOM     25  C   UNL     1      49.143   5.217  18.632  0.00  0.00    +0.000 A 
ATOM     26  N   UNL     1      48.213   4.232  18.419  0.00  0.00    +0.000 N 
ATOM     27  C   UNL     1      47.503   4.119  17.246  0.00  0.00    +0.000 A 
ATOM     28  O   UNL     1      46.612   3.284  17.119  0.00  0.00    +0.000 OA
ATOM     29  C   UNL     1      47.880   5.071  16.221  0.00  0.00    +0.000 A 
ATOM     30  H   UNL     1      47.975   3.578  19.149  0.00  0.00    +0.000 HD
ENDBRANCH  17  20
ENDBRANCH   2  16
TORSDOF 5
ENDMDL
MODEL 2
REMARK VINA RESULT:    -8.395      1.782      2.413
REMARK INTER + INTRA:         -11.308
REMARK INTER:                 -11.136
REMARK INTRA:                  -0.172
REMARK UNBOUND:                -0.459
REMARK  Name = 
REMARK  6 active torsions:
REMARK  status: ('A' for Active; 'I' for Inactive)
REMARK    1  A    between atoms: C_1  and  C_2
REMARK    2  A    between atoms: C_2  and  N_3
REMARK    3  A    between atoms: C_2  and  C_16
REMARK    4  A    between atoms: C_4  and  C_6
REMARK    5  A    between atoms: C_19  and  O_20
REMARK    6  A    between atoms: O_20  and  C_21
REMARK                            x       y       z     vdW  Elec       q    Type
REMARK                         _______ _______ _______ _____ _____    ______ ____
ROOT
ATOM      1  C   UNL     1      45.954   8.859  11.893  0.00  0.00    +0.000 C 
ATOM      2  C   UNL     1      45.356   7.627  12.575  0.00  0.00    +0.000 C 
ENDROOT
BRANCH   2   3
ATOM      3  C   UNL     1      45.074   6.456  11.650  0.00  0.00    +0.000 A 
ATOM      4  C   UNL     1      45.923   6.266  10.548  0.00  0.00    +0.000 A 
ATOM      5  C   UNL     1      45.688   5.245   9.626  0.00  0.00    +0.000 A 
ATOM      6  C   UNL     1      44.636   4.350   9.821  0.00  0.00    +0.000 A 
ATOM      7  C   UNL     1      43.759   4.550  10.888  0.00  0.00    +0.000 A 
ATOM      8  C   UNL     1      43.970   5.601  11.789  0.00  0.00    +0.000 A 
BRANCH   6   9
ATOM      9  O   UNL     1      44.357   3.288   8.989  0.00  0.00    +0.000 OA
BRANCH   9  10
ATOM     10  C   UNL     1      45.344   2.791   8.164  0.00  0.00    +0.000 A 
ATOM     11  C   UNL     1      45.875   3.482   7.071  0.00  0.00    +0.000 A 
ATOM     12  C   UNL     1      46.834   2.878   6.255  0.00  0.00    +0.000 A 
ATOM     13  C   UNL     1      47.318   1.611   6.572  0.00  0.00    +0.000 A 
ATOM     14  C   UNL     1      46.845   0.948   7.705  0.00  0.00    +0.000 A 
ATOM     15  C   UNL     1      45.857   1.535   8.499  0.00  0.00    +0.000 A 
ENDBRANCH   9  10
ENDBRANCH   6   9
ENDBRANCH   2   3
BRANCH   2  16
ATOM     16  N   UNL     1      46.206   7.173  13.659  0.00  0.00    +0.000 N 
ATOM     17  C   UNL     1      47.574   7.144  13.561  0.00  0.00    +0.000 C 
ATOM     18  O   UNL     1      48.175   7.580  12.582  0.00  0.00    +0.000 OA
ATOM     19  H   UNL     1      45.749   6.685  14.421  0.00  0.00    +0.000 HD
BRANCH  17  20
ATOM     20  C   UNL     1      48.292   6.613  14.723  0.00  0.00    +0.000 A 
ATOM     21  C   UNL     1      49.356   7.321  15.266  0.00  0.00    +0.000 A 
ATOM     22  S   UNL     1      50.068   6.555  16.613  0.00  0.00    +0.000 S 
ATOM     23  C   UNL     1      49.011   5.229  16.487  0.00  0.00    +0.000 A 
ATOM     24  N   UNL     1      49.111   4.166  17.334  0.00  0.00    +0.000 NA
ATOM     25  C   UNL     1      48.277   3.214  17.095  0.00  0.00    +0.000 A 
ATOM     26  N   UNL     1      47.339   3.227  16.095  0.00  0.00    +0.000 N 
ATOM     27  C   UNL     1      47.162   4.300  15.253  0.00  0.00    +0.000 A 
ATOM     28  O   UNL     1      46.252   4.320  14.428  0.00  0.00    +0.000 OA
ATOM     29  C   UNL     1      48.104   5.382  15.452  0.00  0.00    +0.000 A 
ATOM     30  H   UNL     1      46.699   2.457  15.976  0.00  0.00    +0.000 HD
ENDBRANCH  17  20
ENDBRANCH   2  16
TORSDOF 5
ENDMDL
MODEL 3
REMARK VINA RESULT:    -8.215      1.855      2.936
REMARK INTER + INTRA:         -11.074
REMARK INTER:                 -10.862
REMARK INTRA:                  -0.213
REMARK UNBOUND:                -0.459
REMARK  Name = 
REMARK  6 active torsions:
REMARK  status: ('A' for Active; 'I' for Inactive)
REMARK    1  A    between atoms: C_1  and  C_2
REMARK    2  A    between atoms: C_2  and  N_3
REMARK    3  A    between atoms: C_2  and  C_16
REMARK    4  A    between atoms: C_4  and  C_6
REMARK    5  A    between atoms: C_19  and  O_20
REMARK    6  A    between atoms: O_20  and  C_21
REMARK                            x       y       z     vdW  Elec       q    Type
REMARK                         _______ _______ _______ _____ _____    ______ ____
ROOT
ATOM      1  C   UNL     1      47.636   8.938  12.411  0.00  0.00    +0.000 C 
ATOM      2  C   UNL     1      46.615   8.051  13.126  0.00  0.00    +0.000 C 
ENDROOT
BRANCH   2   3
ATOM      3  C   UNL     1      46.018   6.944  12.273  0.00  0.00    +0.000 A 
ATOM      4  C   UNL     1      46.581   6.710  11.007  0.00  0.00    +0.000 A 
ATOM      5  C   UNL     1      46.045   5.748  10.149  0.00  0.00    +0.000 A 
ATOM      6  C   UNL     1      44.977   4.954  10.563  0.00  0.00    +0.000 A 
ATOM      7  C   UNL     1      44.381   5.202  11.800  0.00  0.00    +0.000 A 
ATOM      8  C   UNL     1      44.891   6.196  12.644  0.00  0.00    +0.000 A 
BRANCH   6   9
ATOM      9  O   UNL     1      44.415   3.952   9.802  0.00  0.00    +0.000 OA
BRANCH   9  10
ATOM     10  C   UNL     1      45.193   3.270   8.891  0.00  0.00    +0.000 A 
ATOM     11  C   UNL     1      45.471   1.902   8.964  0.00  0.00    +0.000 A 
ATOM     12  C   UNL     1      46.316   1.304   8.027  0.00  0.00    +0.000 A 
ATOM     13  C   UNL     1      46.828   2.056   6.972  0.00  0.00    +0.000 A 
ATOM     14  C   UNL     1      46.493   3.405   6.853  0.00  0.00    +0.000 A 
ATOM     15  C   UNL     1      45.680   4.014   7.812  0.00  0.00    +0.000 A 
ENDBRANCH   9  10
ENDBRANCH   6   9
ENDBRANCH   2   3
BRANCH   2  16
ATOM     16  N   UNL     1      47.189   7.462  14.320  0.00  0.00    +0.000 N 
ATOM     17  C   UNL     1      48.381   6.783  14.308  0.00  0.00    +0.000 C 
ATOM     18  O   UNL     1      49.083   6.699  13.303  0.00  0.00    +0.000 OA
ATOM     19  H   UNL     1      46.583   7.393  15.129  0.00  0.00    +0.000 HD
BRANCH  17  20
ATOM     20  C   UNL     1      48.806   6.204  15.586  0.00  0.00    +0.000 A 
ATOM     21  C   UNL     1      49.894   6.737  16.263  0.00  0.00    +0.000 A 
ATOM     22  S   UNL     1      50.241   5.940  17.731  0.00  0.00    +0.000 S 
ATOM     23  C   UNL     1      48.980   4.826  17.487  0.00  0.00    +0.000 A 
ATOM     24  N   UNL     1      48.749   3.819  18.376  0.00  0.00    +0.000 NA
ATOM     25  C   UNL     1      47.792   3.023  18.042  0.00  0.00    +0.000 A 
ATOM     26  N   UNL     1      47.031   3.145  16.909  0.00  0.00    +0.000 N 
ATOM     27  C   UNL     1      47.188   4.177  16.013  0.00  0.00    +0.000 A 
ATOM     28  O   UNL     1      46.430   4.310  15.056  0.00  0.00    +0.000 OA
ATOM     29  C   UNL     1      48.281   5.077  16.319  0.00  0.00    +0.000 A 
ATOM     30  H   UNL     1      46.279   2.499  16.719  0.00  0.00    +0.000 HD
ENDBRANCH  17  20
ENDBRANCH   2  16
TORSDOF 5
ENDMDL
MODEL 4
REMARK VINA RESULT:    -8.137      1.824      2.621
REMARK INTER + INTRA:         -10.974
REMARK INTER:                 -10.564
REMARK INTRA:                  -0.409
REMARK UNBOUND:                -0.459
REMARK  Name = 
REMARK  6 active torsions:
REMARK  status: ('A' for Active; 'I' for Inactive)
REMARK    1  A    between atoms: C_1  and  C_2
REMARK    2  A    between atoms: C_2  and  N_3
REMARK    3  A    between atoms: C_2  and  C_16
REMARK    4  A    between atoms: C_4  and  C_6
REMARK    5  A    between atoms: C_19  and  O_20
REMARK    6  A    between atoms: O_20  and  C_21
REMARK                            x       y       z     vdW  Elec       q    Type
REMARK                         _______ _______ _______ _____ _____    ______ ____
ROOT
ATOM      1  C   UNL     1      46.873   8.063  12.290  0.00  0.00    +0.000 C 
ATOM      2  C   UNL     1      45.855   7.008  12.729  0.00  0.00    +0.000 C 
ENDROOT
BRANCH   2   3
ATOM      3  C   UNL     1      45.526   5.960  11.680  0.00  0.00    +0.000 A 
ATOM      4  C   UNL     1      46.029   6.144  10.381  0.00  0.00    +0.000 A 
ATOM      5  C   UNL     1      45.717   5.251   9.355  0.00  0.00    +0.000 A 
ATOM      6  C   UNL     1      44.948   4.118   9.620  0.00  0.00    +0.000 A 
ATOM      7  C   UNL     1      44.406   3.942  10.894  0.00  0.00    +0.000 A 
ATOM      8  C   UNL     1      44.684   4.862  11.913  0.00  0.00    +0.000 A 
BRANCH   6   9
ATOM      9  O   UNL     1      44.629   3.161   8.681  0.00  0.00    +0.000 OA
BRANCH   9  10
ATOM     10  C   UNL     1      45.622   2.628   7.887  0.00  0.00    +0.000 A 
ATOM     11  C   UNL     1      46.276   1.420   8.152  0.00  0.00    +0.000 A 
ATOM     12  C   UNL     1      47.310   0.983   7.322  0.00  0.00    +0.000 A 
ATOM     13  C   UNL     1      47.645   1.714   6.184  0.00  0.00    +0.000 A 
ATOM     14  C   UNL     1      46.945   2.880   5.875  0.00  0.00    +0.000 A 
ATOM     15  C   UNL     1      45.937   3.339   6.726  0.00  0.00    +0.000 A 
ENDBRANCH   9  10
ENDBRANCH   6   9
ENDBRANCH   2   3
BRANCH   2  16
ATOM     16  N   UNL     1      46.296   6.337  13.937  0.00  0.00    +0.000 N 
ATOM     17  C   UNL     1      47.493   5.673  14.018  0.00  0.00    +0.000 C 
ATOM     18  O   UNL     1      48.310   5.672  13.101  0.00  0.00    +0.000 OA
ATOM     19  H   UNL     1      45.599   6.202  14.661  0.00  0.00    +0.000 HD
BRANCH  17  20
ATOM     20  C   UNL     1      47.775   5.004  15.291  0.00  0.00    +0.000 A 
ATOM     21  C   UNL     1      47.329   3.708  15.509  0.00  0.00    +0.000 A 
ATOM     22  S   UNL     1      47.751   3.091  17.042  0.00  0.00    +0.000 S 
ATOM     23  C   UNL     1      48.500   4.552  17.485  0.00  0.00    +0.000 A 
ATOM     24  N   UNL     1      49.046   4.716  18.723  0.00  0.00    +0.000 NA
ATOM     25  C   UNL     1      49.538   5.887  18.937  0.00  0.00    +0.000 A 
ATOM     26  N   UNL     1      49.550   6.910  18.025  0.00  0.00    +0.000 N 
ATOM     27  C   UNL     1      49.064   6.774  16.745  0.00  0.00    +0.000 A 
ATOM     28  O   UNL     1      49.173   7.679  15.922  0.00  0.00    +0.000 OA
ATOM     29  C   UNL     1      48.459   5.488  16.466  0.00  0.00    +0.000 A 
ATOM     30  H   UNL     1      49.974   7.798  18.249  0.00  0.00    +0.000 HD
ENDBRANCH  17  20
ENDBRANCH   2  16
TORSDOF 5
ENDMDL
MODEL 5
REMARK VINA RESULT:    -8.068      1.669      2.673
REMARK INTER + INTRA:         -10.885
REMARK INTER:                 -10.202
REMARK INTRA:                  -0.683
REMARK UNBOUND:                -0.459
REMARK  Name = 
REMARK  6 active torsions:
REMARK  status: ('A' for Active; 'I' for Inactive)
REMARK    1  A    between atoms: C_1  and  C_2
REMARK    2  A    between atoms: C_2  and  N_3
REMARK    3  A    between atoms: C_2  and  C_16
REMARK    4  A    between atoms: C_4  and  C_6
REMARK    5  A    between atoms: C_19  and  O_20
REMARK    6  A    between atoms: O_20  and  C_21
REMARK                            x       y       z     vdW  Elec       q    Type
REMARK                         _______ _______ _______ _____ _____    ______ ____
ROOT
ATOM      1  C   UNL     1      43.031   5.066  13.537  0.00  0.00    +0.000 C 
ATOM      2  C   UNL     1      44.364   4.472  13.079  0.00  0.00    +0.000 C 
ENDROOT
BRANCH   2   3
ATOM      3  C   UNL     1      44.531   4.354  11.573  0.00  0.00    +0.000 A 
ATOM      4  C   UNL     1      44.025   3.205  10.941  0.00  0.00    +0.000 A 
ATOM      5  C   UNL     1      44.194   3.005   9.571  0.00  0.00    +0.000 A 
ATOM      6  C   UNL     1      44.816   3.979   8.790  0.00  0.00    +0.000 A 
ATOM      7  C   UNL     1      45.360   5.105   9.408  0.00  0.00    +0.000 A 
ATOM      8  C   UNL     1      45.228   5.286  10.790  0.00  0.00    +0.000 A 
BRANCH   6   9
ATOM      9  O   UNL     1      44.986   3.887   7.425  0.00  0.00    +0.000 OA
BRANCH   9  10
ATOM     10  C   UNL     1      46.034   3.150   6.918  0.00  0.00    +0.000 A 
ATOM     11  C   UNL     1      46.706   3.454   5.730  0.00  0.00    +0.000 A 
ATOM     12  C   UNL     1      47.722   2.619   5.262  0.00  0.00    +0.000 A 
ATOM     13  C   UNL     1      48.120   1.518   6.016  0.00  0.00    +0.000 A 
ATOM     14  C   UNL     1      47.503   1.251   7.239  0.00  0.00    +0.000 A 
ATOM     15  C   UNL     1      46.459   2.064   7.689  0.00  0.00    +0.000 A 
ENDBRANCH   9  10
ENDBRANCH   6   9
ENDBRANCH   2   3
BRANCH   2  16
ATOM     16  N   UNL     1      45.479   5.232  13.613  0.00  0.00    +0.000 N 
ATOM     17  C   UNL     1      46.630   4.636  14.062  0.00  0.00    +0.000 C 
ATOM     18  O   UNL     1      46.829   3.428  13.964  0.00  0.00    +0.000 OA
ATOM     19  H   UNL     1      45.301   6.205  13.833  0.00  0.00    +0.000 HD
BRANCH  17  20
ATOM     20  C   UNL     1      47.646   5.534  14.618  0.00  0.00    +0.000 A 
ATOM     21  C   UNL     1      48.055   5.390  15.936  0.00  0.00    +0.000 A 
ATOM     22  S   UNL     1      49.244   6.518  16.409  0.00  0.00    +0.000 S 
ATOM     23  C   UNL     1      49.217   7.268  14.882  0.00  0.00    +0.000 A 
ATOM     24  N   UNL     1      49.990   8.359  14.621  0.00  0.00    +0.000 NA
ATOM     25  C   UNL     1      49.835   8.851  13.440  0.00  0.00    +0.000 A 
ATOM     26  N   UNL     1      48.989   8.348  12.487  0.00  0.00    +0.000 N 
ATOM     27  C   UNL     1      48.233   7.215  12.684  0.00  0.00    +0.000 A 
ATOM     28  O   UNL     1      47.555   6.736  11.779  0.00  0.00    +0.000 OA
ATOM     29  C   UNL     1      48.338   6.647  14.012  0.00  0.00    +0.000 A 
ATOM     30  H   UNL     1      48.933   8.767  11.571  0.00  0.00    +0.000 HD
ENDBRANCH  17  20
ENDBRANCH   2  16
TORSDOF 5
ENDMDL
MODEL 6
REMARK VINA RESULT:    -7.477      2.601      4.199
REMARK INTER + INTRA:         -10.121
REMARK INTER:                  -8.992
REMARK INTRA:                  -1.129
REMARK UNBOUND:                -0.459
REMARK  Name = 
REMARK  6 active torsions:
REMARK  status: ('A' for Active; 'I' for Inactive)
REMARK    1  A    between atoms: C_1  and  C_2
REMARK    2  A    between atoms: C_2  and  N_3
REMARK    3  A    between atoms: C_2  and  C_16
REMARK    4  A    between atoms: C_4  and  C_6
REMARK    5  A    between atoms: C_19  and  O_20
REMARK    6  A    between atoms: O_20  and  C_21
REMARK                            x       y       z     vdW  Elec       q    Type
REMARK                         _______ _______ _______ _____ _____    ______ ____
ROOT
ATOM      1  C   UNL     1      49.693   7.803  13.580  0.00  0.00    +0.000 C 
ATOM      2  C   UNL     1      48.256   8.042  14.048  0.00  0.00    +0.000 C 
ENDROOT
BRANCH   2   3
ATOM      3  C   UNL     1      47.189   7.339  13.227  0.00  0.00    +0.000 A 
ATOM      4  C   UNL     1      47.116   5.938  13.299  0.00  0.00    +0.000 A 
ATOM      5  C   UNL     1      46.199   5.224  12.527  0.00  0.00    +0.000 A 
ATOM      6  C   UNL     1      45.288   5.900  11.715  0.00  0.00    +0.000 A 
ATOM      7  C   UNL     1      45.375   7.288  11.599  0.00  0.00    +0.000 A 
ATOM      8  C   UNL     1      46.324   8.001  12.341  0.00  0.00    +0.000 A 
BRANCH   6   9
ATOM      9  O   UNL     1      44.320   5.281  10.954  0.00  0.00    +0.000 OA
BRANCH   9  10
ATOM     10  C   UNL     1      44.683   4.305  10.051  0.00  0.00    +0.000 A 
ATOM     11  C   UNL     1      44.308   2.962  10.152  0.00  0.00    +0.000 A 
ATOM     12  C   UNL     1      44.768   2.030   9.220  0.00  0.00    +0.000 A 
ATOM     13  C   UNL     1      45.545   2.449   8.143  0.00  0.00    +0.000 A 
ATOM     14  C   UNL     1      45.861   3.800   7.996  0.00  0.00    +0.000 A 
ATOM     15  C   UNL     1      45.434   4.727   8.950  0.00  0.00    +0.000 A 
ENDBRANCH   9  10
ENDBRANCH   6   9
ENDBRANCH   2   3
BRANCH   2  16
ATOM     16  N   UNL     1      48.097   7.666  15.440  0.00  0.00    +0.000 N 
ATOM     17  C   UNL     1      48.534   8.457  16.472  0.00  0.00    +0.000 C 
ATOM     18  O   UNL     1      49.013   9.574  16.291  0.00  0.00    +0.000 OA
ATOM     19  H   UNL     1      47.834   6.705  15.623  0.00  0.00    +0.000 HD
BRANCH  17  20
ATOM     20  C   UNL     1      48.344   7.918  17.822  0.00  0.00    +0.000 A 
ATOM     21  C   UNL     1      47.929   8.752  18.850  0.00  0.00    +0.000 A 
ATOM     22  S   UNL     1      47.758   7.953  20.348  0.00  0.00    +0.000 S 
ATOM     23  C   UNL     1      48.280   6.478  19.683  0.00  0.00    +0.000 A 
ATOM     24  N   UNL     1      48.407   5.363  20.456  0.00  0.00    +0.000 NA
ATOM     25  C   UNL     1      48.856   4.330  19.831  0.00  0.00    +0.000 A 
ATOM     26  N   UNL     1      49.178   4.299  18.499  0.00  0.00    +0.000 N 
ATOM     27  C   UNL     1      49.011   5.381  17.666  0.00  0.00    +0.000 A 
ATOM     28  O   UNL     1      49.220   5.294  16.459  0.00  0.00    +0.000 OA
ATOM     29  C   UNL     1      48.550   6.583  18.329  0.00  0.00    +0.000 A 
ATOM     30  H   UNL     1      49.502   3.447  18.065  0.00  0.00    +0.000 HD
ENDBRANCH  17  20
ENDBRANCH   2  16
TORSDOF 5
ENDMDL
MODEL 7
REMARK VINA RESULT:    -7.410      2.951      4.095
REMARK INTER + INTRA:         -10.035
REMARK INTER:                  -8.827
REMARK INTRA:                  -1.208
REMARK UNBOUND:                -0.459
REMARK  Name = 
REMARK  6 active torsions:
REMARK  status: ('A' for Active; 'I' for Inactive)
REMARK    1  A    between atoms: C_1  and  C_2
REMARK    2  A    between atoms: C_2  and  N_3
REMARK    3  A    between atoms: C_2  and  C_16
REMARK    4  A    between atoms: C_4  and  C_6
REMARK    5  A    between atoms: C_19  and  O_20
REMARK    6  A    between atoms: O_20  and  C_21
REMARK                            x       y       z     vdW  Elec       q    Type
REMARK                         _______ _______ _______ _____ _____    ______ ____
ROOT
ATOM      1  C   UNL     1      47.327   4.271  16.435  0.00  0.00    +0.000 C 
ATOM      2  C   UNL     1      47.815   5.040  15.206  0.00  0.00    +0.000 C 
ENDROOT
BRANCH   2   3
ATOM      3  C   UNL     1      46.993   4.825  13.947  0.00  0.00    +0.000 A 
ATOM      4  C   UNL     1      46.835   5.910  13.068  0.00  0.00    +0.000 A 
ATOM      5  C   UNL     1      46.045   5.799  11.923  0.00  0.00    +0.000 A 
ATOM      6  C   UNL     1      45.448   4.581  11.597  0.00  0.00    +0.000 A 
ATOM      7  C   UNL     1      45.560   3.507  12.480  0.00  0.00    +0.000 A 
ATOM      8  C   UNL     1      46.318   3.631  13.651  0.00  0.00    +0.000 A 
BRANCH   6   9
ATOM      9  O   UNL     1      44.690   4.368  10.466  0.00  0.00    +0.000 OA
BRANCH   9  10
ATOM     10  C   UNL     1      45.242   3.707   9.390  0.00  0.00    +0.000 A 
ATOM     11  C   UNL     1      45.194   2.321   9.210  0.00  0.00    +0.000 A 
ATOM     12  C   UNL     1      45.830   1.730   8.117  0.00  0.00    +0.000 A 
ATOM     13  C   UNL     1      46.454   2.527   7.161  0.00  0.00    +0.000 A 
ATOM     14  C   UNL     1      46.442   3.916   7.297  0.00  0.00    +0.000 A 
ATOM     15  C   UNL     1      45.840   4.506   8.411  0.00  0.00    +0.000 A 
ENDBRANCH   9  10
ENDBRANCH   6   9
ENDBRANCH   2   3
BRANCH   2  16
ATOM     16  N   UNL     1      47.886   6.463  15.481  0.00  0.00    +0.000 N 
ATOM     17  C   UNL     1      49.070   7.110  15.725  0.00  0.00    +0.000 C 
ATOM     18  O   UNL     1      50.159   6.545  15.645  0.00  0.00    +0.000 OA
ATOM     19  H   UNL     1      47.010   6.929  15.686  0.00  0.00    +0.000 HD
BRANCH  17  20
ATOM     20  C   UNL     1      48.973   8.539  16.033  0.00  0.00    +0.000 A 
ATOM     21  C   UNL     1      49.497   9.477  15.155  0.00  0.00    +0.000 A 
ATOM     22  S   UNL     1      49.290  11.088  15.674  0.00  0.00    +0.000 S 
ATOM     23  C   UNL     1      48.535  10.585  17.113  0.00  0.00    +0.000 A 
ATOM     24  N   UNL     1      48.135  11.489  18.050  0.00  0.00    +0.000 NA
ATOM     25  C   UNL     1      47.621  10.965  19.110  0.00  0.00    +0.000 A 
ATOM     26  N   UNL     1      47.455   9.620  19.317  0.00  0.00    +0.000 N 
ATOM     27  C   UNL     1      47.789   8.674  18.376  0.00  0.00    +0.000 A 
ATOM     28  O   UNL     1      47.543   7.484  18.554  0.00  0.00    +0.000 OA
ATOM     29  C   UNL     1      48.413   9.208  17.183  0.00  0.00    +0.000 A 
ATOM     30  H   UNL     1      47.022   9.276  20.161  0.00  0.00    +0.000 HD
ENDBRANCH  17  20
ENDBRANCH   2  16
TORSDOF 5
ENDMDL
MODEL 8
REMARK VINA RESULT:    -7.316      2.996      4.468
REMARK INTER + INTRA:          -9.913
REMARK INTER:                  -8.653
REMARK INTRA:                  -1.259
REMARK UNBOUND:                -0.459
REMARK  Name = 
REMARK  6 active torsions:
REMARK  status: ('A' for Active; 'I' for Inactive)
REMARK    1  A    between atoms: C_1  and  C_2
REMARK    2  A    between atoms: C_2  and  N_3
REMARK    3  A    between atoms: C_2  and  C_16
REMARK    4  A    between atoms: C_4  and  C_6
REMARK    5  A    between atoms: C_19  and  O_20
REMARK    6  A    between atoms: O_20  and  C_21
REMARK                            x       y       z     vdW  Elec       q    Type
REMARK                         _______ _______ _______ _____ _____    ______ ____
ROOT
ATOM      1  C   UNL     1      48.859   8.997  13.071  0.00  0.00    +0.000 C 
ATOM      2  C   UNL     1      47.970   8.034  13.860  0.00  0.00    +0.000 C 
ENDROOT
BRANCH   2   3
ATOM      3  C   UNL     1      47.015   7.206  13.017  0.00  0.00    +0.000 A 
ATOM      4  C   UNL     1      46.114   7.885  12.180  0.00  0.00    +0.000 A 
ATOM      5  C   UNL     1      45.171   7.189  11.422  0.00  0.00    +0.000 A 
ATOM      6  C   UNL     1      45.151   5.795  11.435  0.00  0.00    +0.000 A 
ATOM      7  C   UNL     1      46.010   5.107  12.293  0.00  0.00    +0.000 A 
ATOM      8  C   UNL     1      46.928   5.807  13.085  0.00  0.00    +0.000 A 
BRANCH   6   9
ATOM      9  O   UNL     1      44.286   5.025  10.687  0.00  0.00    +0.000 OA
BRANCH   9  10
ATOM     10  C   UNL     1      44.793   4.107   9.792  0.00  0.00    +0.000 A 
ATOM     11  C   UNL     1      44.565   2.729   9.868  0.00  0.00    +0.000 A 
ATOM     12  C   UNL     1      45.164   1.865   8.950  0.00  0.00    +0.000 A 
ATOM     13  C   UNL     1      45.933   2.381   7.909  0.00  0.00    +0.000 A 
ATOM     14  C   UNL     1      46.102   3.760   7.785  0.00  0.00    +0.000 A 
ATOM     15  C   UNL     1      45.536   4.623   8.727  0.00  0.00    +0.000 A 
ENDBRANCH   9  10
ENDBRANCH   6   9
ENDBRANCH   2   3
BRANCH   2  16
ATOM     16  N   UNL     1      48.772   7.139  14.672  0.00  0.00    +0.000 N 
ATOM     17  C   UNL     1      48.968   7.338  16.015  0.00  0.00    +0.000 C 
ATOM     18  O   UNL     1      48.411   8.240  16.637  0.00  0.00    +0.000 OA
ATOM     19  H   UNL     1      49.350   6.471  14.176  0.00  0.00    +0.000 HD
BRANCH  17  20
ATOM     20  C   UNL     1      49.842   6.374  16.689  0.00  0.00    +0.000 A 
ATOM     21  C   UNL     1      49.306   5.450  17.574  0.00  0.00    +0.000 A 
ATOM     22  S   UNL     1      50.469   4.407  18.259  0.00  0.00    +0.000 S 
ATOM     23  C   UNL     1      51.734   5.187  17.434  0.00  0.00    +0.000 A 
ATOM     24  N   UNL     1      53.031   4.806  17.611  0.00  0.00    +0.000 NA
ATOM     25  C   UNL     1      53.888   5.513  16.959  0.00  0.00    +0.000 A 
ATOM     26  N   UNL     1      53.572   6.560  16.132  0.00  0.00    +0.000 N 
ATOM     27  C   UNL     1      52.276   6.944  15.876  0.00  0.00    +0.000 A 
ATOM     28  O   UNL     1      52.022   7.825  15.060  0.00  0.00    +0.000 OA
ATOM     29  C   UNL     1      51.274   6.208  16.620  0.00  0.00    +0.000 A 
ATOM     30  H   UNL     1      54.292   7.058  15.631  0.00  0.00    +0.000 HD
ENDBRANCH  17  20
ENDBRANCH   2  16
TORSDOF 5
ENDMDL
MODEL 9
REMARK VINA RESULT:    -7.280      3.987      8.609
REMARK INTER + INTRA:          -9.866
REMARK INTER:                  -9.105
REMARK INTRA:                  -0.761
REMARK UNBOUND:                -0.459
REMARK  Name = 
REMARK  6 active torsions:
REMARK  status: ('A' for Active; 'I' for Inactive)
REMARK    1  A    between atoms: C_1  and  C_2
REMARK    2  A    between atoms: C_2  and  N_3
REMARK    3  A    between atoms: C_2  and  C_16
REMARK    4  A    between atoms: C_4  and  C_6
REMARK    5  A    between atoms: C_19  and  O_20
REMARK    6  A    between atoms: O_20  and  C_21
REMARK                            x       y       z     vdW  Elec       q    Type
REMARK                         _______ _______ _______ _____ _____    ______ ____
ROOT
ATOM      1  C   UNL     1      48.577   9.131  16.137  0.00  0.00    +0.000 C 
ATOM      2  C   UNL     1      48.900   7.862  15.347  0.00  0.00    +0.000 C 
ENDROOT
BRANCH   2   3
ATOM      3  C   UNL     1      49.429   6.706  16.179  0.00  0.00    +0.000 A 
ATOM      4  C   UNL     1      50.821   6.569  16.310  0.00  0.00    +0.000 A 
ATOM      5  C   UNL     1      51.376   5.498  17.011  0.00  0.00    +0.000 A 
ATOM      6  C   UNL     1      50.550   4.575  17.652  0.00  0.00    +0.000 A 
ATOM      7  C   UNL     1      49.166   4.672  17.496  0.00  0.00    +0.000 A 
ATOM      8  C   UNL     1      48.610   5.723  16.757  0.00  0.00    +0.000 A 
BRANCH   6   9
ATOM      9  O   UNL     1      51.009   3.514  18.402  0.00  0.00    +0.000 OA
BRANCH   9  10
ATOM     10  C   UNL     1      52.166   2.865  18.029  0.00  0.00    +0.000 A 
ATOM     11  C   UNL     1      53.441   3.438  18.084  0.00  0.00    +0.000 A 
ATOM     12  C   UNL     1      54.553   2.727  17.632  0.00  0.00    +0.000 A 
ATOM     13  C   UNL     1      54.406   1.413  17.192  0.00  0.00    +0.000 A 
ATOM     14  C   UNL     1      53.148   0.811  17.204  0.00  0.00    +0.000 A 
ATOM     15  C   UNL     1      52.028   1.536  17.619  0.00  0.00    +0.000 A 
ENDBRANCH   9  10
ENDBRANCH   6   9
ENDBRANCH   2   3
BRANCH   2  16
ATOM     16  N   UNL     1      47.741   7.408  14.601  0.00  0.00    +0.000 N 
ATOM     17  C   UNL     1      47.846   6.729  13.414  0.00  0.00    +0.000 C 
ATOM     18  O   UNL     1      48.928   6.385  12.945  0.00  0.00    +0.000 OA
ATOM     19  H   UNL     1      46.844   7.786  14.883  0.00  0.00    +0.000 HD
BRANCH  17  20
ATOM     20  C   UNL     1      46.584   6.380  12.756  0.00  0.00    +0.000 A 
ATOM     21  C   UNL     1      45.808   7.372  12.173  0.00  0.00    +0.000 A 
ATOM     22  S   UNL     1      44.378   6.782  11.453  0.00  0.00    +0.000 S 
ATOM     23  C   UNL     1      44.724   5.190  11.940  0.00  0.00    +0.000 A 
ATOM     24  N   UNL     1      43.861   4.169  11.673  0.00  0.00    +0.000 NA
ATOM     25  C   UNL     1      44.229   3.026  12.139  0.00  0.00    +0.000 A 
ATOM     26  N   UNL     1      45.387   2.800  12.837  0.00  0.00    +0.000 N 
ATOM     27  C   UNL     1      46.316   3.785  13.079  0.00  0.00    +0.000 A 
ATOM     28  O   UNL     1      47.386   3.532  13.626  0.00  0.00    +0.000 OA
ATOM     29  C   UNL     1      45.930   5.102  12.613  0.00  0.00    +0.000 A 
ATOM     30  H   UNL     1      45.627   1.873  13.154  0.00  0.00    +0.000 HD
ENDBRANCH  17  20
ENDBRANCH   2  16
TORSDOF 5
ENDMDL
