MODEL 1
REMARK VINA RESULT:    -8.708      0.000      0.000
REMARK INTER + INTRA:         -12.777
REMARK INTER:                 -11.762
REMARK INTRA:                  -1.015
REMARK UNBOUND:                -1.015
REMARK  Name = 
REMARK  6 active torsions:
REMARK  status: ('A' for Active; 'I' for Inactive)
REMARK    1  A    between atoms: C_2  and  C_19
REMARK    2  A    between atoms: N_3  and  C_4
REMARK    3  A    between atoms: C_4  and  C_5
REMARK    4  A    between atoms: C_8  and  C_9
REMARK    5  A    between atoms: C_9  and  N_10
REMARK    6  A    between atoms: N_10  and  C_11
REMARK                            x       y       z     vdW  Elec       q    Type
REMARK                         _______ _______ _______ _____ _____    ______ ____
ROOT
ATOM      1  C   UNL     1      46.767   8.026  13.225  0.00  0.00    +0.000 C 
ENDROOT
BRANCH   1   2
ATOM      2  C   UNL     1      46.018   7.023  12.387  0.00  0.00    +0.000 A 
ATOM      3  C   UNL     1      46.510   6.656  11.130  0.00  0.00    +0.000 A 
ATOM      4  C   UNL     1      45.829   5.723  10.344  0.00  0.00    +0.000 A 
ATOM      5  C   UNL     1      44.626   5.158  10.788  0.00  0.00    +0.000 A 
ATOM      6  C   UNL     1      44.130   5.526  12.047  0.00  0.00    +0.000 A 
ATOM      7  C   UNL     1      44.816   6.458  12.834  0.00  0.00    +0.000 A 
BRANCH   5   8
ATOM      8  C   UNL     1      43.875   4.185   9.907  0.00  0.00    +0.000 C 
BRANCH   8   9
ATOM      9  N   UNL     1      44.333   4.285   8.528  0.00  0.00    +0.000 N 
ATOM     10  H   UNL     1      44.628   5.228   8.289  0.00  0.00    +0.000 HD
BRANCH   9  11
ATOM     11  C   UNL     1      45.214   3.306   8.048  0.00  0.00    +0.000 A 
ATOM     12  C   UNL     1      46.147   3.537   7.034  0.00  0.00    +0.000 A 
ATOM     13  C   UNL     1      47.059   2.548   6.662  0.00  0.00    +0.000 A 
ATOM     14  C   UNL     1      47.032   1.341   7.334  0.00  0.00    +0.000 A 
ATOM     15  N   UNL     1      46.177   1.070   8.339  0.00  0.00    +0.000 NA
ATOM     16  C   UNL     1      45.312   2.060   8.678  0.00  0.00    +0.000 A 
ENDBRANCH   9  11
ENDBRANCH   8   9
ENDBRANCH   5   8
ENDBRANCH   1   2
BRANCH   1  19
ATOM     17  O   UNL     1      49.252   6.698  13.416  0.00  0.00    +0.000 OA
ATOM     18  C   UNL     1      48.558   6.814  14.422  0.00  0.00    +0.000 C 
ATOM     19  N   UNL     1      47.328   7.418  14.405  0.00  0.00    +0.000 N 
ATOM     20  H   UNL     1      46.873   7.645  15.281  0.00  0.00    +0.000 HD
BRANCH  18  21
ATOM     21  C   UNL     1      48.983   6.254  15.712  0.00  0.00    +0.000 A 
ATOM     22  C   UNL     1      50.042   6.833  16.401  0.00  0.00    +0.000 A 
ATOM     23  S   UNL     1      50.420   6.045  17.865  0.00  0.00    +0.000 S 
ATOM     24  C   UNL     1      49.156   4.928  17.655  0.00  0.00    +0.000 A 
ATOM     25  N   UNL     1      48.904   3.973  18.593  0.00  0.00    +0.000 NA
ATOM     26  C   UNL     1      47.892   3.217  18.327  0.00  0.00    +0.000 A 
ATOM     27  N   UNL     1      47.117   3.320  17.202  0.00  0.00    +0.000 N 
ATOM     28  C   UNL     1      47.377   4.219  16.197  0.00  0.00    +0.000 A 
ATOM     29  O   UNL     1      46.739   4.196  15.151  0.00  0.00    +0.000 OA
ATOM     30  C   UNL     1      48.473   5.133  16.469  0.00  0.00    +0.000 A 
ATOM     31  H   UNL     1      46.359   2.675  17.036  0.00  0.00    +0.000 HD
ENDBRANCH  18  21
ENDBRANCH   1  19
TORSDOF 6
ENDMDL
MODEL 2
REMARK VINA RESULT:    -8.198      1.614      1.944
REMARK INTER + INTRA:         -12.089
REMARK INTER:                 -11.179
REMARK INTRA:                  -0.910
REMARK UNBOUND:                -1.015
REMARK  Name = 
REMARK  6 active torsions:
REMARK  status: ('A' for Active; 'I' for Inactive)
REMARK    1  A    between atoms: C_2  and  C_19
REMARK    2  A    between atoms: N_3  and  C_4
REMARK    3  A    between atoms: C_4  and  C_5
REMARK    4  A    between atoms: C_8  and  C_9
REMARK    5  A    between atoms: C_9  and  N_10
REMARK    6  A    between atoms: N_10  and  C_11
REMARK                            x       y       z     vdW  Elec       q    Type
REMARK                         _______ _______ _______ _____ _____    ______ ____
ROOT
ATOM      1  C   UNL     1      48.297   6.826  13.377  0.00  0.00    +0.000 C 
ENDROOT
BRANCH   1   2
ATOM      2  C   UNL     1      47.141   6.156  12.681  0.00  0.00    +0.000 A 
ATOM      3  C   UNL     1      46.636   4.947  13.172  0.00  0.00    +0.000 A 
ATOM      4  C   UNL     1      45.562   4.316  12.541  0.00  0.00    +0.000 A 
ATOM      5  C   UNL     1      44.987   4.868  11.388  0.00  0.00    +0.000 A 
ATOM      6  C   UNL     1      45.492   6.078  10.893  0.00  0.00    +0.000 A 
ATOM      7  C   UNL     1      46.567   6.710  11.529  0.00  0.00    +0.000 A 
BRANCH   5   8
ATOM      8  C   UNL     1      43.855   4.150  10.687  0.00  0.00    +0.000 C 
BRANCH   8   9
ATOM      9  N   UNL     1      44.005   4.248   9.242  0.00  0.00    +0.000 N 
ATOM     10  H   UNL     1      44.085   5.212   8.929  0.00  0.00    +0.000 HD
BRANCH   9  11
ATOM     11  C   UNL     1      44.922   3.397   8.610  0.00  0.00    +0.000 A 
ATOM     12  C   UNL     1      45.884   3.839   7.697  0.00  0.00    +0.000 A 
ATOM     13  C   UNL     1      46.829   2.957   7.170  0.00  0.00    +0.000 A 
ATOM     14  C   UNL     1      46.805   1.640   7.588  0.00  0.00    +0.000 A 
ATOM     15  N   UNL     1      45.923   1.162   8.486  0.00  0.00    +0.000 NA
ATOM     16  C   UNL     1      45.027   2.052   8.983  0.00  0.00    +0.000 A 
ENDBRANCH   9  11
ENDBRANCH   8   9
ENDBRANCH   5   8
ENDBRANCH   1   2
BRANCH   1  19
ATOM     17  O   UNL     1      50.352   6.799  15.314  0.00  0.00    +0.000 OA
ATOM     18  C   UNL     1      49.182   6.835  15.684  0.00  0.00    +0.000 C 
ATOM     19  N   UNL     1      48.129   6.821  14.808  0.00  0.00    +0.000 N 
ATOM     20  H   UNL     1      47.197   7.028  15.147  0.00  0.00    +0.000 HD
BRANCH  18  21
ATOM     21  C   UNL     1      48.833   6.839  17.112  0.00  0.00    +0.000 A 
ATOM     22  C   UNL     1      48.372   8.007  17.707  0.00  0.00    +0.000 A 
ATOM     23  S   UNL     1      48.038   7.843  19.371  0.00  0.00    +0.000 S 
ATOM     24  C   UNL     1      48.455   6.195  19.349  0.00  0.00    +0.000 A 
ATOM     25  N   UNL     1      48.358   5.434  20.474  0.00  0.00    +0.000 NA
ATOM     26  C   UNL     1      48.668   4.192  20.308  0.00  0.00    +0.000 A 
ATOM     27  N   UNL     1      49.079   3.643  19.121  0.00  0.00    +0.000 N 
ATOM     28  C   UNL     1      49.260   4.386  17.980  0.00  0.00    +0.000 A 
ATOM     29  O   UNL     1      49.749   3.885  16.974  0.00  0.00    +0.000 OA
ATOM     30  C   UNL     1      48.874   5.781  18.096  0.00  0.00    +0.000 A 
ATOM     31  H   UNL     1      49.340   2.671  19.064  0.00  0.00    +0.000 HD
ENDBRANCH  18  21
ENDBRANCH   1  19
TORSDOF 6
ENDMDL
MODEL 3
REMARK VINA RESULT:    -7.960      2.144      2.593
REMARK INTER + INTRA:         -11.767
REMARK INTER:                 -10.918
REMARK INTRA:                  -0.849
REMARK UNBOUND:                -1.015
REMARK  Name = 
REMARK  6 active torsions:
REMARK  status: ('A' for Active; 'I' for Inactive)
REMARK    1  A    between atoms: C_2  and  C_19
REMARK    2  A    between atoms: N_3  and  C_4
REMARK    3  A    between atoms: C_4  and  C_5
REMARK    4  A    between atoms: C_8  and  C_9
REMARK    5  A    between atoms: C_9  and  N_10
REMARK    6  A    between atoms: N_10  and  C_11
REMARK                            x       y       z     vdW  Elec       q    Type
REMARK                         _______ _______ _______ _____ _____    ______ ____
ROOT
ATOM      1  C   UNL     1      47.566   6.719  13.568  0.00  0.00    +0.000 C 
ENDROOT
BRANCH   1   2
ATOM      2  C   UNL     1      46.701   5.882  12.662  0.00  0.00    +0.000 A 
ATOM      3  C   UNL     1      46.245   4.631  13.093  0.00  0.00    +0.000 A 
ATOM      4  C   UNL     1      45.438   3.845  12.267  0.00  0.00    +0.000 A 
ATOM      5  C   UNL     1      45.094   4.282  10.981  0.00  0.00    +0.000 A 
ATOM      6  C   UNL     1      45.551   5.534  10.546  0.00  0.00    +0.000 A 
ATOM      7  C   UNL     1      46.356   6.321  11.377  0.00  0.00    +0.000 A 
BRANCH   5   8
ATOM      8  C   UNL     1      44.259   3.401  10.078  0.00  0.00    +0.000 C 
BRANCH   8   9
ATOM      9  N   UNL     1      44.996   2.199   9.713  0.00  0.00    +0.000 N 
ATOM     10  H   UNL     1      44.454   1.354   9.869  0.00  0.00    +0.000 HD
BRANCH   9  11
ATOM     11  C   UNL     1      45.680   2.185   8.490  0.00  0.00    +0.000 A 
ATOM     12  C   UNL     1      45.813   3.308   7.668  0.00  0.00    +0.000 A 
ATOM     13  C   UNL     1      46.584   3.256   6.505  0.00  0.00    +0.000 A 
ATOM     14  C   UNL     1      47.230   2.074   6.196  0.00  0.00    +0.000 A 
ATOM     15  N   UNL     1      47.163   0.969   6.963  0.00  0.00    +0.000 NA
ATOM     16  C   UNL     1      46.413   1.062   8.090  0.00  0.00    +0.000 A 
ENDBRANCH   9  11
ENDBRANCH   8   9
ENDBRANCH   5   8
ENDBRANCH   1   2
BRANCH   1  19
ATOM     17  O   UNL     1      49.785   6.661  15.313  0.00  0.00    +0.000 OA
ATOM     18  C   UNL     1      48.705   6.230  15.706  0.00  0.00    +0.000 C 
ATOM     19  N   UNL     1      47.590   6.196  14.910  0.00  0.00    +0.000 N 
ATOM     20  H   UNL     1      46.688   5.997  15.326  0.00  0.00    +0.000 HD
BRANCH  18  21
ATOM     21  C   UNL     1      48.553   5.663  17.053  0.00  0.00    +0.000 A 
ATOM     22  C   UNL     1      48.745   4.301  17.255  0.00  0.00    +0.000 A 
ATOM     23  S   UNL     1      48.506   3.808  18.870  0.00  0.00    +0.000 S 
ATOM     24  C   UNL     1      48.181   5.401  19.367  0.00  0.00    +0.000 A 
ATOM     25  N   UNL     1      47.923   5.686  20.673  0.00  0.00    +0.000 NA
ATOM     26  C   UNL     1      47.732   6.939  20.919  0.00  0.00    +0.000 A 
ATOM     27  N   UNL     1      47.764   7.932  19.975  0.00  0.00    +0.000 N 
ATOM     28  C   UNL     1      47.950   7.683  18.638  0.00  0.00    +0.000 A 
ATOM     29  O   UNL     1      47.846   8.580  17.809  0.00  0.00    +0.000 OA
ATOM     30  C   UNL     1      48.223   6.294  18.311  0.00  0.00    +0.000 A 
ATOM     31  H   UNL     1      47.574   8.890  20.226  0.00  0.00    +0.000 HD
ENDBRANCH  18  21
ENDBRANCH   1  19
TORSDOF 6
ENDMDL
MODEL 4
REMARK VINA RESULT:    -7.698      1.887      2.677
REMARK INTER + INTRA:         -11.412
REMARK INTER:                 -10.665
REMARK INTRA:                  -0.747
REMARK UNBOUND:                -1.015
REMARK  Name = 
REMARK  6 active torsions:
REMARK  status: ('A' for Active; 'I' for Inactive)
REMARK    1  A    between atoms: C_2  and  C_19
REMARK    2  A    between atoms: N_3  and  C_4
REMARK    3  A    between atoms: C_4  and  C_5
REMARK    4  A    between atoms: C_8  and  C_9
REMARK    5  A    between atoms: C_9  and  N_10
REMARK    6  A    between atoms: N_10  and  C_11
REMARK                            x       y       z     vdW  Elec       q    Type
REMARK                         _______ _______ _______ _____ _____    ______ ____
ROOT
ATOM      1  C   UNL     1      47.255   6.769  13.449  0.00  0.00    +0.000 C 
ENDROOT
BRANCH   1   2
ATOM      2  C   UNL     1      46.466   5.872  12.532  0.00  0.00    +0.000 A 
ATOM      3  C   UNL     1      46.065   4.604  12.969  0.00  0.00    +0.000 A 
ATOM      4  C   UNL     1      45.328   3.764  12.132  0.00  0.00    +0.000 A 
ATOM      5  C   UNL     1      45.000   4.162  10.830  0.00  0.00    +0.000 A 
ATOM      6  C   UNL     1      45.402   5.430  10.389  0.00  0.00    +0.000 A 
ATOM      7  C   UNL     1      46.137   6.273  11.230  0.00  0.00    +0.000 A 
BRANCH   5   8
ATOM      8  C   UNL     1      44.243   3.223   9.917  0.00  0.00    +0.000 C 
BRANCH   8   9
ATOM      9  N   UNL     1      45.074   2.083   9.554  0.00  0.00    +0.000 N 
ATOM     10  H   UNL     1      44.596   1.198   9.699  0.00  0.00    +0.000 HD
BRANCH   9  11
ATOM     11  C   UNL     1      45.769   2.129   8.337  0.00  0.00    +0.000 A 
ATOM     12  C   UNL     1      45.844   3.272   7.534  0.00  0.00    +0.000 A 
ATOM     13  C   UNL     1      46.627   3.283   6.379  0.00  0.00    +0.000 A 
ATOM     14  C   UNL     1      47.343   2.146   6.057  0.00  0.00    +0.000 A 
ATOM     15  N   UNL     1      47.334   1.027   6.806  0.00  0.00    +0.000 NA
ATOM     16  C   UNL     1      46.569   1.057   7.927  0.00  0.00    +0.000 A 
ENDBRANCH   9  11
ENDBRANCH   8   9
ENDBRANCH   5   8
ENDBRANCH   1   2
BRANCH   1  19
ATOM     17  O   UNL     1      48.667   7.848  15.643  0.00  0.00    +0.000 OA
ATOM     18  C   UNL     1      48.462   6.639  15.602  0.00  0.00    +0.000 C 
ATOM     19  N   UNL     1      47.811   6.036  14.558  0.00  0.00    +0.000 N 
ATOM     20  H   UNL     1      47.512   5.072  14.648  0.00  0.00    +0.000 HD
BRANCH  18  21
ATOM     21  C   UNL     1      48.958   5.744  16.656  0.00  0.00    +0.000 A 
ATOM     22  C   UNL     1      48.063   4.964  17.378  0.00  0.00    +0.000 A 
ATOM     23  S   UNL     1      48.802   4.004  18.577  0.00  0.00    +0.000 S 
ATOM     24  C   UNL     1      50.350   4.561  18.148  0.00  0.00    +0.000 A 
ATOM     25  N   UNL     1      51.461   4.095  18.783  0.00  0.00    +0.000 NA
ATOM     26  C   UNL     1      52.573   4.572  18.331  0.00  0.00    +0.000 A 
ATOM     27  N   UNL     1      52.675   5.482  17.312  0.00  0.00    +0.000 N 
ATOM     28  C   UNL     1      51.579   6.032  16.692  0.00  0.00    +0.000 A 
ATOM     29  O   UNL     1      51.706   6.935  15.874  0.00  0.00    +0.000 OA
ATOM     30  C   UNL     1      50.302   5.491  17.124  0.00  0.00    +0.000 A 
ATOM     31  H   UNL     1      53.573   5.841  17.028  0.00  0.00    +0.000 HD
ENDBRANCH  18  21
ENDBRANCH   1  19
TORSDOF 6
ENDMDL
MODEL 5
REMARK VINA RESULT:    -7.623      3.341      5.318
REMARK INTER + INTRA:         -11.312
REMARK INTER:                 -10.502
REMARK INTRA:                  -0.809
REMARK UNBOUND:                -1.015
REMARK  Name = 
REMARK  6 active torsions:
REMARK  status: ('A' for Active; 'I' for Inactive)
REMARK    1  A    between atoms: C_2  and  C_19
REMARK    2  A    between atoms: N_3  and  C_4
REMARK    3  A    between atoms: C_4  and  C_5
REMARK    4  A    between atoms: C_8  and  C_9
REMARK    5  A    between atoms: C_9  and  N_10
REMARK    6  A    between atoms: N_10  and  C_11
REMARK                            x       y       z     vdW  Elec       q    Type
REMARK                         _______ _______ _______ _____ _____    ______ ____
ROOT
ATOM      1  C   UNL     1      47.341   6.286  13.649  0.00  0.00    +0.000 C 
ENDROOT
BRANCH   1   2
ATOM      2  C   UNL     1      46.509   5.487  12.680  0.00  0.00    +0.000 A 
ATOM      3  C   UNL     1      46.079   4.201  13.023  0.00  0.00    +0.000 A 
ATOM      4  C   UNL     1      45.302   3.451  12.138  0.00  0.00    +0.000 A 
ATOM      5  C   UNL     1      44.962   3.961  10.878  0.00  0.00    +0.000 A 
ATOM      6  C   UNL     1      45.393   5.249  10.531  0.00  0.00    +0.000 A 
ATOM      7  C   UNL     1      46.169   6.000  11.421  0.00  0.00    +0.000 A 
BRANCH   5   8
ATOM      8  C   UNL     1      44.161   3.119   9.909  0.00  0.00    +0.000 C 
BRANCH   8   9
ATOM      9  N   UNL     1      44.933   1.962   9.478  0.00  0.00    +0.000 N 
ATOM     10  H   UNL     1      44.387   1.105   9.503  0.00  0.00    +0.000 HD
BRANCH   9  11
ATOM     11  C   UNL     1      45.706   2.076   8.314  0.00  0.00    +0.000 A 
ATOM     12  C   UNL     1      45.785   3.246   7.551  0.00  0.00    +0.000 A 
ATOM     13  C   UNL     1      46.643   3.327   6.453  0.00  0.00    +0.000 A 
ATOM     14  C   UNL     1      47.429   2.231   6.149  0.00  0.00    +0.000 A 
ATOM     15  N   UNL     1      47.418   1.089   6.863  0.00  0.00    +0.000 NA
ATOM     16  C   UNL     1      46.578   1.052   7.929  0.00  0.00    +0.000 A 
ENDBRANCH   9  11
ENDBRANCH   8   9
ENDBRANCH   5   8
ENDBRANCH   1   2
BRANCH   1  19
ATOM     17  O   UNL     1      49.188   7.648  12.003  0.00  0.00    +0.000 OA
ATOM     18  C   UNL     1      48.251   8.272  12.493  0.00  0.00    +0.000 C 
ATOM     19  N   UNL     1      47.331   7.690  13.325  0.00  0.00    +0.000 N 
ATOM     20  H   UNL     1      46.485   8.194  13.561  0.00  0.00    +0.000 HD
BRANCH  18  21
ATOM     21  C   UNL     1      48.088   9.713  12.259  0.00  0.00    +0.000 A 
ATOM     22  C   UNL     1      49.209  10.530  12.170  0.00  0.00    +0.000 A 
ATOM     23  S   UNL     1      48.841  12.176  11.922  0.00  0.00    +0.000 S 
ATOM     24  C   UNL     1      47.172  11.854  11.881  0.00  0.00    +0.000 A 
ATOM     25  N   UNL     1      46.272  12.853  11.664  0.00  0.00    +0.000 NA
ATOM     26  C   UNL     1      45.042  12.463  11.619  0.00  0.00    +0.000 A 
ATOM     27  N   UNL     1      44.628  11.168  11.783  0.00  0.00    +0.000 N 
ATOM     28  C   UNL     1      45.492  10.141  12.075  0.00  0.00    +0.000 A 
ATOM     29  O   UNL     1      45.072   9.020  12.340  0.00  0.00    +0.000 OA
ATOM     30  C   UNL     1      46.896  10.513  12.085  0.00  0.00    +0.000 A 
ATOM     31  H   UNL     1      43.647  10.933  11.770  0.00  0.00    +0.000 HD
ENDBRANCH  18  21
ENDBRANCH   1  19
TORSDOF 6
ENDMDL
MODEL 6
REMARK VINA RESULT:    -7.525      2.426      4.202
REMARK INTER + INTRA:         -11.179
REMARK INTER:                 -10.148
REMARK INTRA:                  -1.031
REMARK UNBOUND:                -1.015
REMARK  Name = 
REMARK  6 active torsions:
REMARK  status: ('A' for Active; 'I' for Inactive)
REMARK    1  A    between atoms: C_2  and  C_19
REMARK    2  A    between atoms: N_3  and  C_4
REMARK    3  A    between atoms: C_4  and  C_5
REMARK    4  A    between atoms: C_8  and  C_9
REMARK    5  A    between atoms: C_9  and  N_10
REMARK    6  A    between atoms: N_10  and  C_11
REMARK                            x       y       z     vdW  Elec       q    Type
REMARK                         _______ _______ _______ _____ _____    ______ ____
ROOT
ATOM      1  C   UNL     1      47.349   5.103  14.460  0.00  0.00    +0.000 C 
ENDROOT
BRANCH   1   2
ATOM      2  C   UNL     1      46.478   4.853  13.257  0.00  0.00    +0.000 A 
ATOM      3  C   UNL     1      45.923   3.586  13.047  0.00  0.00    +0.000 A 
ATOM      4  C   UNL     1      45.109   3.340  11.939  0.00  0.00    +0.000 A 
ATOM      5  C   UNL     1      44.856   4.350  11.001  0.00  0.00    +0.000 A 
ATOM      6  C   UNL     1      45.413   5.620  11.208  0.00  0.00    +0.000 A 
ATOM      7  C   UNL     1      46.225   5.865  12.321  0.00  0.00    +0.000 A 
BRANCH   5   8
ATOM      8  C   UNL     1      44.012   4.058   9.781  0.00  0.00    +0.000 C 
BRANCH   8   9
ATOM      9  N   UNL     1      44.757   4.348   8.563  0.00  0.00    +0.000 N 
ATOM     10  H   UNL     1      45.200   5.262   8.592  0.00  0.00    +0.000 HD
BRANCH   9  11
ATOM     11  C   UNL     1      45.602   3.354   8.049  0.00  0.00    +0.000 A 
ATOM     12  C   UNL     1      46.660   3.618   7.174  0.00  0.00    +0.000 A 
ATOM     13  C   UNL     1      47.523   2.599   6.768  0.00  0.00    +0.000 A 
ATOM     14  C   UNL     1      47.320   1.326   7.267  0.00  0.00    +0.000 A 
ATOM     15  N   UNL     1      46.338   1.017   8.134  0.00  0.00    +0.000 NA
ATOM     16  C   UNL     1      45.525   2.037   8.513  0.00  0.00    +0.000 A 
ENDBRANCH   9  11
ENDBRANCH   8   9
ENDBRANCH   5   8
ENDBRANCH   1   2
BRANCH   1  19
ATOM     17  O   UNL     1      49.655   6.185  15.679  0.00  0.00    +0.000 OA
ATOM     18  C   UNL     1      48.829   6.945  15.181  0.00  0.00    +0.000 C 
ATOM     19  N   UNL     1      47.672   6.500  14.599  0.00  0.00    +0.000 N 
ATOM     20  H   UNL     1      47.111   7.142  14.052  0.00  0.00    +0.000 HD
BRANCH  18  21
ATOM     21  C   UNL     1      49.007   8.403  15.231  0.00  0.00    +0.000 A 
ATOM     22  C   UNL     1      49.092   9.047  16.460  0.00  0.00    +0.000 A 
ATOM     23  S   UNL     1      49.272  10.738  16.337  0.00  0.00    +0.000 S 
ATOM     24  C   UNL     1      49.286  10.669  14.638  0.00  0.00    +0.000 A 
ATOM     25  N   UNL     1      49.447  11.798  13.894  0.00  0.00    +0.000 NA
ATOM     26  C   UNL     1      49.479  11.597  12.618  0.00  0.00    +0.000 A 
ATOM     27  N   UNL     1      49.352  10.372  12.019  0.00  0.00    +0.000 N 
ATOM     28  C   UNL     1      49.117   9.217  12.725  0.00  0.00    +0.000 A 
ATOM     29  O   UNL     1      48.883   8.162  12.148  0.00  0.00    +0.000 OA
ATOM     30  C   UNL     1      49.125   9.377  14.169  0.00  0.00    +0.000 A 
ATOM     31  H   UNL     1      49.351  10.285  11.014  0.00  0.00    +0.000 HD
ENDBRANCH  18  21
ENDBRANCH   1  19
TORSDOF 6
ENDMDL
MODEL 7
REMARK VINA RESULT:    -7.309      2.196      3.764
REMARK INTER + INTRA:         -10.888
REMARK INTER:                  -9.907
REMARK INTRA:                  -0.981
REMARK UNBOUND:                -1.015
REMARK  Name = 
REMARK  6 active torsions:
REMARK  status: ('A' for Active; 'I' for Inactive)
REMARK    1  A    between atoms: C_2  and  C_19
REMARK    2  A    between atoms: N_3  and  C_4
REMARK    3  A    between atoms: C_4  and  C_5
REMARK    4  A    between atoms: C_8  and  C_9
REMARK    5  A    between atoms: C_9  and  N_10
REMARK    6  A    between atoms: N_10  and  C_11
REMARK                            x       y       z     vdW  Elec       q    Type
REMARK                         _______ _______ _______ _____ _____    ______ ____
ROOT
ATOM      1  C   UNL     1      46.833   4.840  14.381  0.00  0.00    +0.000 C 
ENDROOT
BRANCH   1   2
ATOM      2  C   UNL     1      46.171   4.656  13.041  0.00  0.00    +0.000 A 
ATOM      3  C   UNL     1      46.184   5.698  12.106  0.00  0.00    +0.000 A 
ATOM      4  C   UNL     1      45.579   5.541  10.857  0.00  0.00    +0.000 A 
ATOM      5  C   UNL     1      44.924   4.347  10.527  0.00  0.00    +0.000 A 
ATOM      6  C   UNL     1      44.907   3.303  11.462  0.00  0.00    +0.000 A 
ATOM      7  C   UNL     1      45.517   3.461  12.711  0.00  0.00    +0.000 A 
BRANCH   5   8
ATOM      8  C   UNL     1      44.232   4.207   9.189  0.00  0.00    +0.000 C 
BRANCH   8   9
ATOM      9  N   UNL     1      44.358   2.845   8.688  0.00  0.00    +0.000 N 
ATOM     10  H   UNL     1      43.490   2.502   8.286  0.00  0.00    +0.000 HD
BRANCH   9  11
ATOM     11  C   UNL     1      45.478   2.526   7.908  0.00  0.00    +0.000 A 
ATOM     12  C   UNL     1      46.080   3.421   7.019  0.00  0.00    +0.000 A 
ATOM     13  C   UNL     1      47.249   3.075   6.338  0.00  0.00    +0.000 A 
ATOM     14  C   UNL     1      47.809   1.835   6.579  0.00  0.00    +0.000 A 
ATOM     15  N   UNL     1      47.293   0.944   7.446  0.00  0.00    +0.000 NA
ATOM     16  C   UNL     1      46.162   1.320   8.096  0.00  0.00    +0.000 A 
ENDBRANCH   9  11
ENDBRANCH   8   9
ENDBRANCH   5   8
ENDBRANCH   1   2
BRANCH   1  19
ATOM     17  O   UNL     1      48.776   5.438  16.341  0.00  0.00    +0.000 OA
ATOM     18  C   UNL     1      48.685   6.158  15.351  0.00  0.00    +0.000 C 
ATOM     19  N   UNL     1      47.749   5.952  14.371  0.00  0.00    +0.000 N 
ATOM     20  H   UNL     1      47.824   6.458  13.497  0.00  0.00    +0.000 HD
BRANCH  18  21
ATOM     21  C   UNL     1      49.548   7.335  15.181  0.00  0.00    +0.000 A 
ATOM     22  C   UNL     1      50.879   7.279  15.576  0.00  0.00    +0.000 A 
ATOM     23  S   UNL     1      51.730   8.736  15.332  0.00  0.00    +0.000 S 
ATOM     24  C   UNL     1      50.364   9.483  14.648  0.00  0.00    +0.000 A 
ATOM     25  N   UNL     1      50.425  10.762  14.185  0.00  0.00    +0.000 NA
ATOM     26  C   UNL     1      49.329  11.192  13.656  0.00  0.00    +0.000 A 
ATOM     27  N   UNL     1      48.173  10.463  13.558  0.00  0.00    +0.000 N 
ATOM     28  C   UNL     1      48.044   9.197  14.074  0.00  0.00    +0.000 A 
ATOM     29  O   UNL     1      46.959   8.627  14.080  0.00  0.00    +0.000 OA
ATOM     30  C   UNL     1      49.265   8.643  14.634  0.00  0.00    +0.000 A 
ATOM     31  H   UNL     1      47.338  10.869  13.163  0.00  0.00    +0.000 HD
ENDBRANCH  18  21
ENDBRANCH   1  19
TORSDOF 6
ENDMDL
MODEL 8
REMARK VINA RESULT:    -7.065      2.522      3.187
REMARK INTER + INTRA:         -10.558
REMARK INTER:                  -9.835
REMARK INTRA:                  -0.723
REMARK UNBOUND:                -1.015
REMARK  Name = 
REMARK  6 active torsions:
REMARK  status: ('A' for Active; 'I' for Inactive)
REMARK    1  A    between atoms: C_2  and  C_19
REMARK    2  A    between atoms: N_3  and  C_4
REMARK    3  A    between atoms: C_4  and  C_5
REMARK    4  A    between atoms: C_8  and  C_9
REMARK    5  A    between atoms: C_9  and  N_10
REMARK    6  A    between atoms: N_10  and  C_11
REMARK                            x       y       z     vdW  Elec       q    Type
REMARK                         _______ _______ _______ _____ _____    ______ ____
ROOT
ATOM      1  C   UNL     1      47.049   4.210  14.825  0.00  0.00    +0.000 C 
ENDROOT
BRANCH   1   2
ATOM      2  C   UNL     1      46.391   4.326  13.476  0.00  0.00    +0.000 A 
ATOM      3  C   UNL     1      46.458   5.531  12.766  0.00  0.00    +0.000 A 
ATOM      4  C   UNL     1      45.857   5.652  11.512  0.00  0.00    +0.000 A 
ATOM      5  C   UNL     1      45.151   4.580  10.952  0.00  0.00    +0.000 A 
ATOM      6  C   UNL     1      45.080   3.373  11.661  0.00  0.00    +0.000 A 
ATOM      7  C   UNL     1      45.686   3.252  12.917  0.00  0.00    +0.000 A 
BRANCH   5   8
ATOM      8  C   UNL     1      44.464   4.740   9.614  0.00  0.00    +0.000 C 
BRANCH   8   9
ATOM      9  N   UNL     1      44.202   3.438   9.015  0.00  0.00    +0.000 N 
ATOM     10  H   UNL     1      43.310   3.413   8.528  0.00  0.00    +0.000 HD
BRANCH   9  11
ATOM     11  C   UNL     1      45.231   2.821   8.291  0.00  0.00    +0.000 A 
ATOM     12  C   UNL     1      46.083   3.509   7.421  0.00  0.00    +0.000 A 
ATOM     13  C   UNL     1      47.149   2.856   6.799  0.00  0.00    +0.000 A 
ATOM     14  C   UNL     1      47.354   1.518   7.077  0.00  0.00    +0.000 A 
ATOM     15  N   UNL     1      46.586   0.811   7.927  0.00  0.00    +0.000 NA
ATOM     16  C   UNL     1      45.567   1.483   8.521  0.00  0.00    +0.000 A 
ENDBRANCH   9  11
ENDBRANCH   8   9
ENDBRANCH   5   8
ENDBRANCH   1   2
BRANCH   1  19
ATOM     17  O   UNL     1      48.608   4.660  17.136  0.00  0.00    +0.000 OA
ATOM     18  C   UNL     1      48.389   5.595  16.372  0.00  0.00    +0.000 C 
ATOM     19  N   UNL     1      47.619   5.465  15.247  0.00  0.00    +0.000 N 
ATOM     20  H   UNL     1      47.610   6.209  14.560  0.00  0.00    +0.000 HD
BRANCH  18  21
ATOM     21  C   UNL     1      48.901   6.945  16.650  0.00  0.00    +0.000 A 
ATOM     22  C   UNL     1      49.796   7.539  15.769  0.00  0.00    +0.000 A 
ATOM     23  S   UNL     1      50.307   9.092  16.255  0.00  0.00    +0.000 S 
ATOM     24  C   UNL     1      49.319   9.045  17.638  0.00  0.00    +0.000 A 
ATOM     25  N   UNL     1      49.261  10.105  18.492  0.00  0.00    +0.000 NA
ATOM     26  C   UNL     1      48.442   9.951  19.478  0.00  0.00    +0.000 A 
ATOM     27  N   UNL     1      47.685   8.831  19.696  0.00  0.00    +0.000 N 
ATOM     28  C   UNL     1      47.764   7.712  18.902  0.00  0.00    +0.000 A 
ATOM     29  O   UNL     1      47.167   6.685  19.202  0.00  0.00    +0.000 OA
ATOM     30  C   UNL     1      48.631   7.849  17.745  0.00  0.00    +0.000 A 
ATOM     31  H   UNL     1      47.088   8.759  20.506  0.00  0.00    +0.000 HD
ENDBRANCH  18  21
ENDBRANCH   1  19
TORSDOF 6
ENDMDL
MODEL 9
REMARK VINA RESULT:    -6.877      3.525      4.390
REMARK INTER + INTRA:         -10.303
REMARK INTER:                  -9.049
REMARK INTRA:                  -1.254
REMARK UNBOUND:                -1.015
REMARK  Name = 
REMARK  6 active torsions:
REMARK  status: ('A' for Active; 'I' for Inactive)
REMARK    1  A    between atoms: C_2  and  C_19
REMARK    2  A    between atoms: N_3  and  C_4
REMARK    3  A    between atoms: C_4  and  C_5
REMARK    4  A    between atoms: C_8  and  C_9
REMARK    5  A    between atoms: C_9  and  N_10
REMARK    6  A    between atoms: N_10  and  C_11
REMARK                            x       y       z     vdW  Elec       q    Type
REMARK                         _______ _______ _______ _____ _____    ______ ____
ROOT
ATOM      1  C   UNL     1      45.844   8.757  12.942  0.00  0.00    +0.000 C 
ENDROOT
BRANCH   1   2
ATOM      2  C   UNL     1      45.532   7.353  12.496  0.00  0.00    +0.000 A 
ATOM      3  C   UNL     1      44.579   7.133  11.494  0.00  0.00    +0.000 A 
ATOM      4  C   UNL     1      44.284   5.837  11.066  0.00  0.00    +0.000 A 
ATOM      5  C   UNL     1      44.914   4.731  11.651  0.00  0.00    +0.000 A 
ATOM      6  C   UNL     1      45.867   4.948  12.656  0.00  0.00    +0.000 A 
ATOM      7  C   UNL     1      46.165   6.247  13.081  0.00  0.00    +0.000 A 
BRANCH   5   8
ATOM      8  C   UNL     1      44.549   3.330  11.211  0.00  0.00    +0.000 C 
BRANCH   8   9
ATOM      9  N   UNL     1      44.124   3.326   9.818  0.00  0.00    +0.000 N 
ATOM     10  H   UNL     1      43.580   4.152   9.581  0.00  0.00    +0.000 HD
BRANCH   9  11
ATOM     11  C   UNL     1      45.069   3.001   8.836  0.00  0.00    +0.000 A 
ATOM     12  C   UNL     1      45.652   3.943   7.983  0.00  0.00    +0.000 A 
ATOM     13  C   UNL     1      46.655   3.572   7.086  0.00  0.00    +0.000 A 
ATOM     14  C   UNL     1      47.075   2.256   7.075  0.00  0.00    +0.000 A 
ATOM     15  N   UNL     1      46.573   1.310   7.892  0.00  0.00    +0.000 NA
ATOM     16  C   UNL     1      45.606   1.712   8.757  0.00  0.00    +0.000 A 
ENDBRANCH   9  11
ENDBRANCH   8   9
ENDBRANCH   5   8
ENDBRANCH   1   2
BRANCH   1  19
ATOM     17  O   UNL     1      47.769   8.973  14.996  0.00  0.00    +0.000 OA
ATOM     18  C   UNL     1      48.120   9.126  13.830  0.00  0.00    +0.000 C 
ATOM     19  N   UNL     1      47.242   9.066  12.781  0.00  0.00    +0.000 N 
ATOM     20  H   UNL     1      47.600   9.023  11.834  0.00  0.00    +0.000 HD
BRANCH  18  21
ATOM     21  C   UNL     1      49.514   9.442  13.488  0.00  0.00    +0.000 A 
ATOM     22  C   UNL     1      50.171  10.472  14.150  0.00  0.00    +0.000 A 
ATOM     23  S   UNL     1      51.770  10.721  13.614  0.00  0.00    +0.000 S 
ATOM     24  C   UNL     1      51.659   9.435  12.508  0.00  0.00    +0.000 A 
ATOM     25  N   UNL     1      52.723   9.086  11.732  0.00  0.00    +0.000 NA
ATOM     26  C   UNL     1      52.514   8.068  10.966  0.00  0.00    +0.000 A 
ATOM     27  N   UNL     1      51.334   7.376  10.894  0.00  0.00    +0.000 N 
ATOM     28  C   UNL     1      50.215   7.735  11.604  0.00  0.00    +0.000 A 
ATOM     29  O   UNL     1      49.143   7.170  11.418  0.00  0.00    +0.000 OA
ATOM     30  C   UNL     1      50.409   8.843  12.524  0.00  0.00    +0.000 A 
ATOM     31  H   UNL     1      51.224   6.609  10.249  0.00  0.00    +0.000 HD
ENDBRANCH  18  21
ENDBRANCH   1  19
TORSDOF 6
ENDMDL
