MODEL 1
REMARK VINA RESULT:    -7.878      0.000      0.000
REMARK INTER + INTRA:         -12.804
REMARK INTER:                 -11.793
REMARK INTRA:                  -1.011
REMARK UNBOUND:                -1.011
REMARK  Name = 
REMARK  9 active torsions:
REMARK  status: ('A' for Active; 'I' for Inactive)
REMARK    1  A    between atoms: C_2  and  C_13
REMARK    2  A    between atoms: N_3  and  CA_4
REMARK    3  A    between atoms: CA_4  and  C_5
REMARK    4  A    between atoms: CA_4  and  C_7
REMARK    5  A    between atoms: C_5  and  O_6
REMARK    6  A    between atoms: C_16  and  C_17
REMARK    7  A    between atoms: C_17  and  N_18
REMARK    8  A    between atoms: N_18  and  C_19
REMARK    9  A    between atoms: C_19  and  C_20
REMARK                            x       y       z     vdW  Elec       q    Type
REMARK                         _______ _______ _______ _____ _____    ______ ____
ROOT
ATOM      1  C   UNL     1      46.985   5.865  13.089  0.00  0.00    +0.000 A 
ATOM      2  C   UNL     1      46.069   4.889  13.494  0.00  0.00    +0.000 A 
ATOM      3  C   UNL     1      44.992   4.553  12.672  0.00  0.00    +0.000 A 
ATOM      4  C   UNL     1      44.814   5.189  11.434  0.00  0.00    +0.000 A 
ATOM      5  C   UNL     1      45.758   6.140  11.018  0.00  0.00    +0.000 A 
ATOM      6  C   UNL     1      46.841   6.475  11.837  0.00  0.00    +0.000 A 
ENDROOT
BRANCH   1   8
ATOM      7  O   UNL     1      49.177   6.593  13.581  0.00  0.00    +0.000 OA
ATOM      8  C   UNL     1      48.097   6.209  14.017  0.00  0.00    +0.000 C 
ATOM      9  N   UNL     1      47.848   6.027  15.356  0.00  0.00    +0.000 N 
ATOM     10  H   UNL     1      47.043   5.490  15.644  0.00  0.00    +0.000 HD
BRANCH   9  11
ATOM     11  CA  UNL     1      48.878   6.240  16.366  0.00  0.00    +0.000 C 
BRANCH  11  12
ATOM     12  C   UNL     1      48.490   7.437  17.218  0.00  0.00    +0.000 A 
ATOM     13  C   UNL     1      48.486   8.721  16.654  0.00  0.00    +0.000 A 
ATOM     14  C   UNL     1      48.049   9.823  17.394  0.00  0.00    +0.000 A 
ATOM     15  C   UNL     1      47.606   9.653  18.704  0.00  0.00    +0.000 A 
ATOM     16  C   UNL     1      47.613   8.388  19.283  0.00  0.00    +0.000 A 
ATOM     17  C   UNL     1      48.055   7.288  18.547  0.00  0.00    +0.000 A 
ENDBRANCH  11  12
BRANCH  11  18
ATOM     18  C   UNL     1      49.174   4.951  17.169  0.00  0.00    +0.000 C 
BRANCH  18  19
ATOM     19  O   UNL     1      48.793   3.768  16.457  0.00  0.00    +0.000 OA
ATOM     20  H   UNL     1      47.914   3.937  16.079  0.00  0.00    +0.000 HD
ENDBRANCH  18  19
ENDBRANCH  11  18
ENDBRANCH   9  11
ENDBRANCH   1   8
BRANCH   4  21
ATOM     21  C   UNL     1      43.625   4.858  10.559  0.00  0.00    +0.000 C 
BRANCH  21  22
ATOM     22  N   UNL     1      43.967   4.244   9.276  0.00  0.00    +0.000 NA
ATOM     23  H   UNL     1      44.722   4.766   8.833  0.00  0.00    +0.000 HD
BRANCH  22  24
ATOM     24  C   UNL     1      44.420   2.855   9.414  0.00  0.00    +0.000 C 
BRANCH  24  25
ATOM     25  C   UNL     1      45.518   2.532   8.418  0.00  0.00    +0.000 A 
ATOM     26  C   UNL     1      46.024   3.525   7.584  0.00  0.00    +0.000 A 
ATOM     27  C   UNL     1      47.036   3.196   6.686  0.00  0.00    +0.000 A 
ATOM     28  C   UNL     1      47.524   1.895   6.656  0.00  0.00    +0.000 A 
ATOM     29  C   UNL     1      46.981   0.972   7.533  0.00  0.00    +0.000 A 
ATOM     30  N   UNL     1      45.995   1.258   8.411  0.00  0.00    +0.000 NA
ENDBRANCH  24  25
ENDBRANCH  22  24
ENDBRANCH  21  22
ENDBRANCH   4  21
TORSDOF 9
ENDMDL
MODEL 2
REMARK VINA RESULT:    -7.820      0.795      1.617
REMARK INTER + INTRA:         -12.718
REMARK INTER:                 -11.743
REMARK INTRA:                  -0.975
REMARK UNBOUND:                -1.011
REMARK  Name = 
REMARK  9 active torsions:
REMARK  status: ('A' for Active; 'I' for Inactive)
REMARK    1  A    between atoms: C_2  and  C_13
REMARK    2  A    between atoms: N_3  and  CA_4
REMARK    3  A    between atoms: CA_4  and  C_5
REMARK    4  A    between atoms: CA_4  and  C_7
REMARK    5  A    between atoms: C_5  and  O_6
REMARK    6  A    between atoms: C_16  and  C_17
REMARK    7  A    between atoms: C_17  and  N_18
REMARK    8  A    between atoms: N_18  and  C_19
REMARK    9  A    between atoms: C_19  and  C_20
REMARK                            x       y       z     vdW  Elec       q    Type
REMARK                         _______ _______ _______ _____ _____    ______ ____
ROOT
ATOM      1  C   UNL     1      46.614   5.444  13.388  0.00  0.00    +0.000 A 
ATOM      2  C   UNL     1      46.721   6.143  12.182  0.00  0.00    +0.000 A 
ATOM      3  C   UNL     1      45.734   6.013  11.203  0.00  0.00    +0.000 A 
ATOM      4  C   UNL     1      44.624   5.181  11.417  0.00  0.00    +0.000 A 
ATOM      5  C   UNL     1      44.504   4.511  12.644  0.00  0.00    +0.000 A 
ATOM      6  C   UNL     1      45.489   4.644  13.627  0.00  0.00    +0.000 A 
ENDROOT
BRANCH   1   8
ATOM      7  O   UNL     1      48.761   6.145  14.075  0.00  0.00    +0.000 OA
ATOM      8  C   UNL     1      47.710   5.592  14.383  0.00  0.00    +0.000 C 
ATOM      9  N   UNL     1      47.484   5.042  15.621  0.00  0.00    +0.000 N 
ATOM     10  H   UNL     1      46.716   4.400  15.747  0.00  0.00    +0.000 HD
BRANCH   9  11
ATOM     11  CA  UNL     1      48.508   5.038  16.660  0.00  0.00    +0.000 C 
BRANCH  11  12
ATOM     12  C   UNL     1      48.186   6.125  17.672  0.00  0.00    +0.000 A 
ATOM     13  C   UNL     1      47.574   5.786  18.887  0.00  0.00    +0.000 A 
ATOM     14  C   UNL     1      47.349   6.756  19.867  0.00  0.00    +0.000 A 
ATOM     15  C   UNL     1      47.737   8.076  19.645  0.00  0.00    +0.000 A 
ATOM     16  C   UNL     1      48.337   8.432  18.441  0.00  0.00    +0.000 A 
ATOM     17  C   UNL     1      48.555   7.465  17.460  0.00  0.00    +0.000 A 
ENDBRANCH  11  12
BRANCH  11  18
ATOM     18  C   UNL     1      48.703   3.630  17.273  0.00  0.00    +0.000 C 
BRANCH  18  19
ATOM     19  O   UNL     1      49.119   2.668  16.297  0.00  0.00    +0.000 OA
ATOM     20  H   UNL     1      48.387   2.038  16.190  0.00  0.00    +0.000 HD
ENDBRANCH  18  19
ENDBRANCH  11  18
ENDBRANCH   9  11
ENDBRANCH   1   8
BRANCH   4  21
ATOM     21  C   UNL     1      43.573   5.005  10.343  0.00  0.00    +0.000 C 
BRANCH  21  22
ATOM     22  N   UNL     1      44.060   4.382   9.112  0.00  0.00    +0.000 NA
ATOM     23  H   UNL     1      44.905   4.855   8.796  0.00  0.00    +0.000 HD
BRANCH  22  24
ATOM     24  C   UNL     1      44.394   2.964   9.288  0.00  0.00    +0.000 C 
BRANCH  24  25
ATOM     25  C   UNL     1      45.549   2.554   8.393  0.00  0.00    +0.000 A 
ATOM     26  C   UNL     1      46.198   3.502   7.606  0.00  0.00    +0.000 A 
ATOM     27  C   UNL     1      47.258   3.094   6.801  0.00  0.00    +0.000 A 
ATOM     28  C   UNL     1      47.650   1.761   6.814  0.00  0.00    +0.000 A 
ATOM     29  C   UNL     1      46.965   0.886   7.640  0.00  0.00    +0.000 A 
ATOM     30  N   UNL     1      45.929   1.249   8.428  0.00  0.00    +0.000 NA
ENDBRANCH  24  25
ENDBRANCH  22  24
ENDBRANCH  21  22
ENDBRANCH   4  21
TORSDOF 9
ENDMDL
MODEL 3
REMARK VINA RESULT:    -7.632      2.157      3.170
REMARK INTER + INTRA:         -12.436
REMARK INTER:                 -11.792
REMARK INTRA:                  -0.644
REMARK UNBOUND:                -1.011
REMARK  Name = 
REMARK  9 active torsions:
REMARK  status: ('A' for Active; 'I' for Inactive)
REMARK    1  A    between atoms: C_2  and  C_13
REMARK    2  A    between atoms: N_3  and  CA_4
REMARK    3  A    between atoms: CA_4  and  C_5
REMARK    4  A    between atoms: CA_4  and  C_7
REMARK    5  A    between atoms: C_5  and  O_6
REMARK    6  A    between atoms: C_16  and  C_17
REMARK    7  A    between atoms: C_17  and  N_18
REMARK    8  A    between atoms: N_18  and  C_19
REMARK    9  A    between atoms: C_19  and  C_20
REMARK                            x       y       z     vdW  Elec       q    Type
REMARK                         _______ _______ _______ _____ _____    ______ ____
ROOT
ATOM      1  C   UNL     1      46.809   4.546  13.886  0.00  0.00    +0.000 A 
ATOM      2  C   UNL     1      45.941   3.720  13.164  0.00  0.00    +0.000 A 
ATOM      3  C   UNL     1      45.353   4.180  11.984  0.00  0.00    +0.000 A 
ATOM      4  C   UNL     1      45.623   5.473  11.510  0.00  0.00    +0.000 A 
ATOM      5  C   UNL     1      46.523   6.282  12.220  0.00  0.00    +0.000 A 
ATOM      6  C   UNL     1      47.118   5.822  13.399  0.00  0.00    +0.000 A 
ENDROOT
BRANCH   1   8
ATOM      7  O   UNL     1      47.729   2.845  15.241  0.00  0.00    +0.000 OA
ATOM      8  C   UNL     1      47.383   4.018  15.155  0.00  0.00    +0.000 C 
ATOM      9  N   UNL     1      47.451   4.903  16.203  0.00  0.00    +0.000 N 
ATOM     10  H   UNL     1      46.940   5.772  16.155  0.00  0.00    +0.000 HD
BRANCH   9  11
ATOM     11  CA  UNL     1      47.909   4.494  17.526  0.00  0.00    +0.000 C 
BRANCH  11  12
ATOM     12  C   UNL     1      49.424   4.378  17.508  0.00  0.00    +0.000 A 
ATOM     13  C   UNL     1      50.208   5.529  17.347  0.00  0.00    +0.000 A 
ATOM     14  C   UNL     1      51.601   5.457  17.415  0.00  0.00    +0.000 A 
ATOM     15  C   UNL     1      52.227   4.234  17.649  0.00  0.00    +0.000 A 
ATOM     16  C   UNL     1      51.465   3.080  17.801  0.00  0.00    +0.000 A 
ATOM     17  C   UNL     1      50.073   3.151  17.727  0.00  0.00    +0.000 A 
ENDBRANCH  11  12
BRANCH  11  18
ATOM     18  C   UNL     1      47.350   5.412  18.640  0.00  0.00    +0.000 C 
BRANCH  18  19
ATOM     19  O   UNL     1      47.775   5.001  19.944  0.00  0.00    +0.000 OA
ATOM     20  H   UNL     1      47.381   4.129  20.109  0.00  0.00    +0.000 HD
ENDBRANCH  18  19
ENDBRANCH  11  18
ENDBRANCH   9  11
ENDBRANCH   1   8
BRANCH   4  21
ATOM     21  C   UNL     1      44.956   5.990  10.255  0.00  0.00    +0.000 C 
BRANCH  21  22
ATOM     22  N   UNL     1      45.462   5.406   9.012  0.00  0.00    +0.000 NA
ATOM     23  H   UNL     1      46.457   5.205   9.106  0.00  0.00    +0.000 HD
BRANCH  22  24
ATOM     24  C   UNL     1      44.793   4.147   8.663  0.00  0.00    +0.000 C 
BRANCH  24  25
ATOM     25  C   UNL     1      45.729   3.214   7.918  0.00  0.00    +0.000 A 
ATOM     26  C   UNL     1      45.925   1.910   8.367  0.00  0.00    +0.000 A 
ATOM     27  C   UNL     1      46.786   1.078   7.657  0.00  0.00    +0.000 A 
ATOM     28  C   UNL     1      47.412   1.561   6.515  0.00  0.00    +0.000 A 
ATOM     29  C   UNL     1      47.148   2.862   6.124  0.00  0.00    +0.000 A 
ATOM     30  N   UNL     1      46.323   3.697   6.795  0.00  0.00    +0.000 NA
ENDBRANCH  24  25
ENDBRANCH  22  24
ENDBRANCH  21  22
ENDBRANCH   4  21
TORSDOF 9
ENDMDL
MODEL 4
REMARK VINA RESULT:    -7.359      2.361      9.246
REMARK INTER + INTRA:         -12.028
REMARK INTER:                 -11.082
REMARK INTRA:                  -0.945
REMARK UNBOUND:                -1.011
REMARK  Name = 
REMARK  9 active torsions:
REMARK  status: ('A' for Active; 'I' for Inactive)
REMARK    1  A    between atoms: C_2  and  C_13
REMARK    2  A    between atoms: N_3  and  CA_4
REMARK    3  A    between atoms: CA_4  and  C_5
REMARK    4  A    between atoms: CA_4  and  C_7
REMARK    5  A    between atoms: C_5  and  O_6
REMARK    6  A    between atoms: C_16  and  C_17
REMARK    7  A    between atoms: C_17  and  N_18
REMARK    8  A    between atoms: N_18  and  C_19
REMARK    9  A    between atoms: C_19  and  C_20
REMARK                            x       y       z     vdW  Elec       q    Type
REMARK                         _______ _______ _______ _____ _____    ______ ____
ROOT
ATOM      1  C   UNL     1      45.453   6.522  11.914  0.00  0.00    +0.000 A 
ATOM      2  C   UNL     1      46.596   5.987  12.516  0.00  0.00    +0.000 A 
ATOM      3  C   UNL     1      47.421   6.796  13.301  0.00  0.00    +0.000 A 
ATOM      4  C   UNL     1      47.115   8.151  13.493  0.00  0.00    +0.000 A 
ATOM      5  C   UNL     1      45.947   8.672  12.916  0.00  0.00    +0.000 A 
ATOM      6  C   UNL     1      45.116   7.863  12.134  0.00  0.00    +0.000 A 
ENDROOT
BRANCH   1   8
ATOM      7  O   UNL     1      43.425   5.827  10.924  0.00  0.00    +0.000 OA
ATOM      8  C   UNL     1      44.627   5.624  11.061  0.00  0.00    +0.000 C 
ATOM      9  N   UNL     1      45.280   4.558  10.491  0.00  0.00    +0.000 N 
ATOM     10  H   UNL     1      46.198   4.302  10.823  0.00  0.00    +0.000 HD
BRANCH   9  11
ATOM     11  CA  UNL     1      44.573   3.553   9.707  0.00  0.00    +0.000 C 
BRANCH  11  12
ATOM     12  C   UNL     1      45.504   3.030   8.625  0.00  0.00    +0.000 A 
ATOM     13  C   UNL     1      45.867   1.675   8.615  0.00  0.00    +0.000 A 
ATOM     14  C   UNL     1      46.650   1.156   7.582  0.00  0.00    +0.000 A 
ATOM     15  C   UNL     1      47.074   1.982   6.543  0.00  0.00    +0.000 A 
ATOM     16  C   UNL     1      46.731   3.330   6.542  0.00  0.00    +0.000 A 
ATOM     17  C   UNL     1      45.954   3.851   7.578  0.00  0.00    +0.000 A 
ENDBRANCH  11  12
BRANCH  11  18
ATOM     18  C   UNL     1      43.950   2.455  10.602  0.00  0.00    +0.000 C 
BRANCH  18  19
ATOM     19  O   UNL     1      42.834   2.940  11.358  0.00  0.00    +0.000 OA
ATOM     20  H   UNL     1      42.849   2.477  12.212  0.00  0.00    +0.000 HD
ENDBRANCH  18  19
ENDBRANCH  11  18
ENDBRANCH   9  11
ENDBRANCH   1   8
BRANCH   4  21
ATOM     21  C   UNL     1      48.028   9.041  14.308  0.00  0.00    +0.000 C 
BRANCH  21  22
ATOM     22  N   UNL     1      47.674   9.140  15.725  0.00  0.00    +0.000 NA
ATOM     23  H   UNL     1      46.886   8.526  15.928  0.00  0.00    +0.000 HD
BRANCH  22  24
ATOM     24  C   UNL     1      48.774   8.748  16.613  0.00  0.00    +0.000 C 
BRANCH  24  25
ATOM     25  C   UNL     1      48.464   7.450  17.334  0.00  0.00    +0.000 A 
ATOM     26  C   UNL     1      47.924   7.471  18.618  0.00  0.00    +0.000 A 
ATOM     27  C   UNL     1      47.646   6.262  19.249  0.00  0.00    +0.000 A 
ATOM     28  C   UNL     1      47.897   5.070  18.580  0.00  0.00    +0.000 A 
ATOM     29  C   UNL     1      48.416   5.136  17.298  0.00  0.00    +0.000 A 
ATOM     30  N   UNL     1      48.703   6.293  16.661  0.00  0.00    +0.000 NA
ENDBRANCH  24  25
ENDBRANCH  22  24
ENDBRANCH  21  22
ENDBRANCH   4  21
TORSDOF 9
ENDMDL
MODEL 5
REMARK VINA RESULT:    -7.325      2.494      8.904
REMARK INTER + INTRA:         -11.976
REMARK INTER:                 -10.837
REMARK INTRA:                  -1.139
REMARK UNBOUND:                -1.011
REMARK  Name = 
REMARK  9 active torsions:
REMARK  status: ('A' for Active; 'I' for Inactive)
REMARK    1  A    between atoms: C_2  and  C_13
REMARK    2  A    between atoms: N_3  and  CA_4
REMARK    3  A    between atoms: CA_4  and  C_5
REMARK    4  A    between atoms: CA_4  and  C_7
REMARK    5  A    between atoms: C_5  and  O_6
REMARK    6  A    between atoms: C_16  and  C_17
REMARK    7  A    between atoms: C_17  and  N_18
REMARK    8  A    between atoms: N_18  and  C_19
REMARK    9  A    between atoms: C_19  and  C_20
REMARK                            x       y       z     vdW  Elec       q    Type
REMARK                         _______ _______ _______ _____ _____    ______ ____
ROOT
ATOM      1  C   UNL     1      45.846   6.368  12.109  0.00  0.00    +0.000 A 
ATOM      2  C   UNL     1      45.529   7.685  12.457  0.00  0.00    +0.000 A 
ATOM      3  C   UNL     1      46.366   8.407  13.310  0.00  0.00    +0.000 A 
ATOM      4  C   UNL     1      47.531   7.821  13.828  0.00  0.00    +0.000 A 
ATOM      5  C   UNL     1      47.862   6.513  13.445  0.00  0.00    +0.000 A 
ATOM      6  C   UNL     1      47.028   5.790  12.587  0.00  0.00    +0.000 A 
ENDROOT
BRANCH   1   8
ATOM      7  O   UNL     1      43.747   6.019  11.085  0.00  0.00    +0.000 OA
ATOM      8  C   UNL     1      44.902   5.633  11.222  0.00  0.00    +0.000 C 
ATOM      9  N   UNL     1      45.393   4.498  10.623  0.00  0.00    +0.000 N 
ATOM     10  H   UNL     1      46.258   4.096  10.952  0.00  0.00    +0.000 HD
BRANCH   9  11
ATOM     11  CA  UNL     1      44.551   3.636   9.803  0.00  0.00    +0.000 C 
BRANCH  11  12
ATOM     12  C   UNL     1      45.388   3.066   8.669  0.00  0.00    +0.000 A 
ATOM     13  C   UNL     1      45.841   3.912   7.646  0.00  0.00    +0.000 A 
ATOM     14  C   UNL     1      46.683   3.427   6.643  0.00  0.00    +0.000 A 
ATOM     15  C   UNL     1      47.086   2.093   6.652  0.00  0.00    +0.000 A 
ATOM     16  C   UNL     1      46.638   1.238   7.654  0.00  0.00    +0.000 A 
ATOM     17  C   UNL     1      45.791   1.720   8.653  0.00  0.00    +0.000 A 
ENDBRANCH  11  12
BRANCH  11  18
ATOM     18  C   UNL     1      43.813   2.572  10.651  0.00  0.00    +0.000 C 
BRANCH  18  19
ATOM     19  O   UNL     1      42.768   3.143  11.447  0.00  0.00    +0.000 OA
ATOM     20  H   UNL     1      43.195   3.708  12.113  0.00  0.00    +0.000 HD
ENDBRANCH  18  19
ENDBRANCH  11  18
ENDBRANCH   9  11
ENDBRANCH   1   8
BRANCH   4  21
ATOM     21  C   UNL     1      48.419   8.586  14.786  0.00  0.00    +0.000 C 
BRANCH  21  22
ATOM     22  N   UNL     1      49.392   7.761  15.503  0.00  0.00    +0.000 NA
ATOM     23  H   UNL     1      50.262   8.280  15.624  0.00  0.00    +0.000 HD
BRANCH  22  24
ATOM     24  C   UNL     1      48.928   7.368  16.838  0.00  0.00    +0.000 C 
BRANCH  24  25
ATOM     25  C   UNL     1      49.079   5.874  17.056  0.00  0.00    +0.000 A 
ATOM     26  C   UNL     1      47.990   5.025  16.878  0.00  0.00    +0.000 A 
ATOM     27  C   UNL     1      48.164   3.658  17.080  0.00  0.00    +0.000 A 
ATOM     28  C   UNL     1      49.417   3.177  17.438  0.00  0.00    +0.000 A 
ATOM     29  C   UNL     1      50.452   4.085  17.575  0.00  0.00    +0.000 A 
ATOM     30  N   UNL     1      50.315   5.417  17.392  0.00  0.00    +0.000 NA
ENDBRANCH  24  25
ENDBRANCH  22  24
ENDBRANCH  21  22
ENDBRANCH   4  21
TORSDOF 9
ENDMDL
MODEL 6
REMARK VINA RESULT:    -7.037      2.172      2.857
REMARK INTER + INTRA:         -11.545
REMARK INTER:                 -10.526
REMARK INTRA:                  -1.019
REMARK UNBOUND:                -1.011
REMARK  Name = 
REMARK  9 active torsions:
REMARK  status: ('A' for Active; 'I' for Inactive)
REMARK    1  A    between atoms: C_2  and  C_13
REMARK    2  A    between atoms: N_3  and  CA_4
REMARK    3  A    between atoms: CA_4  and  C_5
REMARK    4  A    between atoms: CA_4  and  C_7
REMARK    5  A    between atoms: C_5  and  O_6
REMARK    6  A    between atoms: C_16  and  C_17
REMARK    7  A    between atoms: C_17  and  N_18
REMARK    8  A    between atoms: N_18  and  C_19
REMARK    9  A    between atoms: C_19  and  C_20
REMARK                            x       y       z     vdW  Elec       q    Type
REMARK                         _______ _______ _______ _____ _____    ______ ____
ROOT
ATOM      1  C   UNL     1      46.305   6.432  12.842  0.00  0.00    +0.000 A 
ATOM      2  C   UNL     1      45.703   6.744  11.619  0.00  0.00    +0.000 A 
ATOM      3  C   UNL     1      44.796   5.857  11.035  0.00  0.00    +0.000 A 
ATOM      4  C   UNL     1      44.479   4.645  11.666  0.00  0.00    +0.000 A 
ATOM      5  C   UNL     1      45.059   4.355  12.911  0.00  0.00    +0.000 A 
ATOM      6  C   UNL     1      45.963   5.244  13.500  0.00  0.00    +0.000 A 
ENDROOT
BRANCH   1   8
ATOM      7  O   UNL     1      46.967   8.561  13.621  0.00  0.00    +0.000 OA
ATOM      8  C   UNL     1      47.289   7.398  13.404  0.00  0.00    +0.000 C 
ATOM      9  N   UNL     1      48.559   6.917  13.612  0.00  0.00    +0.000 N 
ATOM     10  H   UNL     1      48.832   6.038  13.199  0.00  0.00    +0.000 HD
BRANCH   9  11
ATOM     11  CA  UNL     1      49.641   7.778  14.073  0.00  0.00    +0.000 C 
BRANCH  11  12
ATOM     12  C   UNL     1      50.293   7.140  15.289  0.00  0.00    +0.000 A 
ATOM     13  C   UNL     1      51.651   7.371  15.553  0.00  0.00    +0.000 A 
ATOM     14  C   UNL     1      52.247   6.866  16.710  0.00  0.00    +0.000 A 
ATOM     15  C   UNL     1      51.493   6.128  17.621  0.00  0.00    +0.000 A 
ATOM     16  C   UNL     1      50.147   5.881  17.370  0.00  0.00    +0.000 A 
ATOM     17  C   UNL     1      49.552   6.380  16.211  0.00  0.00    +0.000 A 
ENDBRANCH  11  12
BRANCH  11  18
ATOM     18  C   UNL     1      50.625   8.132  12.932  0.00  0.00    +0.000 C 
BRANCH  18  19
ATOM     19  O   UNL     1      50.545   7.207  11.841  0.00  0.00    +0.000 OA
ATOM     20  H   UNL     1      50.358   7.726  11.042  0.00  0.00    +0.000 HD
ENDBRANCH  18  19
ENDBRANCH  11  18
ENDBRANCH   9  11
ENDBRANCH   1   8
BRANCH   4  21
ATOM     21  C   UNL     1      43.529   3.662  11.018  0.00  0.00    +0.000 C 
BRANCH  21  22
ATOM     22  N   UNL     1      43.844   3.339   9.626  0.00  0.00    +0.000 NA
ATOM     23  H   UNL     1      44.382   4.098   9.209  0.00  0.00    +0.000 HD
BRANCH  22  24
ATOM     24  C   UNL     1      44.644   2.115   9.495  0.00  0.00    +0.000 C 
BRANCH  24  25
ATOM     25  C   UNL     1      45.669   2.243   8.384  0.00  0.00    +0.000 A 
ATOM     26  C   UNL     1      45.820   3.448   7.702  0.00  0.00    +0.000 A 
ATOM     27  C   UNL     1      46.774   3.533   6.692  0.00  0.00    +0.000 A 
ATOM     28  C   UNL     1      47.558   2.424   6.400  0.00  0.00    +0.000 A 
ATOM     29  C   UNL     1      47.359   1.270   7.138  0.00  0.00    +0.000 A 
ATOM     30  N   UNL     1      46.438   1.153   8.120  0.00  0.00    +0.000 NA
ENDBRANCH  24  25
ENDBRANCH  22  24
ENDBRANCH  21  22
ENDBRANCH   4  21
TORSDOF 9
ENDMDL
MODEL 7
REMARK VINA RESULT:    -6.994      3.002      4.632
REMARK INTER + INTRA:         -11.481
REMARK INTER:                 -10.432
REMARK INTRA:                  -1.049
REMARK UNBOUND:                -1.011
REMARK  Name = 
REMARK  9 active torsions:
REMARK  status: ('A' for Active; 'I' for Inactive)
REMARK    1  A    between atoms: C_2  and  C_13
REMARK    2  A    between atoms: N_3  and  CA_4
REMARK    3  A    between atoms: CA_4  and  C_5
REMARK    4  A    between atoms: CA_4  and  C_7
REMARK    5  A    between atoms: C_5  and  O_6
REMARK    6  A    between atoms: C_16  and  C_17
REMARK    7  A    between atoms: C_17  and  N_18
REMARK    8  A    between atoms: N_18  and  C_19
REMARK    9  A    between atoms: C_19  and  C_20
REMARK                            x       y       z     vdW  Elec       q    Type
REMARK                         _______ _______ _______ _____ _____    ______ ____
ROOT
ATOM      1  C   UNL     1      46.932   6.090  12.676  0.00  0.00    +0.000 A 
ATOM      2  C   UNL     1      46.481   6.446  11.402  0.00  0.00    +0.000 A 
ATOM      3  C   UNL     1      45.377   5.801  10.841  0.00  0.00    +0.000 A 
ATOM      4  C   UNL     1      44.708   4.790  11.547  0.00  0.00    +0.000 A 
ATOM      5  C   UNL     1      45.143   4.464  12.841  0.00  0.00    +0.000 A 
ATOM      6  C   UNL     1      46.245   5.111  13.406  0.00  0.00    +0.000 A 
ENDROOT
BRANCH   1   8
ATOM      7  O   UNL     1      48.770   6.302  14.143  0.00  0.00    +0.000 OA
ATOM      8  C   UNL     1      48.134   6.785  13.213  0.00  0.00    +0.000 C 
ATOM      9  N   UNL     1      48.442   7.994  12.639  0.00  0.00    +0.000 N 
ATOM     10  H   UNL     1      47.761   8.455  12.054  0.00  0.00    +0.000 HD
BRANCH   9  11
ATOM     11  CA  UNL     1      49.538   8.821  13.128  0.00  0.00    +0.000 C 
BRANCH  11  12
ATOM     12  C   UNL     1      50.567   8.980  12.020  0.00  0.00    +0.000 A 
ATOM     13  C   UNL     1      51.085   7.843  11.383  0.00  0.00    +0.000 A 
ATOM     14  C   UNL     1      51.964   7.969  10.305  0.00  0.00    +0.000 A 
ATOM     15  C   UNL     1      52.332   9.233   9.847  0.00  0.00    +0.000 A 
ATOM     16  C   UNL     1      51.835  10.371  10.474  0.00  0.00    +0.000 A 
ATOM     17  C   UNL     1      50.962  10.246  11.555  0.00  0.00    +0.000 A 
ENDBRANCH  11  12
BRANCH  11  18
ATOM     18  C   UNL     1      49.033  10.155  13.729  0.00  0.00    +0.000 C 
BRANCH  18  19
ATOM     19  O   UNL     1      47.728  10.504  13.252  0.00  0.00    +0.000 OA
ATOM     20  H   UNL     1      47.176   9.709  13.330  0.00  0.00    +0.000 HD
ENDBRANCH  18  19
ENDBRANCH  11  18
ENDBRANCH   9  11
ENDBRANCH   1   8
BRANCH   4  21
ATOM     21  C   UNL     1      43.536   4.060  10.927  0.00  0.00    +0.000 C 
BRANCH  21  22
ATOM     22  N   UNL     1      43.775   3.570   9.569  0.00  0.00    +0.000 NA
ATOM     23  H   UNL     1      44.276   4.276   9.031  0.00  0.00    +0.000 HD
BRANCH  22  24
ATOM     24  C   UNL     1      44.583   2.345   9.542  0.00  0.00    +0.000 C 
BRANCH  24  25
ATOM     25  C   UNL     1      45.619   2.393   8.435  0.00  0.00    +0.000 A 
ATOM     26  C   UNL     1      46.320   1.244   8.079  0.00  0.00    +0.000 A 
ATOM     27  C   UNL     1      47.260   1.321   7.055  0.00  0.00    +0.000 A 
ATOM     28  C   UNL     1      47.463   2.532   6.407  0.00  0.00    +0.000 A 
ATOM     29  C   UNL     1      46.711   3.623   6.808  0.00  0.00    +0.000 A 
ATOM     30  N   UNL     1      45.797   3.583   7.802  0.00  0.00    +0.000 NA
ENDBRANCH  24  25
ENDBRANCH  22  24
ENDBRANCH  21  22
ENDBRANCH   4  21
TORSDOF 9
ENDMDL
MODEL 8
REMARK VINA RESULT:    -6.626      2.359      9.701
REMARK INTER + INTRA:         -10.931
REMARK INTER:                 -10.085
REMARK INTRA:                  -0.845
REMARK UNBOUND:                -1.011
REMARK  Name = 
REMARK  9 active torsions:
REMARK  status: ('A' for Active; 'I' for Inactive)
REMARK    1  A    between atoms: C_2  and  C_13
REMARK    2  A    between atoms: N_3  and  CA_4
REMARK    3  A    between atoms: CA_4  and  C_5
REMARK    4  A    between atoms: CA_4  and  C_7
REMARK    5  A    between atoms: C_5  and  O_6
REMARK    6  A    between atoms: C_16  and  C_17
REMARK    7  A    between atoms: C_17  and  N_18
REMARK    8  A    between atoms: N_18  and  C_19
REMARK    9  A    between atoms: C_19  and  C_20
REMARK                            x       y       z     vdW  Elec       q    Type
REMARK                         _______ _______ _______ _____ _____    ______ ____
ROOT
ATOM      1  C   UNL     1      47.003   5.513  13.869  0.00  0.00    +0.000 A 
ATOM      2  C   UNL     1      47.898   6.464  14.369  0.00  0.00    +0.000 A 
ATOM      3  C   UNL     1      48.530   6.259  15.597  0.00  0.00    +0.000 A 
ATOM      4  C   UNL     1      48.275   5.099  16.344  0.00  0.00    +0.000 A 
ATOM      5  C   UNL     1      47.404   4.131  15.820  0.00  0.00    +0.000 A 
ATOM      6  C   UNL     1      46.774   4.332  14.588  0.00  0.00    +0.000 A 
ENDROOT
BRANCH   1   8
ATOM      7  O   UNL     1      46.803   6.618  11.793  0.00  0.00    +0.000 OA
ATOM      8  C   UNL     1      46.332   5.796  12.571  0.00  0.00    +0.000 C 
ATOM      9  N   UNL     1      45.157   5.124  12.337  0.00  0.00    +0.000 N 
ATOM     10  H   UNL     1      44.694   4.651  13.098  0.00  0.00    +0.000 HD
BRANCH   9  11
ATOM     11  CA  UNL     1      44.353   5.374  11.147  0.00  0.00    +0.000 C 
BRANCH  11  12
ATOM     12  C   UNL     1      44.730   4.362  10.077  0.00  0.00    +0.000 A 
ATOM     13  C   UNL     1      45.497   4.768   8.975  0.00  0.00    +0.000 A 
ATOM     14  C   UNL     1      45.928   3.838   8.027  0.00  0.00    +0.000 A 
ATOM     15  C   UNL     1      45.602   2.490   8.170  0.00  0.00    +0.000 A 
ATOM     16  C   UNL     1      44.834   2.072   9.252  0.00  0.00    +0.000 A 
ATOM     17  C   UNL     1      44.397   3.002  10.197  0.00  0.00    +0.000 A 
ENDBRANCH  11  12
BRANCH  11  18
ATOM     18  C   UNL     1      42.841   5.428  11.472  0.00  0.00    +0.000 C 
BRANCH  18  19
ATOM     19  O   UNL     1      42.592   5.503  12.881  0.00  0.00    +0.000 OA
ATOM     20  H   UNL     1      42.753   4.617  13.245  0.00  0.00    +0.000 HD
ENDBRANCH  18  19
ENDBRANCH  11  18
ENDBRANCH   9  11
ENDBRANCH   1   8
BRANCH   4  21
ATOM     21  C   UNL     1      48.926   4.892  17.694  0.00  0.00    +0.000 C 
BRANCH  21  22
ATOM     22  N   UNL     1      47.997   4.540  18.769  0.00  0.00    +0.000 NA
ATOM     23  H   UNL     1      48.488   4.538  19.662  0.00  0.00    +0.000 HD
BRANCH  22  24
ATOM     24  C   UNL     1      46.881   5.485  18.887  0.00  0.00    +0.000 C 
BRANCH  24  25
ATOM     25  C   UNL     1      47.252   6.671  19.756  0.00  0.00    +0.000 A 
ATOM     26  C   UNL     1      47.442   6.506  21.126  0.00  0.00    +0.000 A 
ATOM     27  C   UNL     1      47.787   7.614  21.894  0.00  0.00    +0.000 A 
ATOM     28  C   UNL     1      47.949   8.848  21.277  0.00  0.00    +0.000 A 
ATOM     29  C   UNL     1      47.761   8.923  19.907  0.00  0.00    +0.000 A 
ATOM     30  N   UNL     1      47.419   7.869  19.135  0.00  0.00    +0.000 NA
ENDBRANCH  24  25
ENDBRANCH  22  24
ENDBRANCH  21  22
ENDBRANCH   4  21
TORSDOF 9
ENDMDL
MODEL 9
REMARK VINA RESULT:    -6.448      3.112      9.750
REMARK INTER + INTRA:         -10.663
REMARK INTER:                  -9.905
REMARK INTRA:                  -0.758
REMARK UNBOUND:                -1.011
REMARK  Name = 
REMARK  9 active torsions:
REMARK  status: ('A' for Active; 'I' for Inactive)
REMARK    1  A    between atoms: C_2  and  C_13
REMARK    2  A    between atoms: N_3  and  CA_4
REMARK    3  A    between atoms: CA_4  and  C_5
REMARK    4  A    between atoms: CA_4  and  C_7
REMARK    5  A    between atoms: C_5  and  O_6
REMARK    6  A    between atoms: C_16  and  C_17
REMARK    7  A    between atoms: C_17  and  N_18
REMARK    8  A    between atoms: N_18  and  C_19
REMARK    9  A    between atoms: C_19  and  C_20
REMARK                            x       y       z     vdW  Elec       q    Type
REMARK                         _______ _______ _______ _____ _____    ______ ____
ROOT
ATOM      1  C   UNL     1      46.934   5.712  13.606  0.00  0.00    +0.000 A 
ATOM      2  C   UNL     1      47.914   6.624  14.007  0.00  0.00    +0.000 A 
ATOM      3  C   UNL     1      48.596   6.440  15.211  0.00  0.00    +0.000 A 
ATOM      4  C   UNL     1      48.306   5.341  16.034  0.00  0.00    +0.000 A 
ATOM      5  C   UNL     1      47.347   4.409  15.608  0.00  0.00    +0.000 A 
ATOM      6  C   UNL     1      46.667   4.588  14.399  0.00  0.00    +0.000 A 
ENDROOT
BRANCH   1   8
ATOM      7  O   UNL     1      46.319   7.056  11.765  0.00  0.00    +0.000 OA
ATOM      8  C   UNL     1      46.215   5.972  12.329  0.00  0.00    +0.000 C 
ATOM      9  N   UNL     1      45.413   4.957  11.866  0.00  0.00    +0.000 N 
ATOM     10  H   UNL     1      45.176   4.192  12.480  0.00  0.00    +0.000 HD
BRANCH   9  11
ATOM     11  CA  UNL     1      44.585   5.113  10.677  0.00  0.00    +0.000 C 
BRANCH  11  12
ATOM     12  C   UNL     1      45.069   4.144   9.610  0.00  0.00    +0.000 A 
ATOM     13  C   UNL     1      45.790   4.625   8.508  0.00  0.00    +0.000 A 
ATOM     14  C   UNL     1      46.318   3.743   7.563  0.00  0.00    +0.000 A 
ATOM     15  C   UNL     1      46.137   2.369   7.711  0.00  0.00    +0.000 A 
ATOM     16  C   UNL     1      45.415   1.875   8.793  0.00  0.00    +0.000 A 
ATOM     17  C   UNL     1      44.881   2.756   9.734  0.00  0.00    +0.000 A 
ENDBRANCH  11  12
BRANCH  11  18
ATOM     18  C   UNL     1      43.076   5.004  11.005  0.00  0.00    +0.000 C 
BRANCH  18  19
ATOM     19  O   UNL     1      42.647   6.015  11.923  0.00  0.00    +0.000 OA
ATOM     20  H   UNL     1      41.817   6.381  11.574  0.00  0.00    +0.000 HD
ENDBRANCH  18  19
ENDBRANCH  11  18
ENDBRANCH   9  11
ENDBRANCH   1   8
BRANCH   4  21
ATOM     21  C   UNL     1      49.012   5.160  17.359  0.00  0.00    +0.000 C 
BRANCH  21  22
ATOM     22  N   UNL     1      50.068   4.147  17.352  0.00  0.00    +0.000 NA
ATOM     23  H   UNL     1      50.012   3.596  16.496  0.00  0.00    +0.000 HD
BRANCH  22  24
ATOM     24  C   UNL     1      51.413   4.729  17.411  0.00  0.00    +0.000 C 
BRANCH  24  25
ATOM     25  C   UNL     1      52.110   4.378  18.712  0.00  0.00    +0.000 A 
ATOM     26  C   UNL     1      53.150   3.452  18.724  0.00  0.00    +0.000 A 
ATOM     27  C   UNL     1      53.772   3.157  19.934  0.00  0.00    +0.000 A 
ATOM     28  C   UNL     1      53.352   3.801  21.091  0.00  0.00    +0.000 A 
ATOM     29  C   UNL     1      52.324   4.723  20.990  0.00  0.00    +0.000 A 
ATOM     30  N   UNL     1      51.696   5.027  19.833  0.00  0.00    +0.000 NA
ENDBRANCH  24  25
ENDBRANCH  22  24
ENDBRANCH  21  22
ENDBRANCH   4  21
TORSDOF 9
ENDMDL
