MODEL 1
REMARK VINA RESULT:    -8.101      0.000      0.000
REMARK INTER + INTRA:         -13.009
REMARK INTER:                 -11.889
REMARK INTRA:                  -1.120
REMARK UNBOUND:                -1.120
REMARK  Name = 
REMARK  10 active torsions:
REMARK  status: ('A' for Active; 'I' for Inactive)
REMARK    1  A    between atoms: C_1  and  C_2
REMARK    2  A    between atoms: C_2  and  O_3
REMARK    3  A    between atoms: O_3  and  C_4
REMARK    4  A    between atoms: C_6  and  C_7
REMARK    5  A    between atoms: C_7  and  C_8
REMARK    6  A    between atoms: C_8  and  N_9
REMARK    7  A    between atoms: C_13  and  C_14
REMARK    8  A    between atoms: C_20  and  C_21
REMARK    9  A    between atoms: C_25  and  O_26
REMARK   10  A    between atoms: O_26  and  C_27
REMARK                            x       y       z     vdW  Elec       q    Type
REMARK                         _______ _______ _______ _____ _____    ______ ____
ROOT
ATOM      1  C   UNL     1      46.833   4.673  14.008  0.00  0.00    +0.000 A 
ATOM      2  C   UNL     1      45.497   4.640  13.624  0.00  0.00    +0.000 A 
ATOM      3  C   UNL     1      45.035   5.596  12.719  0.00  0.00    +0.000 A 
ATOM      4  C   UNL     1      45.956   6.557  12.284  0.00  0.00    +0.000 A 
ATOM      5  C   UNL     1      47.278   6.544  12.735  0.00  0.00    +0.000 A 
ATOM      6  N   UNL     1      47.719   5.608  13.602  0.00  0.00    +0.000 NA
ENDROOT
BRANCH   5   7
ATOM      7  C   UNL     1      48.258   7.547  12.293  0.00  0.00    +0.000 A 
ATOM      8  C   UNL     1      47.881   8.864  12.031  0.00  0.00    +0.000 A 
ATOM      9  N   UNL     1      48.718   9.836  11.589  0.00  0.00    +0.000 NA
ATOM     10  C   UNL     1      50.010   9.476  11.402  0.00  0.00    +0.000 A 
ATOM     11  C   UNL     1      50.513   8.204  11.634  0.00  0.00    +0.000 A 
ATOM     12  C   UNL     1      49.619   7.239  12.090  0.00  0.00    +0.000 A 
BRANCH  11  13
ATOM     13  O   UNL     1      51.844   8.020  11.390  0.00  0.00    +0.000 OA
ATOM     14  C   UNL     1      52.200   7.499  10.114  0.00  0.00    +0.000 C 
ENDBRANCH  11  13
ENDBRANCH   5   7
BRANCH   1  15
ATOM     15  O   UNL     1      47.259   3.673  14.859  0.00  0.00    +0.000 OA
BRANCH  15  17
ATOM     16  C   UNL     1      47.075   3.529  17.231  0.00  0.00    +0.000 C 
ATOM     17  C   UNL     1      47.805   4.190  16.076  0.00  0.00    +0.000 C 
ENDBRANCH  15  17
ENDBRANCH   1  15
BRANCH   3  18
ATOM     18  C   UNL     1      43.594   5.574  12.232  0.00  0.00    +0.000 C 
BRANCH  18  19
ATOM     19  C   UNL     1      43.425   5.043  10.797  0.00  0.00    +0.000 C 
BRANCH  19  20
ATOM     20  N   UNL     1      43.684   3.605  10.670  0.00  0.00    +0.000 N 
ATOM     21  C   UNL     1      44.613   3.336   9.633  0.00  0.00    +0.000 A 
ATOM     22  C   UNL     1      44.977   2.014   9.339  0.00  0.00    +0.000 A 
ATOM     23  N   UNL     1      45.848   1.658   8.352  0.00  0.00    +0.000 NA
ATOM     24  C   UNL     1      46.372   2.706   7.661  0.00  0.00    +0.000 A 
ATOM     25  C   UNL     1      46.043   4.019   7.949  0.00  0.00    +0.000 A 
ATOM     26  N   UNL     1      45.170   4.353   8.935  0.00  0.00    +0.000 NA
ATOM     27  H   UNL     1      42.833   3.080  10.485  0.00  0.00    +0.000 HD
BRANCH  24  28
ATOM     28  C   UNL     1      47.323   2.420   6.553  0.00  0.00    +0.000 C 
ATOM     29  N   UNL     1      47.246   3.246   5.464  0.00  0.00    +0.000 N 
ATOM     30  O   UNL     1      48.135   1.504   6.608  0.00  0.00    +0.000 OA
ATOM     31  H   UNL     1      46.564   3.996   5.439  0.00  0.00    +0.000 HD
ATOM     32  H   UNL     1      47.870   3.101   4.686  0.00  0.00    +0.000 HD
ENDBRANCH  24  28
ENDBRANCH  19  20
ENDBRANCH  18  19
ENDBRANCH   3  18
TORSDOF 8
ENDMDL
MODEL 2
REMARK VINA RESULT:    -7.701      1.639      4.505
REMARK INTER + INTRA:         -12.421
REMARK INTER:                 -11.242
REMARK INTRA:                  -1.180
REMARK UNBOUND:                -1.120
REMARK  Name = 
REMARK  10 active torsions:
REMARK  status: ('A' for Active; 'I' for Inactive)
REMARK    1  A    between atoms: C_1  and  C_2
REMARK    2  A    between atoms: C_2  and  O_3
REMARK    3  A    between atoms: O_3  and  C_4
REMARK    4  A    between atoms: C_6  and  C_7
REMARK    5  A    between atoms: C_7  and  C_8
REMARK    6  A    between atoms: C_8  and  N_9
REMARK    7  A    between atoms: C_13  and  C_14
REMARK    8  A    between atoms: C_20  and  C_21
REMARK    9  A    between atoms: C_25  and  O_26
REMARK   10  A    between atoms: O_26  and  C_27
REMARK                            x       y       z     vdW  Elec       q    Type
REMARK                         _______ _______ _______ _____ _____    ______ ____
ROOT
ATOM      1  C   UNL     1      47.299   6.416  12.335  0.00  0.00    +0.000 A 
ATOM      2  C   UNL     1      46.000   6.422  11.838  0.00  0.00    +0.000 A 
ATOM      3  C   UNL     1      45.020   5.693  12.512  0.00  0.00    +0.000 A 
ATOM      4  C   UNL     1      45.428   4.968  13.638  0.00  0.00    +0.000 A 
ATOM      5  C   UNL     1      46.758   4.987  14.064  0.00  0.00    +0.000 A 
ATOM      6  N   UNL     1      47.698   5.704  13.412  0.00  0.00    +0.000 NA
ENDROOT
BRANCH   5   7
ATOM      7  C   UNL     1      47.207   4.228  15.241  0.00  0.00    +0.000 A 
ATOM      8  C   UNL     1      46.715   4.508  16.515  0.00  0.00    +0.000 A 
ATOM      9  N   UNL     1      47.103   3.877  17.651  0.00  0.00    +0.000 NA
ATOM     10  C   UNL     1      48.034   2.904  17.508  0.00  0.00    +0.000 A 
ATOM     11  C   UNL     1      48.596   2.525  16.297  0.00  0.00    +0.000 A 
ATOM     12  C   UNL     1      48.165   3.198  15.157  0.00  0.00    +0.000 A 
BRANCH  11  13
ATOM     13  O   UNL     1      49.523   1.523  16.341  0.00  0.00    +0.000 OA
ATOM     14  C   UNL     1      50.721   1.785  17.064  0.00  0.00    +0.000 C 
ENDBRANCH  11  13
ENDBRANCH   5   7
BRANCH   1  15
ATOM     15  O   UNL     1      48.222   7.197  11.670  0.00  0.00    +0.000 OA
BRANCH  15  17
ATOM     16  C   UNL     1      48.167   9.265  12.855  0.00  0.00    +0.000 C 
ATOM     17  C   UNL     1      48.983   8.019  12.562  0.00  0.00    +0.000 C 
ENDBRANCH  15  17
ENDBRANCH   1  15
BRANCH   3  18
ATOM     18  C   UNL     1      43.575   5.706  12.034  0.00  0.00    +0.000 C 
BRANCH  18  19
ATOM     19  C   UNL     1      43.363   5.049  10.658  0.00  0.00    +0.000 C 
BRANCH  19  20
ATOM     20  N   UNL     1      43.703   3.622  10.633  0.00  0.00    +0.000 N 
ATOM     21  C   UNL     1      44.631   3.329   9.601  0.00  0.00    +0.000 A 
ATOM     22  C   UNL     1      45.066   2.012   9.398  0.00  0.00    +0.000 A 
ATOM     23  N   UNL     1      45.942   1.633   8.425  0.00  0.00    +0.000 NA
ATOM     24  C   UNL     1      46.395   2.654   7.649  0.00  0.00    +0.000 A 
ATOM     25  C   UNL     1      45.995   3.965   7.845  0.00  0.00    +0.000 A 
ATOM     26  N   UNL     1      45.119   4.322   8.820  0.00  0.00    +0.000 NA
ATOM     27  H   UNL     1      42.881   3.037  10.503  0.00  0.00    +0.000 HD
BRANCH  24  28
ATOM     28  C   UNL     1      47.345   2.341   6.548  0.00  0.00    +0.000 C 
ATOM     29  N   UNL     1      47.275   3.146   5.443  0.00  0.00    +0.000 N 
ATOM     30  O   UNL     1      48.151   1.421   6.620  0.00  0.00    +0.000 OA
ATOM     31  H   UNL     1      46.598   3.900   5.403  0.00  0.00    +0.000 HD
ATOM     32  H   UNL     1      47.898   2.982   4.668  0.00  0.00    +0.000 HD
ENDBRANCH  24  28
ENDBRANCH  19  20
ENDBRANCH  18  19
ENDBRANCH   3  18
TORSDOF 8
ENDMDL
MODEL 3
REMARK VINA RESULT:    -7.637      1.709      4.479
REMARK INTER + INTRA:         -12.328
REMARK INTER:                 -11.162
REMARK INTRA:                  -1.166
REMARK UNBOUND:                -1.120
REMARK  Name = 
REMARK  10 active torsions:
REMARK  status: ('A' for Active; 'I' for Inactive)
REMARK    1  A    between atoms: C_1  and  C_2
REMARK    2  A    between atoms: C_2  and  O_3
REMARK    3  A    between atoms: O_3  and  C_4
REMARK    4  A    between atoms: C_6  and  C_7
REMARK    5  A    between atoms: C_7  and  C_8
REMARK    6  A    between atoms: C_8  and  N_9
REMARK    7  A    between atoms: C_13  and  C_14
REMARK    8  A    between atoms: C_20  and  C_21
REMARK    9  A    between atoms: C_25  and  O_26
REMARK   10  A    between atoms: O_26  and  C_27
REMARK                            x       y       z     vdW  Elec       q    Type
REMARK                         _______ _______ _______ _____ _____    ______ ____
ROOT
ATOM      1  C   UNL     1      47.359   6.546  12.126  0.00  0.00    +0.000 A 
ATOM      2  C   UNL     1      46.043   6.359  11.714  0.00  0.00    +0.000 A 
ATOM      3  C   UNL     1      45.194   5.592  12.512  0.00  0.00    +0.000 A 
ATOM      4  C   UNL     1      45.744   5.029  13.670  0.00  0.00    +0.000 A 
ATOM      5  C   UNL     1      47.083   5.238  14.006  0.00  0.00    +0.000 A 
ATOM      6  N   UNL     1      47.895   5.990  13.234  0.00  0.00    +0.000 NA
ENDROOT
BRANCH   5   7
ATOM      7  C   UNL     1      47.680   4.650  15.215  0.00  0.00    +0.000 A 
ATOM      8  C   UNL     1      47.795   3.270  15.370  0.00  0.00    +0.000 A 
ATOM      9  N   UNL     1      48.301   2.653  16.467  0.00  0.00    +0.000 NA
ATOM     10  C   UNL     1      48.726   3.460  17.467  0.00  0.00    +0.000 A 
ATOM     11  C   UNL     1      48.675   4.847  17.433  0.00  0.00    +0.000 A 
ATOM     12  C   UNL     1      48.150   5.437  16.287  0.00  0.00    +0.000 A 
BRANCH  11  13
ATOM     13  O   UNL     1      49.146   5.502  18.534  0.00  0.00    +0.000 OA
ATOM     14  C   UNL     1      48.617   6.798  18.790  0.00  0.00    +0.000 C 
ENDBRANCH  11  13
ENDBRANCH   5   7
BRANCH   1  15
ATOM     15  O   UNL     1      48.146   7.359  11.336  0.00  0.00    +0.000 OA
BRANCH  15  17
ATOM     16  C   UNL     1      47.927   9.592  12.140  0.00  0.00    +0.000 C 
ATOM     17  C   UNL     1      48.821   8.366  12.096  0.00  0.00    +0.000 C 
ENDBRANCH  15  17
ENDBRANCH   1  15
BRANCH   3  18
ATOM     18  C   UNL     1      43.734   5.397  12.129  0.00  0.00    +0.000 C 
BRANCH  18  19
ATOM     19  C   UNL     1      43.525   4.885  10.692  0.00  0.00    +0.000 C 
BRANCH  19  20
ATOM     20  N   UNL     1      43.801   3.453  10.535  0.00  0.00    +0.000 N 
ATOM     21  C   UNL     1      44.751   3.218   9.509  0.00  0.00    +0.000 A 
ATOM     22  C   UNL     1      45.134   1.908   9.189  0.00  0.00    +0.000 A 
ATOM     23  N   UNL     1      46.026   1.584   8.210  0.00  0.00    +0.000 NA
ATOM     24  C   UNL     1      46.552   2.654   7.555  0.00  0.00    +0.000 A 
ATOM     25  C   UNL     1      46.205   3.957   7.868  0.00  0.00    +0.000 A 
ATOM     26  N   UNL     1      45.311   4.258   8.846  0.00  0.00    +0.000 NA
ATOM     27  H   UNL     1      42.959   2.924  10.322  0.00  0.00    +0.000 HD
BRANCH  24  28
ATOM     28  C   UNL     1      47.525   2.405   6.458  0.00  0.00    +0.000 C 
ATOM     29  N   UNL     1      47.324   3.107   5.300  0.00  0.00    +0.000 N 
ATOM     30  O   UNL     1      48.461   1.622   6.578  0.00  0.00    +0.000 OA
ATOM     31  H   UNL     1      46.541   3.747   5.222  0.00  0.00    +0.000 HD
ATOM     32  H   UNL     1      47.956   2.980   4.526  0.00  0.00    +0.000 HD
ENDBRANCH  24  28
ENDBRANCH  19  20
ENDBRANCH  18  19
ENDBRANCH   3  18
TORSDOF 8
ENDMDL
MODEL 4
REMARK VINA RESULT:    -7.109      3.312      8.167
REMARK INTER + INTRA:         -11.554
REMARK INTER:                 -10.583
REMARK INTRA:                  -0.971
REMARK UNBOUND:                -1.120
REMARK  Name = 
REMARK  10 active torsions:
REMARK  status: ('A' for Active; 'I' for Inactive)
REMARK    1  A    between atoms: C_1  and  C_2
REMARK    2  A    between atoms: C_2  and  O_3
REMARK    3  A    between atoms: O_3  and  C_4
REMARK    4  A    between atoms: C_6  and  C_7
REMARK    5  A    between atoms: C_7  and  C_8
REMARK    6  A    between atoms: C_8  and  N_9
REMARK    7  A    between atoms: C_13  and  C_14
REMARK    8  A    between atoms: C_20  and  C_21
REMARK    9  A    between atoms: C_25  and  O_26
REMARK   10  A    between atoms: O_26  and  C_27
REMARK                            x       y       z     vdW  Elec       q    Type
REMARK                         _______ _______ _______ _____ _____    ______ ____
ROOT
ATOM      1  C   UNL     1      44.767   9.098  11.386  0.00  0.00    +0.000 A 
ATOM      2  C   UNL     1      45.896   9.485  12.102  0.00  0.00    +0.000 A 
ATOM      3  C   UNL     1      46.636   8.507  12.765  0.00  0.00    +0.000 A 
ATOM      4  C   UNL     1      46.165   7.190  12.690  0.00  0.00    +0.000 A 
ATOM      5  C   UNL     1      45.007   6.880  11.973  0.00  0.00    +0.000 A 
ATOM      6  N   UNL     1      44.302   7.832  11.326  0.00  0.00    +0.000 NA
ENDROOT
BRANCH   5   7
ATOM      7  C   UNL     1      44.493   5.505  11.887  0.00  0.00    +0.000 A 
ATOM      8  C   UNL     1      43.986   4.849  13.008  0.00  0.00    +0.000 A 
ATOM      9  N   UNL     1      43.526   3.573  13.016  0.00  0.00    +0.000 NA
ATOM     10  C   UNL     1      43.568   2.913  11.834  0.00  0.00    +0.000 A 
ATOM     11  C   UNL     1      44.040   3.454  10.647  0.00  0.00    +0.000 A 
ATOM     12  C   UNL     1      44.499   4.768  10.685  0.00  0.00    +0.000 A 
BRANCH  11  13
ATOM     13  O   UNL     1      44.008   2.642   9.550  0.00  0.00    +0.000 OA
ATOM     14  C   UNL     1      45.250   2.100   9.113  0.00  0.00    +0.000 C 
ENDBRANCH  11  13
ENDBRANCH   5   7
BRANCH   1  15
ATOM     15  O   UNL     1      44.099  10.091  10.698  0.00  0.00    +0.000 OA
BRANCH  15  17
ATOM     16  C   UNL     1      42.030  11.058  10.013  0.00  0.00    +0.000 C 
ATOM     17  C   UNL     1      42.702   9.811  10.560  0.00  0.00    +0.000 C 
ENDBRANCH  15  17
ENDBRANCH   1  15
BRANCH   3  18
ATOM     18  C   UNL     1      47.904   8.873  13.523  0.00  0.00    +0.000 C 
BRANCH  18  19
ATOM     19  C   UNL     1      48.960   7.753  13.556  0.00  0.00    +0.000 C 
BRANCH  19  20
ATOM     20  N   UNL     1      49.640   7.628  14.850  0.00  0.00    +0.000 N 
ATOM     21  C   UNL     1      49.129   6.539  15.601  0.00  0.00    +0.000 A 
ATOM     22  C   UNL     1      49.636   6.265  16.879  0.00  0.00    +0.000 A 
ATOM     23  N   UNL     1      49.197   5.252  17.679  0.00  0.00    +0.000 NA
ATOM     24  C   UNL     1      48.215   4.488  17.129  0.00  0.00    +0.000 A 
ATOM     25  C   UNL     1      47.716   4.727  15.861  0.00  0.00    +0.000 A 
ATOM     26  N   UNL     1      48.165   5.744  15.080  0.00  0.00    +0.000 NA
ATOM     27  H   UNL     1      49.554   8.474  15.409  0.00  0.00    +0.000 HD
BRANCH  24  28
ATOM     28  C   UNL     1      47.659   3.364  17.930  0.00  0.00    +0.000 C 
ATOM     29  N   UNL     1      48.290   3.097  19.115  0.00  0.00    +0.000 N 
ATOM     30  O   UNL     1      46.687   2.715  17.560  0.00  0.00    +0.000 OA
ATOM     31  H   UNL     1      49.094   3.645  19.400  0.00  0.00    +0.000 HD
ATOM     32  H   UNL     1      47.952   2.350  19.700  0.00  0.00    +0.000 HD
ENDBRANCH  24  28
ENDBRANCH  19  20
ENDBRANCH  18  19
ENDBRANCH   3  18
TORSDOF 8
ENDMDL
MODEL 5
REMARK VINA RESULT:    -6.936      2.322      3.543
REMARK INTER + INTRA:         -11.300
REMARK INTER:                 -10.306
REMARK INTRA:                  -0.993
REMARK UNBOUND:                -1.120
REMARK  Name = 
REMARK  10 active torsions:
REMARK  status: ('A' for Active; 'I' for Inactive)
REMARK    1  A    between atoms: C_1  and  C_2
REMARK    2  A    between atoms: C_2  and  O_3
REMARK    3  A    between atoms: O_3  and  C_4
REMARK    4  A    between atoms: C_6  and  C_7
REMARK    5  A    between atoms: C_7  and  C_8
REMARK    6  A    between atoms: C_8  and  N_9
REMARK    7  A    between atoms: C_13  and  C_14
REMARK    8  A    between atoms: C_20  and  C_21
REMARK    9  A    between atoms: C_25  and  O_26
REMARK   10  A    between atoms: O_26  and  C_27
REMARK                            x       y       z     vdW  Elec       q    Type
REMARK                         _______ _______ _______ _____ _____    ______ ____
ROOT
ATOM      1  C   UNL     1      45.168   7.664  11.784  0.00  0.00    +0.000 A 
ATOM      2  C   UNL     1      44.354   6.537  11.737  0.00  0.00    +0.000 A 
ATOM      3  C   UNL     1      44.712   5.420  12.492  0.00  0.00    +0.000 A 
ATOM      4  C   UNL     1      45.901   5.503  13.228  0.00  0.00    +0.000 A 
ATOM      5  C   UNL     1      46.683   6.660  13.205  0.00  0.00    +0.000 A 
ATOM      6  N   UNL     1      46.323   7.740  12.480  0.00  0.00    +0.000 NA
ENDROOT
BRANCH   5   7
ATOM      7  C   UNL     1      47.937   6.764  13.966  0.00  0.00    +0.000 A 
ATOM      8  C   UNL     1      48.138   6.033  15.136  0.00  0.00    +0.000 A 
ATOM      9  N   UNL     1      49.250   6.100  15.910  0.00  0.00    +0.000 NA
ATOM     10  C   UNL     1      50.224   6.942  15.489  0.00  0.00    +0.000 A 
ATOM     11  C   UNL     1      50.150   7.717  14.340  0.00  0.00    +0.000 A 
ATOM     12  C   UNL     1      48.991   7.613  13.575  0.00  0.00    +0.000 A 
BRANCH  11  13
ATOM     13  O   UNL     1      51.227   8.511  14.070  0.00  0.00    +0.000 OA
ATOM     14  C   UNL     1      51.386   8.947  12.724  0.00  0.00    +0.000 C 
ENDBRANCH  11  13
ENDBRANCH   5   7
BRANCH   1  15
ATOM     15  O   UNL     1      44.745   8.765  11.067  0.00  0.00    +0.000 OA
BRANCH  15  17
ATOM     16  C   UNL     1      43.506  10.758  11.483  0.00  0.00    +0.000 C 
ATOM     17  C   UNL     1      44.742   9.959  11.856  0.00  0.00    +0.000 C 
ENDBRANCH  15  17
ENDBRANCH   1  15
BRANCH   3  18
ATOM     18  C   UNL     1      43.831   4.179  12.511  0.00  0.00    +0.000 C 
BRANCH  18  19
ATOM     19  C   UNL     1      43.360   3.723  11.118  0.00  0.00    +0.000 C 
BRANCH  19  20
ATOM     20  N   UNL     1      43.925   2.435  10.702  0.00  0.00    +0.000 N 
ATOM     21  C   UNL     1      44.782   2.584   9.582  0.00  0.00    +0.000 A 
ATOM     22  C   UNL     1      45.406   1.462   9.018  0.00  0.00    +0.000 A 
ATOM     23  N   UNL     1      46.232   1.504   7.934  0.00  0.00    +0.000 NA
ATOM     24  C   UNL     1      46.432   2.752   7.431  0.00  0.00    +0.000 A 
ATOM     25  C   UNL     1      45.843   3.876   7.984  0.00  0.00    +0.000 A 
ATOM     26  N   UNL     1      45.021   3.812   9.064  0.00  0.00    +0.000 NA
ATOM     27  H   UNL     1      43.201   1.760  10.467  0.00  0.00    +0.000 HD
BRANCH  24  28
ATOM     28  C   UNL     1      47.307   2.903   6.237  0.00  0.00    +0.000 C 
ATOM     29  N   UNL     1      48.589   2.440   6.366  0.00  0.00    +0.000 N 
ATOM     30  O   UNL     1      46.908   3.404   5.192  0.00  0.00    +0.000 OA
ATOM     31  H   UNL     1      48.898   2.032   7.241  0.00  0.00    +0.000 HD
ATOM     32  H   UNL     1      49.224   2.513   5.587  0.00  0.00    +0.000 HD
ENDBRANCH  24  28
ENDBRANCH  19  20
ENDBRANCH  18  19
ENDBRANCH   3  18
TORSDOF 8
ENDMDL
MODEL 6
REMARK VINA RESULT:    -6.442      3.094      6.721
REMARK INTER + INTRA:         -10.574
REMARK INTER:                  -9.507
REMARK INTRA:                  -1.067
REMARK UNBOUND:                -1.120
REMARK  Name = 
REMARK  10 active torsions:
REMARK  status: ('A' for Active; 'I' for Inactive)
REMARK    1  A    between atoms: C_1  and  C_2
REMARK    2  A    between atoms: C_2  and  O_3
REMARK    3  A    between atoms: O_3  and  C_4
REMARK    4  A    between atoms: C_6  and  C_7
REMARK    5  A    between atoms: C_7  and  C_8
REMARK    6  A    between atoms: C_8  and  N_9
REMARK    7  A    between atoms: C_13  and  C_14
REMARK    8  A    between atoms: C_20  and  C_21
REMARK    9  A    between atoms: C_25  and  O_26
REMARK   10  A    between atoms: O_26  and  C_27
REMARK                            x       y       z     vdW  Elec       q    Type
REMARK                         _______ _______ _______ _____ _____    ______ ____
ROOT
ATOM      1  C   UNL     1      47.102   4.336  15.336  0.00  0.00    +0.000 A 
ATOM      2  C   UNL     1      48.030   5.371  15.391  0.00  0.00    +0.000 A 
ATOM      3  C   UNL     1      48.084   6.279  14.334  0.00  0.00    +0.000 A 
ATOM      4  C   UNL     1      47.212   6.060  13.260  0.00  0.00    +0.000 A 
ATOM      5  C   UNL     1      46.325   4.981  13.262  0.00  0.00    +0.000 A 
ATOM      6  N   UNL     1      46.271   4.114  14.295  0.00  0.00    +0.000 NA
ENDROOT
BRANCH   5   7
ATOM      7  C   UNL     1      45.405   4.732  12.142  0.00  0.00    +0.000 A 
ATOM      8  C   UNL     1      44.487   5.696  11.729  0.00  0.00    +0.000 A 
ATOM      9  N   UNL     1      43.586   5.529  10.729  0.00  0.00    +0.000 NA
ATOM     10  C   UNL     1      43.604   4.331  10.099  0.00  0.00    +0.000 A 
ATOM     11  C   UNL     1      44.471   3.292  10.409  0.00  0.00    +0.000 A 
ATOM     12  C   UNL     1      45.381   3.510  11.440  0.00  0.00    +0.000 A 
BRANCH  11  13
ATOM     13  O   UNL     1      44.347   2.151   9.669  0.00  0.00    +0.000 OA
ATOM     14  C   UNL     1      45.413   1.840   8.780  0.00  0.00    +0.000 C 
ENDBRANCH  11  13
ENDBRANCH   5   7
BRANCH   1  15
ATOM     15  O   UNL     1      47.044   3.497  16.430  0.00  0.00    +0.000 OA
BRANCH  15  17
ATOM     16  C   UNL     1      49.066   2.361  16.979  0.00  0.00    +0.000 C 
ATOM     17  C   UNL     1      48.214   3.588  17.249  0.00  0.00    +0.000 C 
ENDBRANCH  15  17
ENDBRANCH   1  15
BRANCH   3  18
ATOM     18  C   UNL     1      49.050   7.455  14.368  0.00  0.00    +0.000 C 
BRANCH  18  19
ATOM     19  C   UNL     1      48.389   8.798  14.727  0.00  0.00    +0.000 C 
BRANCH  19  20
ATOM     20  N   UNL     1      48.440   9.784  13.643  0.00  0.00    +0.000 N 
ATOM     21  C   UNL     1      47.224   9.816  12.914  0.00  0.00    +0.000 A 
ATOM     22  C   UNL     1      47.080  10.682  11.821  0.00  0.00    +0.000 A 
ATOM     23  N   UNL     1      45.957  10.771  11.053  0.00  0.00    +0.000 NA
ATOM     24  C   UNL     1      44.945   9.950  11.442  0.00  0.00    +0.000 A 
ATOM     25  C   UNL     1      45.058   9.103  12.531  0.00  0.00    +0.000 A 
ATOM     26  N   UNL     1      46.187   9.028  13.283  0.00  0.00    +0.000 NA
ATOM     27  H   UNL     1      49.201   9.597  12.994  0.00  0.00    +0.000 HD
BRANCH  24  28
ATOM     28  C   UNL     1      43.681   9.962  10.658  0.00  0.00    +0.000 C 
ATOM     29  N   UNL     1      42.878   8.861  10.789  0.00  0.00    +0.000 N 
ATOM     30  O   UNL     1      43.365  10.903   9.939  0.00  0.00    +0.000 OA
ATOM     31  H   UNL     1      43.161   8.093  11.387  0.00  0.00    +0.000 HD
ATOM     32  H   UNL     1      42.007   8.818  10.284  0.00  0.00    +0.000 HD
ENDBRANCH  24  28
ENDBRANCH  19  20
ENDBRANCH  18  19
ENDBRANCH   3  18
TORSDOF 8
ENDMDL
MODEL 7
REMARK VINA RESULT:    -6.433      3.633      7.093
REMARK INTER + INTRA:         -10.561
REMARK INTER:                  -9.375
REMARK INTRA:                  -1.186
REMARK UNBOUND:                -1.120
REMARK  Name = 
REMARK  10 active torsions:
REMARK  status: ('A' for Active; 'I' for Inactive)
REMARK    1  A    between atoms: C_1  and  C_2
REMARK    2  A    between atoms: C_2  and  O_3
REMARK    3  A    between atoms: O_3  and  C_4
REMARK    4  A    between atoms: C_6  and  C_7
REMARK    5  A    between atoms: C_7  and  C_8
REMARK    6  A    between atoms: C_8  and  N_9
REMARK    7  A    between atoms: C_13  and  C_14
REMARK    8  A    between atoms: C_20  and  C_21
REMARK    9  A    between atoms: C_25  and  O_26
REMARK   10  A    between atoms: O_26  and  C_27
REMARK                            x       y       z     vdW  Elec       q    Type
REMARK                         _______ _______ _______ _____ _____    ______ ____
ROOT
ATOM      1  C   UNL     1      48.720   6.514  14.306  0.00  0.00    +0.000 A 
ATOM      2  C   UNL     1      49.127   7.674  13.654  0.00  0.00    +0.000 A 
ATOM      3  C   UNL     1      48.408   8.104  12.539  0.00  0.00    +0.000 A 
ATOM      4  C   UNL     1      47.331   7.307  12.130  0.00  0.00    +0.000 A 
ATOM      5  C   UNL     1      46.997   6.139  12.818  0.00  0.00    +0.000 A 
ATOM      6  N   UNL     1      47.693   5.736  13.902  0.00  0.00    +0.000 NA
ENDROOT
BRANCH   5   7
ATOM      7  C   UNL     1      45.874   5.287  12.400  0.00  0.00    +0.000 A 
ATOM      8  C   UNL     1      45.188   4.491  13.316  0.00  0.00    +0.000 A 
ATOM      9  N   UNL     1      44.166   3.655  13.003  0.00  0.00    +0.000 NA
ATOM     10  C   UNL     1      43.803   3.614  11.700  0.00  0.00    +0.000 A 
ATOM     11  C   UNL     1      44.399   4.360  10.693  0.00  0.00    +0.000 A 
ATOM     12  C   UNL     1      45.441   5.207  11.061  0.00  0.00    +0.000 A 
BRANCH  11  13
ATOM     13  O   UNL     1      43.903   4.191   9.432  0.00  0.00    +0.000 OA
ATOM     14  C   UNL     1      44.845   3.921   8.400  0.00  0.00    +0.000 C 
ENDBRANCH  11  13
ENDBRANCH   5   7
BRANCH   1  15
ATOM     15  O   UNL     1      49.426   6.158  15.437  0.00  0.00    +0.000 OA
BRANCH  15  17
ATOM     16  C   UNL     1      48.794   6.905  17.611  0.00  0.00    +0.000 C 
ATOM     17  C   UNL     1      48.567   5.853  16.540  0.00  0.00    +0.000 C 
ENDBRANCH  15  17
ENDBRANCH   1  15
BRANCH   3  18
ATOM     18  C   UNL     1      48.785   9.391  11.820  0.00  0.00    +0.000 C 
BRANCH  18  19
ATOM     19  C   UNL     1      48.037  10.637  12.329  0.00  0.00    +0.000 C 
BRANCH  19  20
ATOM     20  N   UNL     1      47.443  11.442  11.256  0.00  0.00    +0.000 N 
ATOM     21  C   UNL     1      46.061  11.164  11.105  0.00  0.00    +0.000 A 
ATOM     22  C   UNL     1      45.315  11.819  10.115  0.00  0.00    +0.000 A 
ATOM     23  N   UNL     1      43.988  11.606   9.884  0.00  0.00    +0.000 NA
ATOM     24  C   UNL     1      43.412  10.699  10.719  0.00  0.00    +0.000 A 
ATOM     25  C   UNL     1      44.124  10.057  11.717  0.00  0.00    +0.000 A 
ATOM     26  N   UNL     1      45.448  10.282  11.929  0.00  0.00    +0.000 NA
ATOM     27  H   UNL     1      47.904  11.285  10.363  0.00  0.00    +0.000 HD
BRANCH  24  28
ATOM     28  C   UNL     1      41.969  10.386  10.539  0.00  0.00    +0.000 C 
ATOM     29  N   UNL     1      41.510   9.265  11.177  0.00  0.00    +0.000 N 
ATOM     30  O   UNL     1      41.226  11.090   9.865  0.00  0.00    +0.000 OA
ATOM     31  H   UNL     1      42.144   8.696  11.727  0.00  0.00    +0.000 HD
ATOM     32  H   UNL     1      40.540   9.009  11.093  0.00  0.00    +0.000 HD
ENDBRANCH  24  28
ENDBRANCH  19  20
ENDBRANCH  18  19
ENDBRANCH   3  18
TORSDOF 8
ENDMDL
MODEL 8
REMARK VINA RESULT:    -6.199      4.028      8.284
REMARK INTER + INTRA:         -10.217
REMARK INTER:                  -9.419
REMARK INTRA:                  -0.798
REMARK UNBOUND:                -1.120
REMARK  Name = 
REMARK  10 active torsions:
REMARK  status: ('A' for Active; 'I' for Inactive)
REMARK    1  A    between atoms: C_1  and  C_2
REMARK    2  A    between atoms: C_2  and  O_3
REMARK    3  A    between atoms: O_3  and  C_4
REMARK    4  A    between atoms: C_6  and  C_7
REMARK    5  A    between atoms: C_7  and  C_8
REMARK    6  A    between atoms: C_8  and  N_9
REMARK    7  A    between atoms: C_13  and  C_14
REMARK    8  A    between atoms: C_20  and  C_21
REMARK    9  A    between atoms: C_25  and  O_26
REMARK   10  A    between atoms: O_26  and  C_27
REMARK                            x       y       z     vdW  Elec       q    Type
REMARK                         _______ _______ _______ _____ _____    ______ ____
ROOT
ATOM      1  C   UNL     1      44.358   4.331  11.069  0.00  0.00    +0.000 A 
ATOM      2  C   UNL     1      45.191   3.714  11.998  0.00  0.00    +0.000 A 
ATOM      3  C   UNL     1      45.908   4.513  12.889  0.00  0.00    +0.000 A 
ATOM      4  C   UNL     1      45.765   5.900  12.758  0.00  0.00    +0.000 A 
ATOM      5  C   UNL     1      44.931   6.449  11.782  0.00  0.00    +0.000 A 
ATOM      6  N   UNL     1      44.231   5.668  10.931  0.00  0.00    +0.000 NA
ENDROOT
BRANCH   5   7
ATOM      7  C   UNL     1      44.771   7.902  11.626  0.00  0.00    +0.000 A 
ATOM      8  C   UNL     1      45.690   8.796  12.174  0.00  0.00    +0.000 A 
ATOM      9  N   UNL     1      45.594  10.147  12.102  0.00  0.00    +0.000 NA
ATOM     10  C   UNL     1      44.520  10.637  11.440  0.00  0.00    +0.000 A 
ATOM     11  C   UNL     1      43.540   9.857  10.844  0.00  0.00    +0.000 A 
ATOM     12  C   UNL     1      43.681   8.475  10.940  0.00  0.00    +0.000 A 
BRANCH  11  13
ATOM     13  O   UNL     1      42.525  10.523  10.218  0.00  0.00    +0.000 OA
ATOM     14  C   UNL     1      41.209  10.308  10.715  0.00  0.00    +0.000 C 
ENDBRANCH  11  13
ENDBRANCH   5   7
BRANCH   1  15
ATOM     15  O   UNL     1      43.624   3.500  10.248  0.00  0.00    +0.000 OA
BRANCH  15  17
ATOM     16  C   UNL     1      44.850   3.390   8.206  0.00  0.00    +0.000 C 
ATOM     17  C   UNL     1      44.455   2.637   9.464  0.00  0.00    +0.000 C 
ENDBRANCH  15  17
ENDBRANCH   1  15
BRANCH   3  18
ATOM     18  C   UNL     1      46.796   3.885  13.954  0.00  0.00    +0.000 C 
BRANCH  18  19
ATOM     19  C   UNL     1      47.452   4.903  14.903  0.00  0.00    +0.000 C 
BRANCH  19  20
ATOM     20  N   UNL     1      47.129   4.679  16.317  0.00  0.00    +0.000 N 
ATOM     21  C   UNL     1      48.282   4.780  17.134  0.00  0.00    +0.000 A 
ATOM     22  C   UNL     1      48.186   4.577  18.518  0.00  0.00    +0.000 A 
ATOM     23  N   UNL     1      49.240   4.638  19.381  0.00  0.00    +0.000 NA
ATOM     24  C   UNL     1      50.429   4.938  18.792  0.00  0.00    +0.000 A 
ATOM     25  C   UNL     1      50.544   5.163  17.431  0.00  0.00    +0.000 A 
ATOM     26  N   UNL     1      49.480   5.095  16.588  0.00  0.00    +0.000 NA
ATOM     27  H   UNL     1      46.703   3.768  16.470  0.00  0.00    +0.000 HD
BRANCH  24  28
ATOM     28  C   UNL     1      51.644   5.013  19.647  0.00  0.00    +0.000 C 
ATOM     29  N   UNL     1      52.353   3.851  19.792  0.00  0.00    +0.000 N 
ATOM     30  O   UNL     1      52.000   6.054  20.188  0.00  0.00    +0.000 OA
ATOM     31  H   UNL     1      52.038   3.002  19.338  0.00  0.00    +0.000 HD
ATOM     32  H   UNL     1      53.188   3.846  20.357  0.00  0.00    +0.000 HD
ENDBRANCH  24  28
ENDBRANCH  19  20
ENDBRANCH  18  19
ENDBRANCH   3  18
TORSDOF 8
ENDMDL
MODEL 9
REMARK VINA RESULT:    -6.067      3.148      7.794
REMARK INTER + INTRA:         -10.024
REMARK INTER:                  -8.686
REMARK INTRA:                  -1.338
REMARK UNBOUND:                -1.120
REMARK  Name = 
REMARK  10 active torsions:
REMARK  status: ('A' for Active; 'I' for Inactive)
REMARK    1  A    between atoms: C_1  and  C_2
REMARK    2  A    between atoms: C_2  and  O_3
REMARK    3  A    between atoms: O_3  and  C_4
REMARK    4  A    between atoms: C_6  and  C_7
REMARK    5  A    between atoms: C_7  and  C_8
REMARK    6  A    between atoms: C_8  and  N_9
REMARK    7  A    between atoms: C_13  and  C_14
REMARK    8  A    between atoms: C_20  and  C_21
REMARK    9  A    between atoms: C_25  and  O_26
REMARK   10  A    between atoms: O_26  and  C_27
REMARK                            x       y       z     vdW  Elec       q    Type
REMARK                         _______ _______ _______ _____ _____    ______ ____
ROOT
ATOM      1  C   UNL     1      49.924   8.228  13.266  0.00  0.00    +0.000 A 
ATOM      2  C   UNL     1      49.716   8.851  14.493  0.00  0.00    +0.000 A 
ATOM      3  C   UNL     1      48.517   8.622  15.167  0.00  0.00    +0.000 A 
ATOM      4  C   UNL     1      47.578   7.797  14.534  0.00  0.00    +0.000 A 
ATOM      5  C   UNL     1      47.845   7.227  13.287  0.00  0.00    +0.000 A 
ATOM      6  N   UNL     1      49.013   7.445  12.647  0.00  0.00    +0.000 NA
ENDROOT
BRANCH   5   7
ATOM      7  C   UNL     1      46.871   6.363  12.605  0.00  0.00    +0.000 A 
ATOM      8  C   UNL     1      46.633   6.478  11.236  0.00  0.00    +0.000 A 
ATOM      9  N   UNL     1      45.729   5.742  10.542  0.00  0.00    +0.000 NA
ATOM     10  C   UNL     1      45.022   4.833  11.255  0.00  0.00    +0.000 A 
ATOM     11  C   UNL     1      45.170   4.615  12.617  0.00  0.00    +0.000 A 
ATOM     12  C   UNL     1      46.112   5.390  13.288  0.00  0.00    +0.000 A 
BRANCH  11  13
ATOM     13  O   UNL     1      44.372   3.656  13.172  0.00  0.00    +0.000 OA
ATOM     14  C   UNL     1      43.586   2.875  12.279  0.00  0.00    +0.000 C 
ENDBRANCH  11  13
ENDBRANCH   5   7
BRANCH   1  15
ATOM     15  O   UNL     1      51.148   8.436  12.664  0.00  0.00    +0.000 OA
BRANCH  15  17
ATOM     16  C   UNL     1      53.292   8.221  13.683  0.00  0.00    +0.000 C 
ATOM     17  C   UNL     1      52.071   9.109  13.527  0.00  0.00    +0.000 C 
ENDBRANCH  15  17
ENDBRANCH   1  15
BRANCH   3  18
ATOM     18  C   UNL     1      48.261   9.243  16.533  0.00  0.00    +0.000 C 
BRANCH  18  19
ATOM     19  C   UNL     1      48.727   8.373  17.714  0.00  0.00    +0.000 C 
BRANCH  19  20
ATOM     20  N   UNL     1      47.791   7.295  18.052  0.00  0.00    +0.000 N 
ATOM     21  C   UNL     1      48.352   6.020  17.786  0.00  0.00    +0.000 A 
ATOM     22  C   UNL     1      47.604   4.858  18.024  0.00  0.00    +0.000 A 
ATOM     23  N   UNL     1      48.052   3.593  17.785  0.00  0.00    +0.000 NA
ATOM     24  C   UNL     1      49.322   3.529  17.302  0.00  0.00    +0.000 A 
ATOM     25  C   UNL     1      50.086   4.662  17.080  0.00  0.00    +0.000 A 
ATOM     26  N   UNL     1      49.619   5.915  17.323  0.00  0.00    +0.000 NA
ATOM     27  H   UNL     1      46.916   7.376  17.540  0.00  0.00    +0.000 HD
BRANCH  24  28
ATOM     28  C   UNL     1      49.898   2.192  16.994  0.00  0.00    +0.000 C 
ATOM     29  N   UNL     1      50.813   1.709  17.890  0.00  0.00    +0.000 N 
ATOM     30  O   UNL     1      49.571   1.551  16.002  0.00  0.00    +0.000 OA
ATOM     31  H   UNL     1      51.071   2.258  18.702  0.00  0.00    +0.000 HD
ATOM     32  H   UNL     1      51.232   0.806  17.734  0.00  0.00    +0.000 HD
ENDBRANCH  24  28
ENDBRANCH  19  20
ENDBRANCH  18  19
ENDBRANCH   3  18
TORSDOF 8
ENDMDL
