MODEL 1
REMARK VINA RESULT:    -8.096      0.000      0.000
REMARK INTER + INTRA:         -14.458
REMARK INTER:                 -12.593
REMARK INTRA:                  -1.865
REMARK UNBOUND:                -1.865
REMARK  Name = 
REMARK  10 active torsions:
REMARK  status: ('A' for Active; 'I' for Inactive)
REMARK    1  A    between atoms: C_2  and  C_23
REMARK    2  A    between atoms: N_3  and  C_4
REMARK    3  A    between atoms: C_4  and  C_5
REMARK    4  A    between atoms: C_8  and  C_9
REMARK    5  A    between atoms: C_9  and  N_10
REMARK    6  A    between atoms: N_10  and  C_11
REMARK    7  A    between atoms: N_10  and  C_14
REMARK    8  A    between atoms: C_11  and  C_12
REMARK    9  A    between atoms: C_12  and  O_13
REMARK   10  A    between atoms: C_14  and  C_15
REMARK                            x       y       z     vdW  Elec       q    Type
REMARK                         _______ _______ _______ _____ _____    ______ ____
ROOT
ATOM      1  C   UNL     1      46.195   7.511  12.254  0.00  0.00    +0.000 A 
ATOM      2  C   UNL     1      46.881   6.632  11.408  0.00  0.00    +0.000 A 
ATOM      3  C   UNL     1      46.179   5.761  10.578  0.00  0.00    +0.000 A 
ATOM      4  C   UNL     1      44.777   5.749  10.588  0.00  0.00    +0.000 A 
ATOM      5  C   UNL     1      44.093   6.712  11.343  0.00  0.00    +0.000 A 
ATOM      6  C   UNL     1      44.799   7.591  12.166  0.00  0.00    +0.000 A 
ENDROOT
BRANCH   1   7
ATOM      7  C   UNL     1      46.953   8.334  13.258  0.00  0.00    +0.000 C 
BRANCH   7  10
ATOM      8  O   UNL     1      49.564   7.463  13.801  0.00  0.00    +0.000 OA
ATOM      9  C   UNL     1      48.670   7.199  14.600  0.00  0.00    +0.000 C 
ATOM     10  N   UNL     1      47.365   7.552  14.388  0.00  0.00    +0.000 N 
ATOM     11  H   UNL     1      46.694   7.471  15.144  0.00  0.00    +0.000 HD
BRANCH   9  12
ATOM     12  C   UNL     1      48.938   6.422  15.817  0.00  0.00    +0.000 A 
ATOM     13  C   UNL     1      49.907   6.859  16.709  0.00  0.00    +0.000 A 
ATOM     14  S   UNL     1      50.099   5.836  18.059  0.00  0.00    +0.000 S 
ATOM     15  C   UNL     1      48.863   4.800  17.521  0.00  0.00    +0.000 A 
ATOM     16  N   UNL     1      48.491   3.718  18.255  0.00  0.00    +0.000 NA
ATOM     17  C   UNL     1      47.512   3.042  17.751  0.00  0.00    +0.000 A 
ATOM     18  N   UNL     1      46.883   3.343  16.570  0.00  0.00    +0.000 N 
ATOM     19  C   UNL     1      47.279   4.375  15.754  0.00  0.00    +0.000 A 
ATOM     20  O   UNL     1      46.795   4.522  14.642  0.00  0.00    +0.000 OA
ATOM     21  C   UNL     1      48.336   5.206  16.307  0.00  0.00    +0.000 A 
ATOM     22  H   UNL     1      46.148   2.749  16.213  0.00  0.00    +0.000 HD
ENDBRANCH   9  12
ENDBRANCH   7  10
ENDBRANCH   1   7
BRANCH   4  23
ATOM     23  C   UNL     1      44.025   4.660   9.850  0.00  0.00    +0.000 C 
BRANCH  23  24
ATOM     24  N   UNL     1      44.444   3.291  10.256  0.00  0.00    +0.000 NA
BRANCH  24  25
ATOM     25  C   UNL     1      43.590   2.795  11.365  0.00  0.00    +0.000 C 
BRANCH  25  26
ATOM     26  C   UNL     1      44.142   3.041  12.783  0.00  0.00    +0.000 C 
BRANCH  26  27
ATOM     27  O   UNL     1      45.537   2.746  12.835  0.00  0.00    +0.000 OA
ATOM     28  H   UNL     1      45.635   1.792  12.675  0.00  0.00    +0.000 HD
ENDBRANCH  26  27
ENDBRANCH  25  26
ENDBRANCH  24  25
BRANCH  24  29
ATOM     29  C   UNL     1      44.373   2.372   9.104  0.00  0.00    +0.000 C 
BRANCH  29  30
ATOM     30  C   UNL     1      45.596   2.354   8.222  0.00  0.00    +0.000 A 
ATOM     31  C   UNL     1      46.107   3.519   7.640  0.00  0.00    +0.000 A 
ATOM     32  C   UNL     1      47.287   3.459   6.904  0.00  0.00    +0.000 A 
ATOM     33  C   UNL     1      47.917   2.233   6.772  0.00  0.00    +0.000 A 
ATOM     34  N   UNL     1      47.448   1.086   7.304  0.00  0.00    +0.000 NA
ATOM     35  C   UNL     1      46.302   1.175   8.017  0.00  0.00    +0.000 A 
ENDBRANCH  29  30
ENDBRANCH  24  29
ENDBRANCH  23  24
ENDBRANCH   4  23
TORSDOF 10
ENDMDL
MODEL 2
REMARK VINA RESULT:    -7.279      1.928      2.466
REMARK INTER + INTRA:         -13.187
REMARK INTER:                 -11.890
REMARK INTRA:                  -1.297
REMARK UNBOUND:                -1.865
REMARK  Name = 
REMARK  10 active torsions:
REMARK  status: ('A' for Active; 'I' for Inactive)
REMARK    1  A    between atoms: C_2  and  C_23
REMARK    2  A    between atoms: N_3  and  C_4
REMARK    3  A    between atoms: C_4  and  C_5
REMARK    4  A    between atoms: C_8  and  C_9
REMARK    5  A    between atoms: C_9  and  N_10
REMARK    6  A    between atoms: N_10  and  C_11
REMARK    7  A    between atoms: N_10  and  C_14
REMARK    8  A    between atoms: C_11  and  C_12
REMARK    9  A    between atoms: C_12  and  O_13
REMARK   10  A    between atoms: C_14  and  C_15
REMARK                            x       y       z     vdW  Elec       q    Type
REMARK                         _______ _______ _______ _____ _____    ______ ____
ROOT
ATOM      1  C   UNL     1      48.231   6.728  13.333  0.00  0.00    +0.000 A 
ATOM      2  C   UNL     1      47.310   5.774  13.781  0.00  0.00    +0.000 A 
ATOM      3  C   UNL     1      46.204   5.443  13.002  0.00  0.00    +0.000 A 
ATOM      4  C   UNL     1      45.997   6.068  11.764  0.00  0.00    +0.000 A 
ATOM      5  C   UNL     1      46.982   6.930  11.263  0.00  0.00    +0.000 A 
ATOM      6  C   UNL     1      48.095   7.253  12.041  0.00  0.00    +0.000 A 
ENDROOT
BRANCH   1   7
ATOM      7  C   UNL     1      49.333   7.196  14.244  0.00  0.00    +0.000 C 
BRANCH   7  10
ATOM      8  O   UNL     1      49.801   8.974  16.363  0.00  0.00    +0.000 OA
ATOM      9  C   UNL     1      49.244   7.905  16.595  0.00  0.00    +0.000 C 
ATOM     10  N   UNL     1      49.017   6.967  15.625  0.00  0.00    +0.000 N 
ATOM     11  H   UNL     1      48.405   6.182  15.819  0.00  0.00    +0.000 HD
BRANCH   9  12
ATOM     12  C   UNL     1      48.840   7.534  17.957  0.00  0.00    +0.000 A 
ATOM     13  C   UNL     1      48.224   8.476  18.769  0.00  0.00    +0.000 A 
ATOM     14  S   UNL     1      47.832   7.884  20.320  0.00  0.00    +0.000 S 
ATOM     15  C   UNL     1      48.431   6.338  19.943  0.00  0.00    +0.000 A 
ATOM     16  N   UNL     1      48.361   5.325  20.847  0.00  0.00    +0.000 NA
ATOM     17  C   UNL     1      48.813   4.193  20.415  0.00  0.00    +0.000 A 
ATOM     18  N   UNL     1      49.341   3.990  19.166  0.00  0.00    +0.000 N 
ATOM     19  C   UNL     1      49.509   5.001  18.252  0.00  0.00    +0.000 A 
ATOM     20  O   UNL     1      50.118   4.816  17.209  0.00  0.00    +0.000 OA
ATOM     21  C   UNL     1      48.958   6.282  18.665  0.00  0.00    +0.000 A 
ATOM     22  H   UNL     1      49.712   3.087  18.905  0.00  0.00    +0.000 HD
ENDBRANCH   9  12
ENDBRANCH   7  10
ENDBRANCH   1   7
BRANCH   4  23
ATOM     23  C   UNL     1      44.690   5.866  11.024  0.00  0.00    +0.000 C 
BRANCH  23  24
ATOM     24  N   UNL     1      44.463   4.449  10.628  0.00  0.00    +0.000 NA
BRANCH  24  25
ATOM     25  C   UNL     1      43.259   3.908  11.308  0.00  0.00    +0.000 C 
BRANCH  25  26
ATOM     26  C   UNL     1      43.536   2.885  12.427  0.00  0.00    +0.000 C 
BRANCH  26  27
ATOM     27  O   UNL     1      44.905   2.484  12.410  0.00  0.00    +0.000 OA
ATOM     28  H   UNL     1      44.919   1.521  12.278  0.00  0.00    +0.000 HD
ENDBRANCH  26  27
ENDBRANCH  25  26
ENDBRANCH  24  25
BRANCH  24  29
ATOM     29  C   UNL     1      44.316   4.344   9.164  0.00  0.00    +0.000 C 
BRANCH  29  30
ATOM     30  C   UNL     1      45.251   3.368   8.494  0.00  0.00    +0.000 A 
ATOM     31  C   UNL     1      46.203   3.778   7.556  0.00  0.00    +0.000 A 
ATOM     32  C   UNL     1      47.097   2.849   7.032  0.00  0.00    +0.000 A 
ATOM     33  C   UNL     1      47.006   1.536   7.462  0.00  0.00    +0.000 A 
ATOM     34  N   UNL     1      46.093   1.098   8.353  0.00  0.00    +0.000 NA
ATOM     35  C   UNL     1      45.240   2.024   8.848  0.00  0.00    +0.000 A 
ENDBRANCH  29  30
ENDBRANCH  24  29
ENDBRANCH  23  24
ENDBRANCH   4  23
TORSDOF 10
ENDMDL
MODEL 3
REMARK VINA RESULT:    -7.065      2.096      2.599
REMARK INTER + INTRA:         -12.855
REMARK INTER:                 -11.580
REMARK INTRA:                  -1.275
REMARK UNBOUND:                -1.865
REMARK  Name = 
REMARK  10 active torsions:
REMARK  status: ('A' for Active; 'I' for Inactive)
REMARK    1  A    between atoms: C_2  and  C_23
REMARK    2  A    between atoms: N_3  and  C_4
REMARK    3  A    between atoms: C_4  and  C_5
REMARK    4  A    between atoms: C_8  and  C_9
REMARK    5  A    between atoms: C_9  and  N_10
REMARK    6  A    between atoms: N_10  and  C_11
REMARK    7  A    between atoms: N_10  and  C_14
REMARK    8  A    between atoms: C_11  and  C_12
REMARK    9  A    between atoms: C_12  and  O_13
REMARK   10  A    between atoms: C_14  and  C_15
REMARK                            x       y       z     vdW  Elec       q    Type
REMARK                         _______ _______ _______ _____ _____    ______ ____
ROOT
ATOM      1  C   UNL     1      47.363   7.704  13.178  0.00  0.00    +0.000 A 
ATOM      2  C   UNL     1      47.587   6.671  12.262  0.00  0.00    +0.000 A 
ATOM      3  C   UNL     1      46.558   6.228  11.434  0.00  0.00    +0.000 A 
ATOM      4  C   UNL     1      45.284   6.808  11.516  0.00  0.00    +0.000 A 
ATOM      5  C   UNL     1      45.095   7.922  12.345  0.00  0.00    +0.000 A 
ATOM      6  C   UNL     1      46.131   8.370  13.167  0.00  0.00    +0.000 A 
ENDROOT
BRANCH   1   7
ATOM      7  C   UNL     1      48.428   8.069  14.176  0.00  0.00    +0.000 C 
BRANCH   7  10
ATOM      8  O   UNL     1      50.342   6.556  15.563  0.00  0.00    +0.000 OA
ATOM      9  C   UNL     1      49.232   6.717  16.064  0.00  0.00    +0.000 C 
ATOM     10  N   UNL     1      48.232   7.406  15.433  0.00  0.00    +0.000 N 
ATOM     11  H   UNL     1      47.398   7.664  15.948  0.00  0.00    +0.000 HD
BRANCH   9  12
ATOM     12  C   UNL     1      48.885   6.117  17.358  0.00  0.00    +0.000 A 
ATOM     13  C   UNL     1      49.122   4.767  17.573  0.00  0.00    +0.000 A 
ATOM     14  S   UNL     1      48.651   4.232  19.121  0.00  0.00    +0.000 S 
ATOM     15  C   UNL     1      48.156   5.795  19.573  0.00  0.00    +0.000 A 
ATOM     16  N   UNL     1      47.675   6.040  20.820  0.00  0.00    +0.000 NA
ATOM     17  C   UNL     1      47.378   7.278  21.043  0.00  0.00    +0.000 A 
ATOM     18  N   UNL     1      47.503   8.288  20.124  0.00  0.00    +0.000 N 
ATOM     19  C   UNL     1      47.904   8.073  18.828  0.00  0.00    +0.000 A 
ATOM     20  O   UNL     1      47.861   8.968  17.997  0.00  0.00    +0.000 OA
ATOM     21  C   UNL     1      48.312   6.706  18.544  0.00  0.00    +0.000 A 
ATOM     22  H   UNL     1      47.216   9.229  20.352  0.00  0.00    +0.000 HD
ENDBRANCH   9  12
ENDBRANCH   7  10
ENDBRANCH   1   7
BRANCH   4  23
ATOM     23  C   UNL     1      44.119   6.184  10.773  0.00  0.00    +0.000 C 
BRANCH  23  24
ATOM     24  N   UNL     1      44.293   4.723  10.549  0.00  0.00    +0.000 NA
BRANCH  24  25
ATOM     25  C   UNL     1      43.363   3.952  11.413  0.00  0.00    +0.000 C 
BRANCH  25  26
ATOM     26  C   UNL     1      44.015   2.844  12.262  0.00  0.00    +0.000 C 
BRANCH  26  27
ATOM     27  O   UNL     1      43.254   1.640  12.182  0.00  0.00    +0.000 OA
ATOM     28  H   UNL     1      43.874   0.923  11.965  0.00  0.00    +0.000 HD
ENDBRANCH  26  27
ENDBRANCH  25  26
ENDBRANCH  24  25
BRANCH  24  29
ATOM     29  C   UNL     1      44.066   4.394   9.129  0.00  0.00    +0.000 C 
BRANCH  29  30
ATOM     30  C   UNL     1      45.067   3.441   8.524  0.00  0.00    +0.000 A 
ATOM     31  C   UNL     1      46.066   3.875   7.649  0.00  0.00    +0.000 A 
ATOM     32  C   UNL     1      47.017   2.968   7.186  0.00  0.00    +0.000 A 
ATOM     33  C   UNL     1      46.933   1.654   7.614  0.00  0.00    +0.000 A 
ATOM     34  N   UNL     1      45.975   1.194   8.446  0.00  0.00    +0.000 NA
ATOM     35  C   UNL     1      45.069   2.098   8.882  0.00  0.00    +0.000 A 
ENDBRANCH  29  30
ENDBRANCH  24  29
ENDBRANCH  23  24
ENDBRANCH   4  23
TORSDOF 10
ENDMDL
MODEL 4
REMARK VINA RESULT:    -6.826      2.824      3.606
REMARK INTER + INTRA:         -12.483
REMARK INTER:                 -11.823
REMARK INTRA:                  -0.660
REMARK UNBOUND:                -1.865
REMARK  Name = 
REMARK  10 active torsions:
REMARK  status: ('A' for Active; 'I' for Inactive)
REMARK    1  A    between atoms: C_2  and  C_23
REMARK    2  A    between atoms: N_3  and  C_4
REMARK    3  A    between atoms: C_4  and  C_5
REMARK    4  A    between atoms: C_8  and  C_9
REMARK    5  A    between atoms: C_9  and  N_10
REMARK    6  A    between atoms: N_10  and  C_11
REMARK    7  A    between atoms: N_10  and  C_14
REMARK    8  A    between atoms: C_11  and  C_12
REMARK    9  A    between atoms: C_12  and  O_13
REMARK   10  A    between atoms: C_14  and  C_15
REMARK                            x       y       z     vdW  Elec       q    Type
REMARK                         _______ _______ _______ _____ _____    ______ ____
ROOT
ATOM      1  C   UNL     1      48.443   6.917  14.616  0.00  0.00    +0.000 A 
ATOM      2  C   UNL     1      47.744   5.708  14.525  0.00  0.00    +0.000 A 
ATOM      3  C   UNL     1      47.055   5.379  13.361  0.00  0.00    +0.000 A 
ATOM      4  C   UNL     1      47.046   6.259  12.270  0.00  0.00    +0.000 A 
ATOM      5  C   UNL     1      47.844   7.410  12.317  0.00  0.00    +0.000 A 
ATOM      6  C   UNL     1      48.543   7.733  13.481  0.00  0.00    +0.000 A 
ENDROOT
BRANCH   1   7
ATOM      7  C   UNL     1      49.051   7.339  15.926  0.00  0.00    +0.000 C 
BRANCH   7  10
ATOM      8  O   UNL     1      49.044   5.475  18.023  0.00  0.00    +0.000 OA
ATOM      9  C   UNL     1      50.045   5.577  17.320  0.00  0.00    +0.000 C 
ATOM     10  N   UNL     1      50.143   6.490  16.305  0.00  0.00    +0.000 N 
ATOM     11  H   UNL     1      50.909   6.424  15.643  0.00  0.00    +0.000 HD
BRANCH   9  12
ATOM     12  C   UNL     1      51.240   4.760  17.570  0.00  0.00    +0.000 A 
ATOM     13  C   UNL     1      52.431   5.379  17.922  0.00  0.00    +0.000 A 
ATOM     14  S   UNL     1      53.718   4.289  18.164  0.00  0.00    +0.000 S 
ATOM     15  C   UNL     1      52.717   2.950  17.851  0.00  0.00    +0.000 A 
ATOM     16  N   UNL     1      53.203   1.683  17.931  0.00  0.00    +0.000 NA
ATOM     17  C   UNL     1      52.325   0.760  17.712  0.00  0.00    +0.000 A 
ATOM     18  N   UNL     1      51.009   0.993  17.404  0.00  0.00    +0.000 N 
ATOM     19  C   UNL     1      50.494   2.255  17.230  0.00  0.00    +0.000 A 
ATOM     20  O   UNL     1      49.359   2.422  16.811  0.00  0.00    +0.000 OA
ATOM     21  C   UNL     1      51.427   3.331  17.528  0.00  0.00    +0.000 A 
ATOM     22  H   UNL     1      50.383   0.225  17.206  0.00  0.00    +0.000 HD
ENDBRANCH   9  12
ENDBRANCH   7  10
ENDBRANCH   1   7
BRANCH   4  23
ATOM     23  C   UNL     1      46.125   5.999  11.095  0.00  0.00    +0.000 C 
BRANCH  23  24
ATOM     24  N   UNL     1      44.966   5.135  11.449  0.00  0.00    +0.000 NA
BRANCH  24  25
ATOM     25  C   UNL     1      44.030   5.865  12.343  0.00  0.00    +0.000 C 
BRANCH  25  26
ATOM     26  C   UNL     1      42.552   5.443  12.238  0.00  0.00    +0.000 C 
BRANCH  26  27
ATOM     27  O   UNL     1      41.746   6.546  11.828  0.00  0.00    +0.000 OA
ATOM     28  H   UNL     1      40.946   6.538  12.382  0.00  0.00    +0.000 HD
ENDBRANCH  26  27
ENDBRANCH  25  26
ENDBRANCH  24  25
BRANCH  24  29
ATOM     29  C   UNL     1      44.268   4.691  10.229  0.00  0.00    +0.000 C 
BRANCH  29  30
ATOM     30  C   UNL     1      45.098   3.862   9.281  0.00  0.00    +0.000 A 
ATOM     31  C   UNL     1      45.222   2.477   9.422  0.00  0.00    +0.000 A 
ATOM     32  C   UNL     1      45.931   1.748   8.470  0.00  0.00    +0.000 A 
ATOM     33  C   UNL     1      46.496   2.433   7.408  0.00  0.00    +0.000 A 
ATOM     34  N   UNL     1      46.412   3.770   7.244  0.00  0.00    +0.000 NA
ATOM     35  C   UNL     1      45.714   4.450   8.182  0.00  0.00    +0.000 A 
ENDBRANCH  29  30
ENDBRANCH  24  29
ENDBRANCH  23  24
ENDBRANCH   4  23
TORSDOF 10
ENDMDL
MODEL 5
REMARK VINA RESULT:    -6.621      2.963      4.102
REMARK INTER + INTRA:         -12.163
REMARK INTER:                 -11.209
REMARK INTRA:                  -0.954
REMARK UNBOUND:                -1.865
REMARK  Name = 
REMARK  10 active torsions:
REMARK  status: ('A' for Active; 'I' for Inactive)
REMARK    1  A    between atoms: C_2  and  C_23
REMARK    2  A    between atoms: N_3  and  C_4
REMARK    3  A    between atoms: C_4  and  C_5
REMARK    4  A    between atoms: C_8  and  C_9
REMARK    5  A    between atoms: C_9  and  N_10
REMARK    6  A    between atoms: N_10  and  C_11
REMARK    7  A    between atoms: N_10  and  C_14
REMARK    8  A    between atoms: C_11  and  C_12
REMARK    9  A    between atoms: C_12  and  O_13
REMARK   10  A    between atoms: C_14  and  C_15
REMARK                            x       y       z     vdW  Elec       q    Type
REMARK                         _______ _______ _______ _____ _____    ______ ____
ROOT
ATOM      1  C   UNL     1      47.368   5.251  14.984  0.00  0.00    +0.000 A 
ATOM      2  C   UNL     1      46.859   4.061  14.451  0.00  0.00    +0.000 A 
ATOM      3  C   UNL     1      46.298   4.044  13.176  0.00  0.00    +0.000 A 
ATOM      4  C   UNL     1      46.231   5.219  12.416  0.00  0.00    +0.000 A 
ATOM      5  C   UNL     1      46.851   6.379  12.899  0.00  0.00    +0.000 A 
ATOM      6  C   UNL     1      47.421   6.393  14.173  0.00  0.00    +0.000 A 
ENDROOT
BRANCH   1   7
ATOM      7  C   UNL     1      47.826   5.299  16.416  0.00  0.00    +0.000 C 
BRANCH   7  10
ATOM      8  O   UNL     1      48.335   3.300  18.317  0.00  0.00    +0.000 OA
ATOM      9  C   UNL     1      49.224   3.615  17.531  0.00  0.00    +0.000 C 
ATOM     10  N   UNL     1      49.069   4.608  16.603  0.00  0.00    +0.000 N 
ATOM     11  H   UNL     1      49.756   4.717  15.865  0.00  0.00    +0.000 HD
BRANCH   9  12
ATOM     12  C   UNL     1      50.548   2.982  17.583  0.00  0.00    +0.000 A 
ATOM     13  C   UNL     1      50.666   1.621  17.339  0.00  0.00    +0.000 A 
ATOM     14  S   UNL     1      52.267   1.047  17.449  0.00  0.00    +0.000 S 
ATOM     15  C   UNL     1      52.863   2.605  17.782  0.00  0.00    +0.000 A 
ATOM     16  N   UNL     1      54.194   2.820  17.952  0.00  0.00    +0.000 NA
ATOM     17  C   UNL     1      54.512   4.056  18.156  0.00  0.00    +0.000 A 
ATOM     18  N   UNL     1      53.616   5.092  18.221  0.00  0.00    +0.000 N 
ATOM     19  C   UNL     1      52.256   4.910  18.140  0.00  0.00    +0.000 A 
ATOM     20  O   UNL     1      51.482   5.831  18.352  0.00  0.00    +0.000 OA
ATOM     21  C   UNL     1      51.849   3.545  17.847  0.00  0.00    +0.000 A 
ATOM     22  H   UNL     1      53.928   6.031  18.422  0.00  0.00    +0.000 HD
ENDBRANCH   9  12
ENDBRANCH   7  10
ENDBRANCH   1   7
BRANCH   4  23
ATOM     23  C   UNL     1      45.433   5.243  11.127  0.00  0.00    +0.000 C 
BRANCH  23  24
ATOM     24  N   UNL     1      44.686   3.978  10.887  0.00  0.00    +0.000 NA
BRANCH  24  25
ATOM     25  C   UNL     1      43.441   3.951  11.697  0.00  0.00    +0.000 C 
BRANCH  25  26
ATOM     26  C   UNL     1      42.761   5.317  11.911  0.00  0.00    +0.000 C 
BRANCH  26  27
ATOM     27  O   UNL     1      42.761   5.664  13.295  0.00  0.00    +0.000 OA
ATOM     28  H   UNL     1      42.880   4.840  13.797  0.00  0.00    +0.000 HD
ENDBRANCH  26  27
ENDBRANCH  25  26
ENDBRANCH  24  25
BRANCH  24  29
ATOM     29  C   UNL     1      44.368   3.836   9.454  0.00  0.00    +0.000 C 
BRANCH  29  30
ATOM     30  C   UNL     1      45.404   3.103   8.638  0.00  0.00    +0.000 A 
ATOM     31  C   UNL     1      45.593   1.722   8.750  0.00  0.00    +0.000 A 
ATOM     32  C   UNL     1      46.503   1.082   7.912  0.00  0.00    +0.000 A 
ATOM     33  C   UNL     1      47.196   1.848   6.990  0.00  0.00    +0.000 A 
ATOM     34  N   UNL     1      47.053   3.183   6.862  0.00  0.00    +0.000 NA
ATOM     35  C   UNL     1      46.160   3.777   7.686  0.00  0.00    +0.000 A 
ENDBRANCH  29  30
ENDBRANCH  24  29
ENDBRANCH  23  24
ENDBRANCH   4  23
TORSDOF 10
ENDMDL
MODEL 6
REMARK VINA RESULT:    -6.337      2.304      3.217
REMARK INTER + INTRA:         -11.722
REMARK INTER:                 -10.239
REMARK INTRA:                  -1.483
REMARK UNBOUND:                -1.865
REMARK  Name = 
REMARK  10 active torsions:
REMARK  status: ('A' for Active; 'I' for Inactive)
REMARK    1  A    between atoms: C_2  and  C_23
REMARK    2  A    between atoms: N_3  and  C_4
REMARK    3  A    between atoms: C_4  and  C_5
REMARK    4  A    between atoms: C_8  and  C_9
REMARK    5  A    between atoms: C_9  and  N_10
REMARK    6  A    between atoms: N_10  and  C_11
REMARK    7  A    between atoms: N_10  and  C_14
REMARK    8  A    between atoms: C_11  and  C_12
REMARK    9  A    between atoms: C_12  and  O_13
REMARK   10  A    between atoms: C_14  and  C_15
REMARK                            x       y       z     vdW  Elec       q    Type
REMARK                         _______ _______ _______ _____ _____    ______ ____
ROOT
ATOM      1  C   UNL     1      48.497   8.074  13.128  0.00  0.00    +0.000 A 
ATOM      2  C   UNL     1      48.625   7.329  11.951  0.00  0.00    +0.000 A 
ATOM      3  C   UNL     1      47.494   6.865  11.284  0.00  0.00    +0.000 A 
ATOM      4  C   UNL     1      46.214   7.133  11.789  0.00  0.00    +0.000 A 
ATOM      5  C   UNL     1      46.083   7.981  12.897  0.00  0.00    +0.000 A 
ATOM      6  C   UNL     1      47.218   8.453  13.558  0.00  0.00    +0.000 A 
ENDROOT
BRANCH   1   7
ATOM      7  C   UNL     1      49.718   8.435  13.928  0.00  0.00    +0.000 C 
BRANCH   7  10
ATOM      8  O   UNL     1      48.975   7.950  16.589  0.00  0.00    +0.000 OA
ATOM      9  C   UNL     1      49.723   7.156  16.025  0.00  0.00    +0.000 C 
ATOM     10  N   UNL     1      50.164   7.343  14.744  0.00  0.00    +0.000 N 
ATOM     11  H   UNL     1      50.634   6.586  14.259  0.00  0.00    +0.000 HD
BRANCH   9  12
ATOM     12  C   UNL     1      50.249   5.975  16.722  0.00  0.00    +0.000 A 
ATOM     13  C   UNL     1      49.368   5.022  17.213  0.00  0.00    +0.000 A 
ATOM     14  S   UNL     1      50.142   3.725  18.004  0.00  0.00    +0.000 S 
ATOM     15  C   UNL     1      51.682   4.370  17.677  0.00  0.00    +0.000 A 
ATOM     16  N   UNL     1      52.808   3.713  18.060  0.00  0.00    +0.000 NA
ATOM     17  C   UNL     1      53.909   4.294  17.710  0.00  0.00    +0.000 A 
ATOM     18  N   UNL     1      53.981   5.480  17.026  0.00  0.00    +0.000 N 
ATOM     19  C   UNL     1      52.873   6.220  16.693  0.00  0.00    +0.000 A 
ATOM     20  O   UNL     1      52.980   7.340  16.218  0.00  0.00    +0.000 OA
ATOM     21  C   UNL     1      51.606   5.579  17.007  0.00  0.00    +0.000 A 
ATOM     22  H   UNL     1      54.876   5.900  16.817  0.00  0.00    +0.000 HD
ENDBRANCH   9  12
ENDBRANCH   7  10
ENDBRANCH   1   7
BRANCH   4  23
ATOM     23  C   UNL     1      45.003   6.450  11.185  0.00  0.00    +0.000 C 
BRANCH  23  24
ATOM     24  N   UNL     1      45.174   4.977  11.058  0.00  0.00    +0.000 NA
BRANCH  24  25
ATOM     25  C   UNL     1      44.734   4.295  12.302  0.00  0.00    +0.000 C 
BRANCH  25  26
ATOM     26  C   UNL     1      45.635   3.138  12.775  0.00  0.00    +0.000 C 
BRANCH  26  27
ATOM     27  O   UNL     1      46.628   3.616  13.681  0.00  0.00    +0.000 OA
ATOM     28  H   UNL     1      47.332   2.946  13.714  0.00  0.00    +0.000 HD
ENDBRANCH  26  27
ENDBRANCH  25  26
ENDBRANCH  24  25
BRANCH  24  29
ATOM     29  C   UNL     1      44.413   4.473   9.900  0.00  0.00    +0.000 C 
BRANCH  29  30
ATOM     30  C   UNL     1      45.184   3.566   8.972  0.00  0.00    +0.000 A 
ATOM     31  C   UNL     1      45.913   4.063   7.888  0.00  0.00    +0.000 A 
ATOM     32  C   UNL     1      46.675   3.192   7.114  0.00  0.00    +0.000 A 
ATOM     33  C   UNL     1      46.680   1.849   7.450  0.00  0.00    +0.000 A 
ATOM     34  N   UNL     1      45.978   1.328   8.479  0.00  0.00    +0.000 NA
ATOM     35  C   UNL     1      45.250   2.199   9.214  0.00  0.00    +0.000 A 
ENDBRANCH  29  30
ENDBRANCH  24  29
ENDBRANCH  23  24
ENDBRANCH   4  23
TORSDOF 10
ENDMDL
MODEL 7
REMARK VINA RESULT:    -6.236      2.939      8.388
REMARK INTER + INTRA:         -11.564
REMARK INTER:                  -9.762
REMARK INTRA:                  -1.802
REMARK UNBOUND:                -1.865
REMARK  Name = 
REMARK  10 active torsions:
REMARK  status: ('A' for Active; 'I' for Inactive)
REMARK    1  A    between atoms: C_2  and  C_23
REMARK    2  A    between atoms: N_3  and  C_4
REMARK    3  A    between atoms: C_4  and  C_5
REMARK    4  A    between atoms: C_8  and  C_9
REMARK    5  A    between atoms: C_9  and  N_10
REMARK    6  A    between atoms: N_10  and  C_11
REMARK    7  A    between atoms: N_10  and  C_14
REMARK    8  A    between atoms: C_11  and  C_12
REMARK    9  A    between atoms: C_12  and  O_13
REMARK   10  A    between atoms: C_14  and  C_15
REMARK                            x       y       z     vdW  Elec       q    Type
REMARK                         _______ _______ _______ _____ _____    ______ ____
ROOT
ATOM      1  C   UNL     1      48.136   7.932  13.462  0.00  0.00    +0.000 A 
ATOM      2  C   UNL     1      47.818   9.074  14.205  0.00  0.00    +0.000 A 
ATOM      3  C   UNL     1      48.125   9.140  15.562  0.00  0.00    +0.000 A 
ATOM      4  C   UNL     1      48.749   8.059  16.200  0.00  0.00    +0.000 A 
ATOM      5  C   UNL     1      49.177   6.969  15.431  0.00  0.00    +0.000 A 
ATOM      6  C   UNL     1      48.877   6.909  14.069  0.00  0.00    +0.000 A 
ENDROOT
BRANCH   1   7
ATOM      7  C   UNL     1      47.661   7.802  12.041  0.00  0.00    +0.000 C 
BRANCH   7  10
ATOM      8  O   UNL     1      44.872   7.503  12.125  0.00  0.00    +0.000 OA
ATOM      9  C   UNL     1      45.568   6.529  11.850  0.00  0.00    +0.000 C 
ATOM     10  N   UNL     1      46.935   6.583  11.830  0.00  0.00    +0.000 N 
ATOM     11  H   UNL     1      47.462   5.813  11.432  0.00  0.00    +0.000 HD
BRANCH   9  12
ATOM     12  C   UNL     1      44.970   5.214  11.587  0.00  0.00    +0.000 A 
ATOM     13  C   UNL     1      44.263   4.570  12.593  0.00  0.00    +0.000 A 
ATOM     14  S   UNL     1      43.647   3.051  12.125  0.00  0.00    +0.000 S 
ATOM     15  C   UNL     1      44.265   3.222  10.550  0.00  0.00    +0.000 A 
ATOM     16  N   UNL     1      44.052   2.263   9.611  0.00  0.00    +0.000 NA
ATOM     17  C   UNL     1      44.540   2.541   8.446  0.00  0.00    +0.000 A 
ATOM     18  N   UNL     1      45.235   3.683   8.144  0.00  0.00    +0.000 N 
ATOM     19  C   UNL     1      45.547   4.638   9.081  0.00  0.00    +0.000 A 
ATOM     20  O   UNL     1      46.294   5.567   8.812  0.00  0.00    +0.000 OA
ATOM     21  C   UNL     1      44.966   4.405  10.393  0.00  0.00    +0.000 A 
ATOM     22  H   UNL     1      45.624   3.820   7.222  0.00  0.00    +0.000 HD
ENDBRANCH   9  12
ENDBRANCH   7  10
ENDBRANCH   1   7
BRANCH   4  23
ATOM     23  C   UNL     1      48.886   8.048  17.710  0.00  0.00    +0.000 C 
BRANCH  23  24
ATOM     24  N   UNL     1      49.977   7.153  18.184  0.00  0.00    +0.000 NA
BRANCH  24  25
ATOM     25  C   UNL     1      50.981   7.926  18.959  0.00  0.00    +0.000 C 
BRANCH  25  26
ATOM     26  C   UNL     1      50.463   9.232  19.594  0.00  0.00    +0.000 C 
BRANCH  26  27
ATOM     27  O   UNL     1      50.190   9.039  20.981  0.00  0.00    +0.000 OA
ATOM     28  H   UNL     1      50.368   9.884  21.428  0.00  0.00    +0.000 HD
ENDBRANCH  26  27
ENDBRANCH  25  26
ENDBRANCH  24  25
BRANCH  24  29
ATOM     29  C   UNL     1      49.422   6.063  19.008  0.00  0.00    +0.000 C 
BRANCH  29  30
ATOM     30  C   UNL     1      48.963   4.849  18.240  0.00  0.00    +0.000 A 
ATOM     31  C   UNL     1      47.612   4.609  17.972  0.00  0.00    +0.000 A 
ATOM     32  C   UNL     1      47.250   3.518  17.186  0.00  0.00    +0.000 A 
ATOM     33  C   UNL     1      48.254   2.700  16.696  0.00  0.00    +0.000 A 
ATOM     34  N   UNL     1      49.567   2.889  16.945  0.00  0.00    +0.000 NA
ATOM     35  C   UNL     1      49.889   3.959  17.708  0.00  0.00    +0.000 A 
ENDBRANCH  29  30
ENDBRANCH  24  29
ENDBRANCH  23  24
ENDBRANCH   4  23
TORSDOF 10
ENDMDL
MODEL 8
REMARK VINA RESULT:    -6.129      3.495      8.151
REMARK INTER + INTRA:         -11.399
REMARK INTER:                  -9.286
REMARK INTRA:                  -2.113
REMARK UNBOUND:                -1.865
REMARK  Name = 
REMARK  10 active torsions:
REMARK  status: ('A' for Active; 'I' for Inactive)
REMARK    1  A    between atoms: C_2  and  C_23
REMARK    2  A    between atoms: N_3  and  C_4
REMARK    3  A    between atoms: C_4  and  C_5
REMARK    4  A    between atoms: C_8  and  C_9
REMARK    5  A    between atoms: C_9  and  N_10
REMARK    6  A    between atoms: N_10  and  C_11
REMARK    7  A    between atoms: N_10  and  C_14
REMARK    8  A    between atoms: C_11  and  C_12
REMARK    9  A    between atoms: C_12  and  O_13
REMARK   10  A    between atoms: C_14  and  C_15
REMARK                            x       y       z     vdW  Elec       q    Type
REMARK                         _______ _______ _______ _____ _____    ______ ____
ROOT
ATOM      1  C   UNL     1      49.239   8.303  15.472  0.00  0.00    +0.000 A 
ATOM      2  C   UNL     1      49.024   8.629  16.816  0.00  0.00    +0.000 A 
ATOM      3  C   UNL     1      49.855   8.112  17.807  0.00  0.00    +0.000 A 
ATOM      4  C   UNL     1      50.910   7.254  17.470  0.00  0.00    +0.000 A 
ATOM      5  C   UNL     1      51.199   7.027  16.118  0.00  0.00    +0.000 A 
ATOM      6  C   UNL     1      50.371   7.554  15.125  0.00  0.00    +0.000 A 
ENDROOT
BRANCH   1   7
ATOM      7  C   UNL     1      48.248   8.734  14.426  0.00  0.00    +0.000 C 
BRANCH   7  10
ATOM      8  O   UNL     1      48.232   7.292  12.019  0.00  0.00    +0.000 OA
ATOM      9  C   UNL     1      47.426   6.995  12.896  0.00  0.00    +0.000 C 
ATOM     10  N   UNL     1      47.343   7.675  14.081  0.00  0.00    +0.000 N 
ATOM     11  H   UNL     1      46.791   7.293  14.841  0.00  0.00    +0.000 HD
BRANCH   9  12
ATOM     12  C   UNL     1      46.447   5.918  12.701  0.00  0.00    +0.000 A 
ATOM     13  C   UNL     1      46.762   4.626  13.097  0.00  0.00    +0.000 A 
ATOM     14  S   UNL     1      45.521   3.499  12.789  0.00  0.00    +0.000 S 
ATOM     15  C   UNL     1      44.503   4.707  12.158  0.00  0.00    +0.000 A 
ATOM     16  N   UNL     1      43.246   4.408  11.736  0.00  0.00    +0.000 NA
ATOM     17  C   UNL     1      42.568   5.427  11.321  0.00  0.00    +0.000 A 
ATOM     18  N   UNL     1      43.040   6.714  11.276  0.00  0.00    +0.000 N 
ATOM     19  C   UNL     1      44.330   7.048  11.611  0.00  0.00    +0.000 A 
ATOM     20  O   UNL     1      44.761   8.175  11.418  0.00  0.00    +0.000 OA
ATOM     21  C   UNL     1      45.116   5.948  12.147  0.00  0.00    +0.000 A 
ATOM     22  H   UNL     1      42.469   7.459  10.903  0.00  0.00    +0.000 HD
ENDBRANCH   9  12
ENDBRANCH   7  10
ENDBRANCH   1   7
BRANCH   4  23
ATOM     23  C   UNL     1      51.673   6.527  18.561  0.00  0.00    +0.000 C 
BRANCH  23  24
ATOM     24  N   UNL     1      51.815   5.070  18.294  0.00  0.00    +0.000 NA
BRANCH  24  25
ATOM     25  C   UNL     1      53.106   4.569  18.831  0.00  0.00    +0.000 C 
BRANCH  25  26
ATOM     26  C   UNL     1      53.550   3.191  18.305  0.00  0.00    +0.000 C 
BRANCH  26  27
ATOM     27  O   UNL     1      53.305   2.180  19.281  0.00  0.00    +0.000 OA
ATOM     28  H   UNL     1      54.162   1.772  19.493  0.00  0.00    +0.000 HD
ENDBRANCH  26  27
ENDBRANCH  25  26
ENDBRANCH  24  25
BRANCH  24  29
ATOM     29  C   UNL     1      50.689   4.329  18.892  0.00  0.00    +0.000 C 
BRANCH  29  30
ATOM     30  C   UNL     1      49.709   3.745  17.904  0.00  0.00    +0.000 A 
ATOM     31  C   UNL     1      48.531   4.410  17.549  0.00  0.00    +0.000 A 
ATOM     32  C   UNL     1      47.704   3.867  16.569  0.00  0.00    +0.000 A 
ATOM     33  C   UNL     1      48.083   2.673  15.978  0.00  0.00    +0.000 A 
ATOM     34  N   UNL     1      49.203   1.995  16.304  0.00  0.00    +0.000 NA
ATOM     35  C   UNL     1      49.988   2.548  17.256  0.00  0.00    +0.000 A 
ENDBRANCH  29  30
ENDBRANCH  24  29
ENDBRANCH  23  24
ENDBRANCH   4  23
TORSDOF 10
ENDMDL
MODEL 9
REMARK VINA RESULT:    -6.091      3.374      8.072
REMARK INTER + INTRA:         -11.339
REMARK INTER:                  -9.161
REMARK INTRA:                  -2.179
REMARK UNBOUND:                -1.865
REMARK  Name = 
REMARK  10 active torsions:
REMARK  status: ('A' for Active; 'I' for Inactive)
REMARK    1  A    between atoms: C_2  and  C_23
REMARK    2  A    between atoms: N_3  and  C_4
REMARK    3  A    between atoms: C_4  and  C_5
REMARK    4  A    between atoms: C_8  and  C_9
REMARK    5  A    between atoms: C_9  and  N_10
REMARK    6  A    between atoms: N_10  and  C_11
REMARK    7  A    between atoms: N_10  and  C_14
REMARK    8  A    between atoms: C_11  and  C_12
REMARK    9  A    between atoms: C_12  and  O_13
REMARK   10  A    between atoms: C_14  and  C_15
REMARK                            x       y       z     vdW  Elec       q    Type
REMARK                         _______ _______ _______ _____ _____    ______ ____
ROOT
ATOM      1  C   UNL     1      48.860   8.244  15.593  0.00  0.00    +0.000 A 
ATOM      2  C   UNL     1      49.841   7.354  15.142  0.00  0.00    +0.000 A 
ATOM      3  C   UNL     1      50.707   6.743  16.046  0.00  0.00    +0.000 A 
ATOM      4  C   UNL     1      50.611   7.020  17.416  0.00  0.00    +0.000 A 
ATOM      5  C   UNL     1      49.553   7.814  17.878  0.00  0.00    +0.000 A 
ATOM      6  C   UNL     1      48.680   8.417  16.972  0.00  0.00    +0.000 A 
ENDROOT
BRANCH   1   7
ATOM      7  C   UNL     1      48.035   9.020  14.603  0.00  0.00    +0.000 C 
BRANCH   7  10
ATOM      8  O   UNL     1      47.721   8.387  11.888  0.00  0.00    +0.000 OA
ATOM      9  C   UNL     1      46.928   7.925  12.703  0.00  0.00    +0.000 C 
ATOM     10  N   UNL     1      46.988   8.219  14.038  0.00  0.00    +0.000 N 
ATOM     11  H   UNL     1      46.429   7.686  14.695  0.00  0.00    +0.000 HD
BRANCH   9  12
ATOM     12  C   UNL     1      45.811   7.069  12.281  0.00  0.00    +0.000 A 
ATOM     13  C   UNL     1      44.770   7.617  11.545  0.00  0.00    +0.000 A 
ATOM     14  S   UNL     1      43.553   6.491  11.148  0.00  0.00    +0.000 S 
ATOM     15  C   UNL     1      44.398   5.225  11.907  0.00  0.00    +0.000 A 
ATOM     16  N   UNL     1      43.908   3.957  11.898  0.00  0.00    +0.000 NA
ATOM     17  C   UNL     1      44.671   3.087  12.474  0.00  0.00    +0.000 A 
ATOM     18  N   UNL     1      45.872   3.376  13.070  0.00  0.00    +0.000 N 
ATOM     19  C   UNL     1      46.365   4.653  13.178  0.00  0.00    +0.000 A 
ATOM     20  O   UNL     1      47.360   4.893  13.844  0.00  0.00    +0.000 OA
ATOM     21  C   UNL     1      45.574   5.662  12.490  0.00  0.00    +0.000 A 
ATOM     22  H   UNL     1      46.401   2.653  13.537  0.00  0.00    +0.000 HD
ENDBRANCH   9  12
ENDBRANCH   7  10
ENDBRANCH   1   7
BRANCH   4  23
ATOM     23  C   UNL     1      51.684   6.525  18.366  0.00  0.00    +0.000 C 
BRANCH  23  24
ATOM     24  N   UNL     1      51.939   5.064  18.239  0.00  0.00    +0.000 NA
BRANCH  24  25
ATOM     25  C   UNL     1      53.272   4.721  18.797  0.00  0.00    +0.000 C 
BRANCH  25  26
ATOM     26  C   UNL     1      53.251   3.934  20.122  0.00  0.00    +0.000 C 
BRANCH  26  27
ATOM     27  O   UNL     1      53.794   2.628  19.936  0.00  0.00    +0.000 OA
ATOM     28  H   UNL     1      53.397   2.054  20.613  0.00  0.00    +0.000 HD
ENDBRANCH  26  27
ENDBRANCH  25  26
ENDBRANCH  24  25
BRANCH  24  29
ATOM     29  C   UNL     1      50.882   4.300  18.927  0.00  0.00    +0.000 C 
BRANCH  29  30
ATOM     30  C   UNL     1      49.889   3.619  18.019  0.00  0.00    +0.000 A 
ATOM     31  C   UNL     1      48.551   4.019  17.953  0.00  0.00    +0.000 A 
ATOM     32  C   UNL     1      47.696   3.413  17.036  0.00  0.00    +0.000 A 
ATOM     33  C   UNL     1      48.209   2.423  16.216  0.00  0.00    +0.000 A 
ATOM     34  N   UNL     1      49.489   1.999  16.259  0.00  0.00    +0.000 NA
ATOM     35  C   UNL     1      50.297   2.608  17.157  0.00  0.00    +0.000 A 
ENDBRANCH  29  30
ENDBRANCH  24  29
ENDBRANCH  23  24
ENDBRANCH   4  23
TORSDOF 10
ENDMDL
