MODEL 1
REMARK VINA RESULT:    -8.483      0.000      0.000
REMARK INTER + INTRA:         -12.066
REMARK INTER:                 -10.962
REMARK INTRA:                  -1.104
REMARK UNBOUND:                -1.104
REMARK  Name = 
REMARK  5 active torsions:
REMARK  status: ('A' for Active; 'I' for Inactive)
REMARK    1  A    between atoms: C_2  and  C_4
REMARK    2  A    between atoms: C_7  and  N_8
REMARK    3  A    between atoms: N_8  and  C_9
REMARK    4  A    between atoms: C_9  and  C_10
REMARK    5  A    between atoms: C_15  and  N_16
REMARK                            x       y       z     vdW  Elec       q    Type
REMARK                         _______ _______ _______ _____ _____    ______ ____
ROOT
ATOM      1  C   UNL     1      43.317   4.510  11.245  0.00  0.00    +0.000 C 
ENDROOT
BRANCH   1   2
ATOM      2  C   UNL     1      44.481   4.990  12.075  0.00  0.00    +0.000 A 
ATOM      3  C   UNL     1      45.215   4.100  12.859  0.00  0.00    +0.000 A 
ATOM      4  C   UNL     1      46.345   4.558  13.533  0.00  0.00    +0.000 A 
ATOM      5 CL   UNL     1      47.260   3.465  14.499  0.00  0.00    +0.000 Cl
ATOM      6  C   UNL     1      46.754   5.887  13.420  0.00  0.00    +0.000 A 
ATOM      7  C   UNL     1      46.050   6.810  12.632  0.00  0.00    +0.000 A 
ATOM      8  C   UNL     1      44.900   6.336  11.985  0.00  0.00    +0.000 A 
BRANCH   7   9
ATOM      9  N   UNL     1      46.476   8.126  12.548  0.00  0.00    +0.000 N 
ATOM     10  C   UNL     1      45.495   9.211  12.696  0.00  0.00    +0.000 C 
ATOM     11  C   UNL     1      45.858  10.337  11.729  0.00  0.00    +0.000 C 
ATOM     12  C   UNL     1      47.309  10.788  11.907  0.00  0.00    +0.000 C 
ATOM     13  C   UNL     1      48.272   9.602  11.874  0.00  0.00    +0.000 C 
ATOM     14  C   UNL     1      47.854   8.512  12.863  0.00  0.00    +0.000 C 
ENDBRANCH   7   9
ENDBRANCH   1   2
BRANCH   1  15
ATOM     15  N   UNL     1      43.597   4.688   9.830  0.00  0.00    +0.000 N 
ATOM     16  H   UNL     1      42.765   4.804   9.255  0.00  0.00    +0.000 HD
BRANCH  15  20
ATOM     17  C   UNL     1      46.515   2.514   7.693  0.00  0.00    +0.000 A 
ATOM     18  C   UNL     1      46.525   3.907   7.648  0.00  0.00    +0.000 A 
ATOM     19  C   UNL     1      45.590   4.640   8.388  0.00  0.00    +0.000 A 
ATOM     20  C   UNL     1      44.634   4.011   9.194  0.00  0.00    +0.000 A 
ATOM     21  C   UNL     1      44.630   2.608   9.215  0.00  0.00    +0.000 A 
ATOM     22  C   UNL     1      45.558   1.864   8.474  0.00  0.00    +0.000 A 
BRANCH  17  24
ATOM     23  N   UNL     1      48.462   2.380   6.239  0.00  0.00    +0.000 N 
ATOM     24  C   UNL     1      47.473   1.703   6.900  0.00  0.00    +0.000 C 
ATOM     25  O   UNL     1      47.407   0.481   6.857  0.00  0.00    +0.000 OA
ATOM     26  H   UNL     1      49.164   1.814   5.782  0.00  0.00    +0.000 HD
ATOM     27  H   UNL     1      48.696   3.340   6.449  0.00  0.00    +0.000 HD
ENDBRANCH  17  24
ENDBRANCH  15  20
ENDBRANCH   1  15
TORSDOF 5
ENDMDL
MODEL 2
REMARK VINA RESULT:    -8.263      2.483      4.111
REMARK INTER + INTRA:         -11.781
REMARK INTER:                 -10.939
REMARK INTRA:                  -0.842
REMARK UNBOUND:                -1.104
REMARK  Name = 
REMARK  5 active torsions:
REMARK  status: ('A' for Active; 'I' for Inactive)
REMARK    1  A    between atoms: C_2  and  C_4
REMARK    2  A    between atoms: C_7  and  N_8
REMARK    3  A    between atoms: N_8  and  C_9
REMARK    4  A    between atoms: C_9  and  C_10
REMARK    5  A    between atoms: C_15  and  N_16
REMARK                            x       y       z     vdW  Elec       q    Type
REMARK                         _______ _______ _______ _____ _____    ______ ____
ROOT
ATOM      1  C   UNL     1      44.328   4.590  11.900  0.00  0.00    +0.000 C 
ENDROOT
BRANCH   1   2
ATOM      2  C   UNL     1      45.615   5.146  12.456  0.00  0.00    +0.000 A 
ATOM      3  C   UNL     1      46.302   6.162  11.791  0.00  0.00    +0.000 A 
ATOM      4  C   UNL     1      47.431   6.722  12.383  0.00  0.00    +0.000 A 
ATOM      5 CL   UNL     1      48.282   7.979  11.570  0.00  0.00    +0.000 Cl
ATOM      6  C   UNL     1      47.869   6.290  13.635  0.00  0.00    +0.000 A 
ATOM      7  C   UNL     1      47.199   5.280  14.342  0.00  0.00    +0.000 A 
ATOM      8  C   UNL     1      46.082   4.709  13.716  0.00  0.00    +0.000 A 
BRANCH   7   9
ATOM      9  N   UNL     1      47.666   4.866  15.580  0.00  0.00    +0.000 N 
ATOM     10  C   UNL     1      48.475   5.789  16.389  0.00  0.00    +0.000 C 
ATOM     11  C   UNL     1      49.569   4.991  17.097  0.00  0.00    +0.000 C 
ATOM     12  C   UNL     1      48.990   3.820  17.891  0.00  0.00    +0.000 C 
ATOM     13  C   UNL     1      48.054   2.969  17.033  0.00  0.00    +0.000 C 
ATOM     14  C   UNL     1      46.984   3.826  16.353  0.00  0.00    +0.000 C 
ENDBRANCH   7   9
ENDBRANCH   1   2
BRANCH   1  15
ATOM     15  N   UNL     1      44.241   4.846  10.472  0.00  0.00    +0.000 N 
ATOM     16  H   UNL     1      43.333   5.192  10.169  0.00  0.00    +0.000 HD
BRANCH  15  20
ATOM     17  C   UNL     1      46.457   2.488   7.764  0.00  0.00    +0.000 A 
ATOM     18  C   UNL     1      45.706   1.868   8.762  0.00  0.00    +0.000 A 
ATOM     19  C   UNL     1      44.931   2.637   9.637  0.00  0.00    +0.000 A 
ATOM     20  C   UNL     1      44.876   4.033   9.539  0.00  0.00    +0.000 A 
ATOM     21  C   UNL     1      45.651   4.639   8.539  0.00  0.00    +0.000 A 
ATOM     22  C   UNL     1      46.434   3.879   7.660  0.00  0.00    +0.000 A 
BRANCH  17  24
ATOM     23  N   UNL     1      48.415   2.336   6.328  0.00  0.00    +0.000 N 
ATOM     24  C   UNL     1      47.312   1.706   6.836  0.00  0.00    +0.000 C 
ATOM     25  O   UNL     1      47.066   0.540   6.555  0.00  0.00    +0.000 OA
ATOM     26  H   UNL     1      49.042   1.766   5.774  0.00  0.00    +0.000 HD
ATOM     27  H   UNL     1      48.782   3.190   6.722  0.00  0.00    +0.000 HD
ENDBRANCH  17  24
ENDBRANCH  15  20
ENDBRANCH   1  15
TORSDOF 5
ENDMDL
MODEL 3
REMARK VINA RESULT:    -8.171      2.147      3.554
REMARK INTER + INTRA:         -11.663
REMARK INTER:                 -10.650
REMARK INTRA:                  -1.013
REMARK UNBOUND:                -1.104
REMARK  Name = 
REMARK  5 active torsions:
REMARK  status: ('A' for Active; 'I' for Inactive)
REMARK    1  A    between atoms: C_2  and  C_4
REMARK    2  A    between atoms: C_7  and  N_8
REMARK    3  A    between atoms: N_8  and  C_9
REMARK    4  A    between atoms: C_9  and  C_10
REMARK    5  A    between atoms: C_15  and  N_16
REMARK                            x       y       z     vdW  Elec       q    Type
REMARK                         _______ _______ _______ _____ _____    ______ ____
ROOT
ATOM      1  C   UNL     1      43.586   4.723  11.363  0.00  0.00    +0.000 C 
ENDROOT
BRANCH   1   2
ATOM      2  C   UNL     1      44.662   5.602  11.949  0.00  0.00    +0.000 A 
ATOM      3  C   UNL     1      44.766   6.945  11.586  0.00  0.00    +0.000 A 
ATOM      4  C   UNL     1      45.705   7.752  12.222  0.00  0.00    +0.000 A 
ATOM      5 CL   UNL     1      45.837   9.412  11.782  0.00  0.00    +0.000 Cl
ATOM      6  C   UNL     1      46.529   7.237  13.223  0.00  0.00    +0.000 A 
ATOM      7  C   UNL     1      46.447   5.895  13.626  0.00  0.00    +0.000 A 
ATOM      8  C   UNL     1      45.515   5.092  12.953  0.00  0.00    +0.000 A 
BRANCH   7   9
ATOM      9  N   UNL     1      47.287   5.411  14.617  0.00  0.00    +0.000 N 
ATOM     10  C   UNL     1      47.348   3.963  14.864  0.00  0.00    +0.000 C 
ATOM     11  C   UNL     1      47.481   3.726  16.367  0.00  0.00    +0.000 C 
ATOM     12  C   UNL     1      48.659   4.503  16.958  0.00  0.00    +0.000 C 
ATOM     13  C   UNL     1      48.612   5.978  16.561  0.00  0.00    +0.000 C 
ATOM     14  C   UNL     1      48.478   6.146  15.046  0.00  0.00    +0.000 C 
ENDBRANCH   7   9
ENDBRANCH   1   2
BRANCH   1  15
ATOM     15  N   UNL     1      43.682   4.703   9.913  0.00  0.00    +0.000 N 
ATOM     16  H   UNL     1      42.783   4.662   9.439  0.00  0.00    +0.000 HD
BRANCH  15  20
ATOM     17  C   UNL     1      46.538   2.509   7.712  0.00  0.00    +0.000 A 
ATOM     18  C   UNL     1      46.535   3.901   7.640  0.00  0.00    +0.000 A 
ATOM     19  C   UNL     1      45.622   4.642   8.401  0.00  0.00    +0.000 A 
ATOM     20  C   UNL     1      44.700   4.021   9.253  0.00  0.00    +0.000 A 
ATOM     21  C   UNL     1      44.709   2.619   9.300  0.00  0.00    +0.000 A 
ATOM     22  C   UNL     1      45.615   1.868   8.540  0.00  0.00    +0.000 A 
BRANCH  17  24
ATOM     23  N   UNL     1      48.489   2.352   6.266  0.00  0.00    +0.000 N 
ATOM     24  C   UNL     1      47.472   1.691   6.899  0.00  0.00    +0.000 C 
ATOM     25  O   UNL     1      47.365   0.474   6.818  0.00  0.00    +0.000 OA
ATOM     26  H   UNL     1      49.174   1.777   5.795  0.00  0.00    +0.000 HD
ATOM     27  H   UNL     1      48.754   3.297   6.506  0.00  0.00    +0.000 HD
ENDBRANCH  17  24
ENDBRANCH  15  20
ENDBRANCH   1  15
TORSDOF 5
ENDMDL
MODEL 4
REMARK VINA RESULT:    -8.133      1.481      1.945
REMARK INTER + INTRA:         -11.613
REMARK INTER:                 -10.602
REMARK INTRA:                  -1.011
REMARK UNBOUND:                -1.104
REMARK  Name = 
REMARK  5 active torsions:
REMARK  status: ('A' for Active; 'I' for Inactive)
REMARK    1  A    between atoms: C_2  and  C_4
REMARK    2  A    between atoms: C_7  and  N_8
REMARK    3  A    between atoms: N_8  and  C_9
REMARK    4  A    between atoms: C_9  and  C_10
REMARK    5  A    between atoms: C_15  and  N_16
REMARK                            x       y       z     vdW  Elec       q    Type
REMARK                         _______ _______ _______ _____ _____    ______ ____
ROOT
ATOM      1  C   UNL     1      43.682   4.571  11.597  0.00  0.00    +0.000 C 
ENDROOT
BRANCH   1   2
ATOM      2  C   UNL     1      44.551   5.742  11.978  0.00  0.00    +0.000 A 
ATOM      3  C   UNL     1      45.734   5.553  12.694  0.00  0.00    +0.000 A 
ATOM      4  C   UNL     1      46.563   6.644  12.940  0.00  0.00    +0.000 A 
ATOM      5 CL   UNL     1      48.026   6.418  13.820  0.00  0.00    +0.000 Cl
ATOM      6  C   UNL     1      46.231   7.914  12.468  0.00  0.00    +0.000 A 
ATOM      7  C   UNL     1      45.058   8.144  11.733  0.00  0.00    +0.000 A 
ATOM      8  C   UNL     1      44.223   7.038  11.520  0.00  0.00    +0.000 A 
BRANCH   7   9
ATOM      9  N   UNL     1      44.752   9.420  11.286  0.00  0.00    +0.000 N 
ATOM     10  C   UNL     1      43.419   9.686  10.727  0.00  0.00    +0.000 C 
ATOM     11  C   UNL     1      43.561  10.655   9.555  0.00  0.00    +0.000 C 
ATOM     12  C   UNL     1      44.325  11.917   9.956  0.00  0.00    +0.000 C 
ATOM     13  C   UNL     1      45.644  11.578  10.649  0.00  0.00    +0.000 C 
ATOM     14  C   UNL     1      45.433  10.605  11.811  0.00  0.00    +0.000 C 
ENDBRANCH   7   9
ENDBRANCH   1   2
BRANCH   1  15
ATOM     15  N   UNL     1      43.614   4.438  10.151  0.00  0.00    +0.000 N 
ATOM     16  H   UNL     1      42.681   4.244   9.797  0.00  0.00    +0.000 HD
BRANCH  15  20
ATOM     17  C   UNL     1      46.471   2.470   7.748  0.00  0.00    +0.000 A 
ATOM     18  C   UNL     1      46.357   3.858   7.684  0.00  0.00    +0.000 A 
ATOM     19  C   UNL     1      45.444   4.526   8.509  0.00  0.00    +0.000 A 
ATOM     20  C   UNL     1      44.634   3.837   9.419  0.00  0.00    +0.000 A 
ATOM     21  C   UNL     1      44.753   2.440   9.459  0.00  0.00    +0.000 A 
ATOM     22  C   UNL     1      45.659   1.760   8.634  0.00  0.00    +0.000 A 
BRANCH  17  24
ATOM     23  N   UNL     1      48.509   2.401   6.421  0.00  0.00    +0.000 N 
ATOM     24  C   UNL     1      47.407   1.725   6.869  0.00  0.00    +0.000 C 
ATOM     25  O   UNL     1      47.226   0.550   6.578  0.00  0.00    +0.000 OA
ATOM     26  H   UNL     1      49.188   1.859   5.903  0.00  0.00    +0.000 HD
ATOM     27  H   UNL     1      48.818   3.270   6.832  0.00  0.00    +0.000 HD
ENDBRANCH  17  24
ENDBRANCH  15  20
ENDBRANCH   1  15
TORSDOF 5
ENDMDL
MODEL 5
REMARK VINA RESULT:    -7.580      2.169      3.128
REMARK INTER + INTRA:         -10.899
REMARK INTER:                 -10.013
REMARK INTRA:                  -0.886
REMARK UNBOUND:                -1.104
REMARK  Name = 
REMARK  5 active torsions:
REMARK  status: ('A' for Active; 'I' for Inactive)
REMARK    1  A    between atoms: C_2  and  C_4
REMARK    2  A    between atoms: C_7  and  N_8
REMARK    3  A    between atoms: N_8  and  C_9
REMARK    4  A    between atoms: C_9  and  C_10
REMARK    5  A    between atoms: C_15  and  N_16
REMARK                            x       y       z     vdW  Elec       q    Type
REMARK                         _______ _______ _______ _____ _____    ______ ____
ROOT
ATOM      1  C   UNL     1      44.481   4.403  11.751  0.00  0.00    +0.000 C 
ENDROOT
BRANCH   1   2
ATOM      2  C   UNL     1      44.960   5.824  11.913  0.00  0.00    +0.000 A 
ATOM      3  C   UNL     1      44.272   6.883  11.321  0.00  0.00    +0.000 A 
ATOM      4  C   UNL     1      44.682   8.189  11.575  0.00  0.00    +0.000 A 
ATOM      5 CL   UNL     1      43.835   9.503  10.851  0.00  0.00    +0.000 Cl
ATOM      6  C   UNL     1      45.760   8.447  12.422  0.00  0.00    +0.000 A 
ATOM      7  C   UNL     1      46.470   7.411  13.047  0.00  0.00    +0.000 A 
ATOM      8  C   UNL     1      46.059   6.102  12.756  0.00  0.00    +0.000 A 
BRANCH   7   9
ATOM      9  N   UNL     1      47.543   7.700  13.876  0.00  0.00    +0.000 N 
ATOM     10  C   UNL     1      48.557   6.665  14.128  0.00  0.00    +0.000 C 
ATOM     11  C   UNL     1      49.005   6.761  15.585  0.00  0.00    +0.000 C 
ATOM     12  C   UNL     1      49.465   8.175  15.942  0.00  0.00    +0.000 C 
ATOM     13  C   UNL     1      48.425   9.220  15.539  0.00  0.00    +0.000 C 
ATOM     14  C   UNL     1      48.019   9.071  14.072  0.00  0.00    +0.000 C 
ENDBRANCH   7   9
ENDBRANCH   1   2
BRANCH   1  15
ATOM     15  N   UNL     1      43.969   4.191  10.407  0.00  0.00    +0.000 N 
ATOM     16  H   UNL     1      42.998   3.890  10.377  0.00  0.00    +0.000 HD
BRANCH  15  20
ATOM     17  C   UNL     1      46.628   2.695   7.492  0.00  0.00    +0.000 A 
ATOM     18  C   UNL     1      45.961   1.808   8.335  0.00  0.00    +0.000 A 
ATOM     19  C   UNL     1      45.043   2.288   9.276  0.00  0.00    +0.000 A 
ATOM     20  C   UNL     1      44.760   3.654   9.395  0.00  0.00    +0.000 A 
ATOM     21  C   UNL     1      45.451   4.533   8.548  0.00  0.00    +0.000 A 
ATOM     22  C   UNL     1      46.376   4.063   7.606  0.00  0.00    +0.000 A 
BRANCH  17  24
ATOM     23  N   UNL     1      47.866   3.032   5.424  0.00  0.00    +0.000 N 
ATOM     24  C   UNL     1      47.629   2.223   6.502  0.00  0.00    +0.000 C 
ATOM     25  O   UNL     1      48.242   1.174   6.650  0.00  0.00    +0.000 OA
ATOM     26  H   UNL     1      48.616   2.749   4.808  0.00  0.00    +0.000 HD
ATOM     27  H   UNL     1      47.573   3.998   5.396  0.00  0.00    +0.000 HD
ENDBRANCH  17  24
ENDBRANCH  15  20
ENDBRANCH   1  15
TORSDOF 5
ENDMDL
MODEL 6
REMARK VINA RESULT:    -7.250      2.452      3.257
REMARK INTER + INTRA:         -10.474
REMARK INTER:                  -9.700
REMARK INTRA:                  -0.774
REMARK UNBOUND:                -1.104
REMARK  Name = 
REMARK  5 active torsions:
REMARK  status: ('A' for Active; 'I' for Inactive)
REMARK    1  A    between atoms: C_2  and  C_4
REMARK    2  A    between atoms: C_7  and  N_8
REMARK    3  A    between atoms: N_8  and  C_9
REMARK    4  A    between atoms: C_9  and  C_10
REMARK    5  A    between atoms: C_15  and  N_16
REMARK                            x       y       z     vdW  Elec       q    Type
REMARK                         _______ _______ _______ _____ _____    ______ ____
ROOT
ATOM      1  C   UNL     1      44.269   5.371  11.486  0.00  0.00    +0.000 C 
ENDROOT
BRANCH   1   2
ATOM      2  C   UNL     1      44.620   6.811  11.760  0.00  0.00    +0.000 A 
ATOM      3  C   UNL     1      45.682   7.141  12.602  0.00  0.00    +0.000 A 
ATOM      4  C   UNL     1      46.043   8.478  12.752  0.00  0.00    +0.000 A 
ATOM      5 CL   UNL     1      47.356   8.893  13.787  0.00  0.00    +0.000 Cl
ATOM      6  C   UNL     1      45.365   9.482  12.061  0.00  0.00    +0.000 A 
ATOM      7  C   UNL     1      44.300   9.191  11.195  0.00  0.00    +0.000 A 
ATOM      8  C   UNL     1      43.934   7.842  11.080  0.00  0.00    +0.000 A 
BRANCH   7   9
ATOM      9  N   UNL     1      43.640  10.213  10.531  0.00  0.00    +0.000 N 
ATOM     10  C   UNL     1      42.440  10.808  11.136  0.00  0.00    +0.000 C 
ATOM     11  C   UNL     1      41.433  11.118  10.030  0.00  0.00    +0.000 C 
ATOM     12  C   UNL     1      42.056  11.974   8.925  0.00  0.00    +0.000 C 
ATOM     13  C   UNL     1      43.369  11.373   8.424  0.00  0.00    +0.000 C 
ATOM     14  C   UNL     1      44.331  11.086   9.579  0.00  0.00    +0.000 C 
ENDBRANCH   7   9
ENDBRANCH   1   2
BRANCH   1  15
ATOM     15  N   UNL     1      44.115   5.149  10.058  0.00  0.00    +0.000 N 
ATOM     16  H   UNL     1      43.147   5.101   9.748  0.00  0.00    +0.000 HD
BRANCH  15  20
ATOM     17  C   UNL     1      46.471   2.541   7.722  0.00  0.00    +0.000 A 
ATOM     18  C   UNL     1      46.635   3.919   7.592  0.00  0.00    +0.000 A 
ATOM     19  C   UNL     1      45.892   4.793   8.394  0.00  0.00    +0.000 A 
ATOM     20  C   UNL     1      44.978   4.323   9.345  0.00  0.00    +0.000 A 
ATOM     21  C   UNL     1      44.816   2.933   9.450  0.00  0.00    +0.000 A 
ATOM     22  C   UNL     1      45.551   2.049   8.649  0.00  0.00    +0.000 A 
BRANCH  17  24
ATOM     23  N   UNL     1      48.104   2.115   5.969  0.00  0.00    +0.000 N 
ATOM     24  C   UNL     1      47.221   1.585   6.869  0.00  0.00    +0.000 C 
ATOM     25  O   UNL     1      47.085   0.373   6.981  0.00  0.00    +0.000 OA
ATOM     26  H   UNL     1      48.678   1.455   5.462  0.00  0.00    +0.000 HD
ATOM     27  H   UNL     1      48.422   3.072   6.020  0.00  0.00    +0.000 HD
ENDBRANCH  17  24
ENDBRANCH  15  20
ENDBRANCH   1  15
TORSDOF 5
ENDMDL
MODEL 7
REMARK VINA RESULT:    -6.833      3.670      7.387
REMARK INTER + INTRA:          -9.935
REMARK INTER:                  -9.218
REMARK INTRA:                  -0.717
REMARK UNBOUND:                -1.104
REMARK  Name = 
REMARK  5 active torsions:
REMARK  status: ('A' for Active; 'I' for Inactive)
REMARK    1  A    between atoms: C_2  and  C_4
REMARK    2  A    between atoms: C_7  and  N_8
REMARK    3  A    between atoms: N_8  and  C_9
REMARK    4  A    between atoms: C_9  and  C_10
REMARK    5  A    between atoms: C_15  and  N_16
REMARK                            x       y       z     vdW  Elec       q    Type
REMARK                         _______ _______ _______ _____ _____    ______ ____
ROOT
ATOM      1  C   UNL     1      46.812   7.409  11.931  0.00  0.00    +0.000 C 
ENDROOT
BRANCH   1   2
ATOM      2  C   UNL     1      45.804   6.413  11.415  0.00  0.00    +0.000 A 
ATOM      3  C   UNL     1      44.478   6.447  11.849  0.00  0.00    +0.000 A 
ATOM      4  C   UNL     1      43.552   5.579  11.277  0.00  0.00    +0.000 A 
ATOM      5 CL   UNL     1      41.913   5.617  11.803  0.00  0.00    +0.000 Cl
ATOM      6  C   UNL     1      43.933   4.691  10.270  0.00  0.00    +0.000 A 
ATOM      7  C   UNL     1      45.253   4.635   9.797  0.00  0.00    +0.000 A 
ATOM      8  C   UNL     1      46.176   5.497  10.407  0.00  0.00    +0.000 A 
BRANCH   7   9
ATOM      9  N   UNL     1      45.602   3.735   8.803  0.00  0.00    +0.000 N 
ATOM     10  C   UNL     1      44.962   2.411   8.774  0.00  0.00    +0.000 C 
ATOM     11  C   UNL     1      46.000   1.373   8.351  0.00  0.00    +0.000 C 
ATOM     12  C   UNL     1      46.680   1.759   7.036  0.00  0.00    +0.000 C 
ATOM     13  C   UNL     1      47.212   3.191   7.080  0.00  0.00    +0.000 C 
ATOM     14  C   UNL     1      46.126   4.179   7.509  0.00  0.00    +0.000 C 
ENDBRANCH   7   9
ENDBRANCH   1   2
BRANCH   1  15
ATOM     15  N   UNL     1      47.919   6.723  12.576  0.00  0.00    +0.000 N 
ATOM     16  H   UNL     1      48.497   6.179  11.939  0.00  0.00    +0.000 HD
BRANCH  15  20
ATOM     17  C   UNL     1      47.727   4.774  16.314  0.00  0.00    +0.000 A 
ATOM     18  C   UNL     1      48.477   5.942  16.185  0.00  0.00    +0.000 A 
ATOM     19  C   UNL     1      48.512   6.622  14.962  0.00  0.00    +0.000 A 
ATOM     20  C   UNL     1      47.800   6.166  13.846  0.00  0.00    +0.000 A 
ATOM     21  C   UNL     1      47.063   4.981  13.992  0.00  0.00    +0.000 A 
ATOM     22  C   UNL     1      47.025   4.289  15.209  0.00  0.00    +0.000 A 
BRANCH  17  24
ATOM     23  N   UNL     1      47.030   2.812  17.575  0.00  0.00    +0.000 N 
ATOM     24  C   UNL     1      47.689   4.011  17.587  0.00  0.00    +0.000 C 
ATOM     25  O   UNL     1      48.246   4.415  18.601  0.00  0.00    +0.000 OA
ATOM     26  H   UNL     1      47.092   2.257  18.418  0.00  0.00    +0.000 HD
ATOM     27  H   UNL     1      46.782   2.339  16.718  0.00  0.00    +0.000 HD
ENDBRANCH  17  24
ENDBRANCH  15  20
ENDBRANCH   1  15
TORSDOF 5
ENDMDL
MODEL 8
REMARK VINA RESULT:    -6.520      3.212      6.900
REMARK INTER + INTRA:          -9.529
REMARK INTER:                  -8.689
REMARK INTRA:                  -0.840
REMARK UNBOUND:                -1.104
REMARK  Name = 
REMARK  5 active torsions:
REMARK  status: ('A' for Active; 'I' for Inactive)
REMARK    1  A    between atoms: C_2  and  C_4
REMARK    2  A    between atoms: C_7  and  N_8
REMARK    3  A    between atoms: N_8  and  C_9
REMARK    4  A    between atoms: C_9  and  C_10
REMARK    5  A    between atoms: C_15  and  N_16
REMARK                            x       y       z     vdW  Elec       q    Type
REMARK                         _______ _______ _______ _____ _____    ______ ____
ROOT
ATOM      1  C   UNL     1      46.450   4.403  13.820  0.00  0.00    +0.000 C 
ENDROOT
BRANCH   1   2
ATOM      2  C   UNL     1      45.476   4.350  12.670  0.00  0.00    +0.000 A 
ATOM      3  C   UNL     1      44.230   4.972  12.759  0.00  0.00    +0.000 A 
ATOM      4  C   UNL     1      43.397   4.991  11.643  0.00  0.00    +0.000 A 
ATOM      5 CL   UNL     1      41.859   5.760  11.743  0.00  0.00    +0.000 Cl
ATOM      6  C   UNL     1      43.801   4.410  10.441  0.00  0.00    +0.000 A 
ATOM      7  C   UNL     1      45.051   3.787  10.306  0.00  0.00    +0.000 A 
ATOM      8  C   UNL     1      45.862   3.753  11.450  0.00  0.00    +0.000 A 
BRANCH   7   9
ATOM      9  N   UNL     1      45.419   3.210   9.101  0.00  0.00    +0.000 N 
ATOM     10  C   UNL     1      45.153   1.782   8.876  0.00  0.00    +0.000 C 
ATOM     11  C   UNL     1      46.322   1.182   8.095  0.00  0.00    +0.000 C 
ATOM     12  C   UNL     1      46.605   1.967   6.812  0.00  0.00    +0.000 C 
ATOM     13  C   UNL     1      46.742   3.464   7.091  0.00  0.00    +0.000 C 
ATOM     14  C   UNL     1      45.543   4.001   7.874  0.00  0.00    +0.000 C 
ENDBRANCH   7   9
ENDBRANCH   1   2
BRANCH   1  15
ATOM     15  N   UNL     1      46.685   5.779  14.223  0.00  0.00    +0.000 N 
ATOM     16  H   UNL     1      45.841   6.285  14.481  0.00  0.00    +0.000 HD
BRANCH  15  20
ATOM     17  C   UNL     1      49.827   7.919  12.391  0.00  0.00    +0.000 A 
ATOM     18  C   UNL     1      48.702   7.573  11.643  0.00  0.00    +0.000 A 
ATOM     19  C   UNL     1      47.634   6.903  12.251  0.00  0.00    +0.000 A 
ATOM     20  C   UNL     1      47.653   6.570  13.611  0.00  0.00    +0.000 A 
ATOM     21  C   UNL     1      48.800   6.912  14.343  0.00  0.00    +0.000 A 
ATOM     22  C   UNL     1      49.877   7.579  13.743  0.00  0.00    +0.000 A 
BRANCH  17  24
ATOM     23  N   UNL     1      52.214   8.016  11.931  0.00  0.00    +0.000 N 
ATOM     24  C   UNL     1      50.990   8.605  11.773  0.00  0.00    +0.000 C 
ATOM     25  O   UNL     1      50.864   9.636  11.125  0.00  0.00    +0.000 OA
ATOM     26  H   UNL     1      52.983   8.438  11.428  0.00  0.00    +0.000 HD
ATOM     27  H   UNL     1      52.321   7.059  12.236  0.00  0.00    +0.000 HD
ENDBRANCH  17  24
ENDBRANCH  15  20
ENDBRANCH   1  15
TORSDOF 5
ENDMDL
MODEL 9
REMARK VINA RESULT:    -6.394      5.129      7.920
REMARK INTER + INTRA:          -9.367
REMARK INTER:                  -8.426
REMARK INTRA:                  -0.942
REMARK UNBOUND:                -1.104
REMARK  Name = 
REMARK  5 active torsions:
REMARK  status: ('A' for Active; 'I' for Inactive)
REMARK    1  A    between atoms: C_2  and  C_4
REMARK    2  A    between atoms: C_7  and  N_8
REMARK    3  A    between atoms: N_8  and  C_9
REMARK    4  A    between atoms: C_9  and  C_10
REMARK    5  A    between atoms: C_15  and  N_16
REMARK                            x       y       z     vdW  Elec       q    Type
REMARK                         _______ _______ _______ _____ _____    ______ ____
ROOT
ATOM      1  C   UNL     1      48.841   7.004  16.238  0.00  0.00    +0.000 C 
ENDROOT
BRANCH   1   2
ATOM      2  C   UNL     1      48.638   7.018  14.745  0.00  0.00    +0.000 A 
ATOM      3  C   UNL     1      49.575   7.615  13.900  0.00  0.00    +0.000 A 
ATOM      4  C   UNL     1      49.407   7.521  12.521  0.00  0.00    +0.000 A 
ATOM      5 CL   UNL     1      50.561   8.251  11.472  0.00  0.00    +0.000 Cl
ATOM      6  C   UNL     1      48.324   6.827  11.980  0.00  0.00    +0.000 A 
ATOM      7  C   UNL     1      47.367   6.203  12.794  0.00  0.00    +0.000 A 
ATOM      8  C   UNL     1      47.539   6.334  14.180  0.00  0.00    +0.000 A 
BRANCH   7   9
ATOM      9  N   UNL     1      46.297   5.530  12.225  0.00  0.00    +0.000 N 
ATOM     10  C   UNL     1      45.522   4.587  13.045  0.00  0.00    +0.000 C 
ATOM     11  C   UNL     1      45.131   3.390  12.179  0.00  0.00    +0.000 C 
ATOM     12  C   UNL     1      44.415   3.829  10.901  0.00  0.00    +0.000 C 
ATOM     13  C   UNL     1      45.206   4.905  10.157  0.00  0.00    +0.000 C 
ATOM     14  C   UNL     1      45.566   6.073  11.078  0.00  0.00    +0.000 C 
ENDBRANCH   7   9
ENDBRANCH   1   2
BRANCH   1  15
ATOM     15  N   UNL     1      48.396   5.739  16.799  0.00  0.00    +0.000 N 
ATOM     16  H   UNL     1      47.609   5.824  17.438  0.00  0.00    +0.000 HD
BRANCH  15  20
ATOM     17  C   UNL     1      51.108   2.582  17.498  0.00  0.00    +0.000 A 
ATOM     18  C   UNL     1      51.538   3.902  17.633  0.00  0.00    +0.000 A 
ATOM     19  C   UNL     1      50.637   4.956  17.448  0.00  0.00    +0.000 A 
ATOM     20  C   UNL     1      49.291   4.728  17.135  0.00  0.00    +0.000 A 
ATOM     21  C   UNL     1      48.881   3.394  16.989  0.00  0.00    +0.000 A 
ATOM     22  C   UNL     1      49.776   2.331  17.166  0.00  0.00    +0.000 A 
BRANCH  17  24
ATOM     23  N   UNL     1      51.510   0.259  18.101  0.00  0.00    +0.000 N 
ATOM     24  C   UNL     1      52.042   1.440  17.659  0.00  0.00    +0.000 C 
ATOM     25  O   UNL     1      53.232   1.532  17.383  0.00  0.00    +0.000 OA
ATOM     26  H   UNL     1      52.134  -0.536  18.116  0.00  0.00    +0.000 HD
ATOM     27  H   UNL     1      50.517   0.078  18.099  0.00  0.00    +0.000 HD
ENDBRANCH  17  24
ENDBRANCH  15  20
ENDBRANCH   1  15
TORSDOF 5
ENDMDL
