MODEL 1
REMARK VINA RESULT:    -8.496      0.000      0.000
REMARK INTER + INTRA:         -12.836
REMARK INTER:                 -11.973
REMARK INTRA:                  -0.862
REMARK UNBOUND:                -0.862
REMARK  Name = 
REMARK  7 active torsions:
REMARK  status: ('A' for Active; 'I' for Inactive)
REMARK    1  A    between atoms: C_2  and  C_20
REMARK    2  A    between atoms: N_3  and  C_4
REMARK    3  A    between atoms: C_4  and  C_5
REMARK    4  A    between atoms: C_9  and  C_10
REMARK    5  A    between atoms: C_10  and  N_11
REMARK    6  A    between atoms: N_11  and  C_12
REMARK    7  A    between atoms: C_12  and  C_13
REMARK                            x       y       z     vdW  Elec       q    Type
REMARK                         _______ _______ _______ _____ _____    ______ ____
ROOT
ATOM      1  C   UNL     1      45.953   4.824  13.357  0.00  0.00    +0.000 A 
ATOM      2  C   UNL     1      46.973   5.718  13.008  0.00  0.00    +0.000 A 
ATOM      3  C   UNL     1      46.879   6.473  11.842  0.00  0.00    +0.000 A 
ATOM      4  C   UNL     1      45.784   6.314  10.995  0.00  0.00    +0.000 A 
ATOM      5  C   UNL     1      44.784   5.369  11.281  0.00  0.00    +0.000 A 
ATOM      6  C   UNL     1      44.865   4.653  12.484  0.00  0.00    +0.000 A 
ENDROOT
BRANCH   1   7
ATOM      7  C   UNL     1      46.036   4.013  14.624  0.00  0.00    +0.000 C 
BRANCH   7  10
ATOM      8  O   UNL     1      46.542   3.262  17.300  0.00  0.00    +0.000 OA
ATOM      9  C   UNL     1      47.363   3.955  16.702  0.00  0.00    +0.000 C 
ATOM     10  N   UNL     1      47.160   4.414  15.427  0.00  0.00    +0.000 N 
ATOM     11  H   UNL     1      47.947   4.798  14.916  0.00  0.00    +0.000 HD
BRANCH   9  12
ATOM     12  C   UNL     1      48.604   4.401  17.348  0.00  0.00    +0.000 A 
ATOM     13  C   UNL     1      48.670   5.655  17.939  0.00  0.00    +0.000 A 
ATOM     14  S   UNL     1      50.198   6.011  18.609  0.00  0.00    +0.000 S 
ATOM     15  C   UNL     1      50.809   4.481  18.176  0.00  0.00    +0.000 A 
ATOM     16  N   UNL     1      52.082   4.119  18.483  0.00  0.00    +0.000 NA
ATOM     17  C   UNL     1      52.396   2.917  18.136  0.00  0.00    +0.000 A 
ATOM     18  N   UNL     1      51.554   2.046  17.501  0.00  0.00    +0.000 N 
ATOM     19  C   UNL     1      50.284   2.391  17.102  0.00  0.00    +0.000 A 
ATOM     20  O   UNL     1      49.609   1.634  16.413  0.00  0.00    +0.000 OA
ATOM     21  C   UNL     1      49.866   3.719  17.509  0.00  0.00    +0.000 A 
ATOM     22  H   UNL     1      51.868   1.125  17.222  0.00  0.00    +0.000 HD
ENDBRANCH   9  12
ENDBRANCH   7  10
ENDBRANCH   1   7
BRANCH   5  23
ATOM     23  C   UNL     1      43.628   5.121  10.332  0.00  0.00    +0.000 C 
BRANCH  23  24
ATOM     24  N   UNL     1      44.084   4.403   9.143  0.00  0.00    +0.000 NA
ATOM     25  H   UNL     1      44.946   4.858   8.839  0.00  0.00    +0.000 HD
BRANCH  24  26
ATOM     26  C   UNL     1      44.393   2.993   9.407  0.00  0.00    +0.000 C 
BRANCH  26  27
ATOM     27  C   UNL     1      45.714   2.608   8.683  0.00  0.00    +0.000 C 
ATOM     28  C   UNL     1      45.940   3.478   7.440  0.00  0.00    +0.000 C 
ATOM     29  C   UNL     1      47.228   3.083   6.720  0.00  0.00    +0.000 C 
ATOM     30  C   UNL     1      47.254   1.584   6.439  0.00  0.00    +0.000 C 
ATOM     31  C   UNL     1      46.981   0.780   7.704  0.00  0.00    +0.000 C 
ATOM     32  N   UNL     1      45.717   1.172   8.325  0.00  0.00    +0.000 NA
ATOM     33  H   UNL     1      45.613   0.641   9.190  0.00  0.00    +0.000 HD
ENDBRANCH  26  27
ENDBRANCH  24  26
ENDBRANCH  23  24
ENDBRANCH   5  23
TORSDOF 7
ENDMDL
MODEL 2
REMARK VINA RESULT:    -8.429      1.366      1.690
REMARK INTER + INTRA:         -12.741
REMARK INTER:                 -11.879
REMARK INTRA:                  -0.861
REMARK UNBOUND:                -0.862
REMARK  Name = 
REMARK  7 active torsions:
REMARK  status: ('A' for Active; 'I' for Inactive)
REMARK    1  A    between atoms: C_2  and  C_20
REMARK    2  A    between atoms: N_3  and  C_4
REMARK    3  A    between atoms: C_4  and  C_5
REMARK    4  A    between atoms: C_9  and  C_10
REMARK    5  A    between atoms: C_10  and  N_11
REMARK    6  A    between atoms: N_11  and  C_12
REMARK    7  A    between atoms: C_12  and  C_13
REMARK                            x       y       z     vdW  Elec       q    Type
REMARK                         _______ _______ _______ _____ _____    ______ ____
ROOT
ATOM      1  C   UNL     1      46.869   5.039  13.656  0.00  0.00    +0.000 A 
ATOM      2  C   UNL     1      47.776   6.105  13.596  0.00  0.00    +0.000 A 
ATOM      3  C   UNL     1      47.667   7.066  12.593  0.00  0.00    +0.000 A 
ATOM      4  C   UNL     1      46.676   6.948  11.620  0.00  0.00    +0.000 A 
ATOM      5  C   UNL     1      45.802   5.848  11.612  0.00  0.00    +0.000 A 
ATOM      6  C   UNL     1      45.890   4.917  12.657  0.00  0.00    +0.000 A 
ENDROOT
BRANCH   1   7
ATOM      7  C   UNL     1      46.968   4.003  14.745  0.00  0.00    +0.000 C 
BRANCH   7  10
ATOM      8  O   UNL     1      46.502   3.142  17.395  0.00  0.00    +0.000 OA
ATOM      9  C   UNL     1      47.317   4.037  17.187  0.00  0.00    +0.000 C 
ATOM     10  N   UNL     1      47.551   4.554  15.939  0.00  0.00    +0.000 N 
ATOM     11  H   UNL     1      48.370   5.134  15.797  0.00  0.00    +0.000 HD
BRANCH   9  12
ATOM     12  C   UNL     1      48.058   4.670  18.285  0.00  0.00    +0.000 A 
ATOM     13  C   UNL     1      47.407   5.530  19.159  0.00  0.00    +0.000 A 
ATOM     14  S   UNL     1      48.434   6.194  20.350  0.00  0.00    +0.000 S 
ATOM     15  C   UNL     1      49.772   5.315  19.768  0.00  0.00    +0.000 A 
ATOM     16  N   UNL     1      50.990   5.409  20.365  0.00  0.00    +0.000 NA
ATOM     17  C   UNL     1      51.899   4.655  19.849  0.00  0.00    +0.000 A 
ATOM     18  N   UNL     1      51.705   3.821  18.782  0.00  0.00    +0.000 N 
ATOM     19  C   UNL     1      50.515   3.749  18.096  0.00  0.00    +0.000 A 
ATOM     20  O   UNL     1      50.418   3.098  17.062  0.00  0.00    +0.000 OA
ATOM     21  C   UNL     1      49.444   4.545  18.666  0.00  0.00    +0.000 A 
ATOM     22  H   UNL     1      52.468   3.279  18.397  0.00  0.00    +0.000 HD
ENDBRANCH   9  12
ENDBRANCH   7  10
ENDBRANCH   1   7
BRANCH   5  23
ATOM     23  C   UNL     1      44.772   5.658  10.516  0.00  0.00    +0.000 C 
BRANCH  23  24
ATOM     24  N   UNL     1      45.375   5.012   9.350  0.00  0.00    +0.000 NA
ATOM     25  H   UNL     1      46.156   4.454   9.696  0.00  0.00    +0.000 HD
BRANCH  24  26
ATOM     26  C   UNL     1      44.453   4.106   8.656  0.00  0.00    +0.000 C 
BRANCH  26  27
ATOM     27  C   UNL     1      45.264   3.138   7.749  0.00  0.00    +0.000 C 
ATOM     28  C   UNL     1      45.879   1.995   8.567  0.00  0.00    +0.000 C 
ATOM     29  C   UNL     1      46.692   1.058   7.676  0.00  0.00    +0.000 C 
ATOM     30  C   UNL     1      47.707   1.841   6.849  0.00  0.00    +0.000 C 
ATOM     31  C   UNL     1      47.040   2.986   6.097  0.00  0.00    +0.000 C 
ATOM     32  N   UNL     1      46.312   3.872   7.005  0.00  0.00    +0.000 NA
ATOM     33  H   UNL     1      45.847   4.585   6.443  0.00  0.00    +0.000 HD
ENDBRANCH  26  27
ENDBRANCH  24  26
ENDBRANCH  23  24
ENDBRANCH   5  23
TORSDOF 7
ENDMDL
MODEL 3
REMARK VINA RESULT:    -8.373      1.936      2.817
REMARK INTER + INTRA:         -12.662
REMARK INTER:                 -11.437
REMARK INTRA:                  -1.224
REMARK UNBOUND:                -0.862
REMARK  Name = 
REMARK  7 active torsions:
REMARK  status: ('A' for Active; 'I' for Inactive)
REMARK    1  A    between atoms: C_2  and  C_20
REMARK    2  A    between atoms: N_3  and  C_4
REMARK    3  A    between atoms: C_4  and  C_5
REMARK    4  A    between atoms: C_9  and  C_10
REMARK    5  A    between atoms: C_10  and  N_11
REMARK    6  A    between atoms: N_11  and  C_12
REMARK    7  A    between atoms: C_12  and  C_13
REMARK                            x       y       z     vdW  Elec       q    Type
REMARK                         _______ _______ _______ _____ _____    ______ ____
ROOT
ATOM      1  C   UNL     1      46.563   6.761  11.914  0.00  0.00    +0.000 A 
ATOM      2  C   UNL     1      45.623   7.779  11.707  0.00  0.00    +0.000 A 
ATOM      3  C   UNL     1      44.280   7.467  11.507  0.00  0.00    +0.000 A 
ATOM      4  C   UNL     1      43.872   6.135  11.474  0.00  0.00    +0.000 A 
ATOM      5  C   UNL     1      44.805   5.093  11.601  0.00  0.00    +0.000 A 
ATOM      6  C   UNL     1      46.144   5.422  11.855  0.00  0.00    +0.000 A 
ENDROOT
BRANCH   1   7
ATOM      7  C   UNL     1      48.015   7.087  12.148  0.00  0.00    +0.000 C 
BRANCH   7  10
ATOM      8  O   UNL     1      47.982   8.350  14.674  0.00  0.00    +0.000 OA
ATOM      9  C   UNL     1      48.374   7.189  14.586  0.00  0.00    +0.000 C 
ATOM     10  N   UNL     1      48.482   6.530  13.390  0.00  0.00    +0.000 N 
ATOM     11  H   UNL     1      48.608   5.524  13.396  0.00  0.00    +0.000 HD
BRANCH   9  12
ATOM     12  C   UNL     1      48.826   6.441  15.765  0.00  0.00    +0.000 A 
ATOM     13  C   UNL     1      49.881   6.918  16.532  0.00  0.00    +0.000 A 
ATOM     14  S   UNL     1      50.285   5.901  17.841  0.00  0.00    +0.000 S 
ATOM     15  C   UNL     1      49.032   4.813  17.458  0.00  0.00    +0.000 A 
ATOM     16  N   UNL     1      48.805   3.706  18.213  0.00  0.00    +0.000 NA
ATOM     17  C   UNL     1      47.797   2.997  17.835  0.00  0.00    +0.000 A 
ATOM     18  N   UNL     1      46.998   3.289  16.763  0.00  0.00    +0.000 N 
ATOM     19  C   UNL     1      47.234   4.353  15.924  0.00  0.00    +0.000 A 
ATOM     20  O   UNL     1      46.584   4.504  14.896  0.00  0.00    +0.000 OA
ATOM     21  C   UNL     1      48.330   5.210  16.333  0.00  0.00    +0.000 A 
ATOM     22  H   UNL     1      46.241   2.674  16.493  0.00  0.00    +0.000 HD
ENDBRANCH   9  12
ENDBRANCH   7  10
ENDBRANCH   1   7
BRANCH   5  23
ATOM     23  C   UNL     1      44.394   3.638  11.485  0.00  0.00    +0.000 C 
BRANCH  23  24
ATOM     24  N   UNL     1      43.925   3.343  10.131  0.00  0.00    +0.000 NA
ATOM     25  H   UNL     1      44.293   4.078   9.527  0.00  0.00    +0.000 HD
BRANCH  24  26
ATOM     26  C   UNL     1      44.416   2.059   9.621  0.00  0.00    +0.000 C 
BRANCH  26  27
ATOM     27  C   UNL     1      45.665   2.301   8.727  0.00  0.00    +0.000 C 
ATOM     28  C   UNL     1      45.374   3.338   7.635  0.00  0.00    +0.000 C 
ATOM     29  C   UNL     1      46.596   3.558   6.746  0.00  0.00    +0.000 C 
ATOM     30  C   UNL     1      47.124   2.230   6.212  0.00  0.00    +0.000 C 
ATOM     31  C   UNL     1      47.351   1.232   7.341  0.00  0.00    +0.000 C 
ATOM     32  N   UNL     1      46.137   1.031   8.130  0.00  0.00    +0.000 NA
ATOM     33  H   UNL     1      46.362   0.397   8.897  0.00  0.00    +0.000 HD
ENDBRANCH  26  27
ENDBRANCH  24  26
ENDBRANCH  23  24
ENDBRANCH   5  23
TORSDOF 7
ENDMDL
MODEL 4
REMARK VINA RESULT:    -8.156      2.192      2.801
REMARK INTER + INTRA:         -12.356
REMARK INTER:                 -11.083
REMARK INTRA:                  -1.273
REMARK UNBOUND:                -0.862
REMARK  Name = 
REMARK  7 active torsions:
REMARK  status: ('A' for Active; 'I' for Inactive)
REMARK    1  A    between atoms: C_2  and  C_20
REMARK    2  A    between atoms: N_3  and  C_4
REMARK    3  A    between atoms: C_4  and  C_5
REMARK    4  A    between atoms: C_9  and  C_10
REMARK    5  A    between atoms: C_10  and  N_11
REMARK    6  A    between atoms: N_11  and  C_12
REMARK    7  A    between atoms: C_12  and  C_13
REMARK                            x       y       z     vdW  Elec       q    Type
REMARK                         _______ _______ _______ _____ _____    ______ ____
ROOT
ATOM      1  C   UNL     1      46.638   6.296  12.892  0.00  0.00    +0.000 A 
ATOM      2  C   UNL     1      46.162   7.303  12.042  0.00  0.00    +0.000 A 
ATOM      3  C   UNL     1      44.843   7.281  11.595  0.00  0.00    +0.000 A 
ATOM      4  C   UNL     1      44.000   6.233  11.963  0.00  0.00    +0.000 A 
ATOM      5  C   UNL     1      44.474   5.171  12.751  0.00  0.00    +0.000 A 
ATOM      6  C   UNL     1      45.788   5.233  13.236  0.00  0.00    +0.000 A 
ENDROOT
BRANCH   1   7
ATOM      7  C   UNL     1      48.058   6.318  13.393  0.00  0.00    +0.000 C 
BRANCH   7  10
ATOM      8  O   UNL     1      50.211   7.262  14.961  0.00  0.00    +0.000 OA
ATOM      9  C   UNL     1      49.167   6.919  15.513  0.00  0.00    +0.000 C 
ATOM     10  N   UNL     1      48.104   6.390  14.830  0.00  0.00    +0.000 N 
ATOM     11  H   UNL     1      47.208   6.322  15.298  0.00  0.00    +0.000 HD
BRANCH   9  12
ATOM     12  C   UNL     1      49.012   6.991  16.971  0.00  0.00    +0.000 A 
ATOM     13  C   UNL     1      48.855   8.220  17.596  0.00  0.00    +0.000 A 
ATOM     14  S   UNL     1      48.722   8.107  19.294  0.00  0.00    +0.000 S 
ATOM     15  C   UNL     1      48.820   6.408  19.247  0.00  0.00    +0.000 A 
ATOM     16  N   UNL     1      48.746   5.666  20.383  0.00  0.00    +0.000 NA
ATOM     17  C   UNL     1      48.788   4.392  20.196  0.00  0.00    +0.000 A 
ATOM     18  N   UNL     1      48.906   3.789  18.974  0.00  0.00    +0.000 N 
ATOM     19  C   UNL     1      49.061   4.495  17.804  0.00  0.00    +0.000 A 
ATOM     20  O   UNL     1      49.305   3.924  16.747  0.00  0.00    +0.000 OA
ATOM     21  C   UNL     1      48.975   5.935  17.955  0.00  0.00    +0.000 A 
ATOM     22  H   UNL     1      48.969   2.782  18.892  0.00  0.00    +0.000 HD
ENDBRANCH   9  12
ENDBRANCH   7  10
ENDBRANCH   1   7
BRANCH   5  23
ATOM     23  C   UNL     1      43.599   3.981  13.094  0.00  0.00    +0.000 C 
BRANCH  23  24
ATOM     24  N   UNL     1      44.058   2.785  12.387  0.00  0.00    +0.000 NA
ATOM     25  H   UNL     1      43.674   1.984  12.888  0.00  0.00    +0.000 HD
BRANCH  24  26
ATOM     26  C   UNL     1      43.579   2.718  11.002  0.00  0.00    +0.000 C 
BRANCH  26  27
ATOM     27  C   UNL     1      44.784   2.860  10.030  0.00  0.00    +0.000 C 
ATOM     28  C   UNL     1      44.671   4.138   9.189  0.00  0.00    +0.000 C 
ATOM     29  C   UNL     1      45.845   4.264   8.221  0.00  0.00    +0.000 C 
ATOM     30  C   UNL     1      46.005   2.992   7.394  0.00  0.00    +0.000 C 
ATOM     31  C   UNL     1      46.067   1.758   8.286  0.00  0.00    +0.000 C 
ATOM     32  N   UNL     1      44.898   1.668   9.160  0.00  0.00    +0.000 NA
ATOM     33  H   UNL     1      45.020   0.857   9.766  0.00  0.00    +0.000 HD
ENDBRANCH  26  27
ENDBRANCH  24  26
ENDBRANCH  23  24
ENDBRANCH   5  23
TORSDOF 7
ENDMDL
MODEL 5
REMARK VINA RESULT:    -8.096      2.065      2.717
REMARK INTER + INTRA:         -12.272
REMARK INTER:                 -11.273
REMARK INTRA:                  -0.999
REMARK UNBOUND:                -0.862
REMARK  Name = 
REMARK  7 active torsions:
REMARK  status: ('A' for Active; 'I' for Inactive)
REMARK    1  A    between atoms: C_2  and  C_20
REMARK    2  A    between atoms: N_3  and  C_4
REMARK    3  A    between atoms: C_4  and  C_5
REMARK    4  A    between atoms: C_9  and  C_10
REMARK    5  A    between atoms: C_10  and  N_11
REMARK    6  A    between atoms: N_11  and  C_12
REMARK    7  A    between atoms: C_12  and  C_13
REMARK                            x       y       z     vdW  Elec       q    Type
REMARK                         _______ _______ _______ _____ _____    ______ ____
ROOT
ATOM      1  C   UNL     1      46.573   5.489  12.824  0.00  0.00    +0.000 A 
ATOM      2  C   UNL     1      46.709   4.204  13.364  0.00  0.00    +0.000 A 
ATOM      3  C   UNL     1      45.886   3.167  12.930  0.00  0.00    +0.000 A 
ATOM      4  C   UNL     1      44.896   3.415  11.980  0.00  0.00    +0.000 A 
ATOM      5  C   UNL     1      44.687   4.710  11.479  0.00  0.00    +0.000 A 
ATOM      6  C   UNL     1      45.556   5.733  11.886  0.00  0.00    +0.000 A 
ENDROOT
BRANCH   1   7
ATOM      7  C   UNL     1      47.467   6.614  13.274  0.00  0.00    +0.000 C 
BRANCH   7  10
ATOM      8  O   UNL     1      49.933   6.960  14.609  0.00  0.00    +0.000 OA
ATOM      9  C   UNL     1      48.906   6.810  15.269  0.00  0.00    +0.000 C 
ATOM     10  N   UNL     1      47.684   6.571  14.696  0.00  0.00    +0.000 N 
ATOM     11  H   UNL     1      46.852   6.663  15.267  0.00  0.00    +0.000 HD
BRANCH   9  12
ATOM     12  C   UNL     1      48.931   6.807  16.736  0.00  0.00    +0.000 A 
ATOM     13  C   UNL     1      49.137   7.991  17.432  0.00  0.00    +0.000 A 
ATOM     14  S   UNL     1      49.166   7.787  19.126  0.00  0.00    +0.000 S 
ATOM     15  C   UNL     1      48.854   6.119  18.989  0.00  0.00    +0.000 A 
ATOM     16  N   UNL     1      48.731   5.333  20.091  0.00  0.00    +0.000 NA
ATOM     17  C   UNL     1      48.449   4.100  19.841  0.00  0.00    +0.000 A 
ATOM     18  N   UNL     1      48.289   3.577  18.587  0.00  0.00    +0.000 N 
ATOM     19  C   UNL     1      48.479   4.313  17.441  0.00  0.00    +0.000 A 
ATOM     20  O   UNL     1      48.465   3.780  16.337  0.00  0.00    +0.000 OA
ATOM     21  C   UNL     1      48.752   5.719  17.668  0.00  0.00    +0.000 A 
ATOM     22  H   UNL     1      48.103   2.592  18.451  0.00  0.00    +0.000 HD
ENDBRANCH   9  12
ENDBRANCH   7  10
ENDBRANCH   1   7
BRANCH   5  23
ATOM     23  C   UNL     1      43.563   5.017  10.509  0.00  0.00    +0.000 C 
BRANCH  23  24
ATOM     24  N   UNL     1      43.816   4.389   9.213  0.00  0.00    +0.000 NA
ATOM     25  H   UNL     1      43.150   4.795   8.556  0.00  0.00    +0.000 HD
BRANCH  24  26
ATOM     26  C   UNL     1      45.165   4.654   8.701  0.00  0.00    +0.000 C 
BRANCH  26  27
ATOM     27  C   UNL     1      45.598   3.495   7.760  0.00  0.00    +0.000 C 
ATOM     28  C   UNL     1      46.098   2.286   8.562  0.00  0.00    +0.000 C 
ATOM     29  C   UNL     1      46.542   1.157   7.633  0.00  0.00    +0.000 C 
ATOM     30  C   UNL     1      47.540   1.667   6.598  0.00  0.00    +0.000 C 
ATOM     31  C   UNL     1      47.002   2.893   5.870  0.00  0.00    +0.000 C 
ATOM     32  N   UNL     1      46.633   3.954   6.805  0.00  0.00    +0.000 NA
ATOM     33  H   UNL     1      46.233   4.723   6.268  0.00  0.00    +0.000 HD
ENDBRANCH  26  27
ENDBRANCH  24  26
ENDBRANCH  23  24
ENDBRANCH   5  23
TORSDOF 7
ENDMDL
MODEL 6
REMARK VINA RESULT:    -7.973      1.916      2.815
REMARK INTER + INTRA:         -12.098
REMARK INTER:                 -10.970
REMARK INTRA:                  -1.128
REMARK UNBOUND:                -0.862
REMARK  Name = 
REMARK  7 active torsions:
REMARK  status: ('A' for Active; 'I' for Inactive)
REMARK    1  A    between atoms: C_2  and  C_20
REMARK    2  A    between atoms: N_3  and  C_4
REMARK    3  A    between atoms: C_4  and  C_5
REMARK    4  A    between atoms: C_9  and  C_10
REMARK    5  A    between atoms: C_10  and  N_11
REMARK    6  A    between atoms: N_11  and  C_12
REMARK    7  A    between atoms: C_12  and  C_13
REMARK                            x       y       z     vdW  Elec       q    Type
REMARK                         _______ _______ _______ _____ _____    ______ ____
ROOT
ATOM      1  C   UNL     1      46.478   5.126  13.638  0.00  0.00    +0.000 A 
ATOM      2  C   UNL     1      47.450   5.934  13.032  0.00  0.00    +0.000 A 
ATOM      3  C   UNL     1      47.128   6.708  11.920  0.00  0.00    +0.000 A 
ATOM      4  C   UNL     1      45.843   6.652  11.381  0.00  0.00    +0.000 A 
ATOM      5  C   UNL     1      44.873   5.793  11.921  0.00  0.00    +0.000 A 
ATOM      6  C   UNL     1      45.195   5.059  13.072  0.00  0.00    +0.000 A 
ENDROOT
BRANCH   1   7
ATOM      7  C   UNL     1      46.811   4.297  14.850  0.00  0.00    +0.000 C 
BRANCH   7  10
ATOM      8  O   UNL     1      48.830   3.349  16.585  0.00  0.00    +0.000 OA
ATOM      9  C   UNL     1      48.541   4.544  16.592  0.00  0.00    +0.000 C 
ATOM     10  N   UNL     1      47.530   5.068  15.830  0.00  0.00    +0.000 N 
ATOM     11  H   UNL     1      47.474   6.074  15.719  0.00  0.00    +0.000 HD
BRANCH   9  12
ATOM     12  C   UNL     1      49.222   5.491  17.482  0.00  0.00    +0.000 A 
ATOM     13  C   UNL     1      50.554   5.816  17.267  0.00  0.00    +0.000 A 
ATOM     14  S   UNL     1      51.183   6.907  18.418  0.00  0.00    +0.000 S 
ATOM     15  C   UNL     1      49.682   7.022  19.214  0.00  0.00    +0.000 A 
ATOM     16  N   UNL     1      49.519   7.827  20.297  0.00  0.00    +0.000 NA
ATOM     17  C   UNL     1      48.321   7.853  20.771  0.00  0.00    +0.000 A 
ATOM     18  N   UNL     1      47.269   7.138  20.266  0.00  0.00    +0.000 N 
ATOM     19  C   UNL     1      47.400   6.253  19.222  0.00  0.00    +0.000 A 
ATOM     20  O   UNL     1      46.471   5.527  18.886  0.00  0.00    +0.000 OA
ATOM     21  C   UNL     1      48.721   6.221  18.623  0.00  0.00    +0.000 A 
ATOM     22  H   UNL     1      46.357   7.171  20.703  0.00  0.00    +0.000 HD
ENDBRANCH   9  12
ENDBRANCH   7  10
ENDBRANCH   1   7
BRANCH   5  23
ATOM     23  C   UNL     1      43.497   5.655  11.299  0.00  0.00    +0.000 C 
BRANCH  23  24
ATOM     24  N   UNL     1      43.574   4.920  10.037  0.00  0.00    +0.000 NA
ATOM     25  H   UNL     1      44.312   5.360   9.487  0.00  0.00    +0.000 HD
BRANCH  24  26
ATOM     26  C   UNL     1      43.933   3.509  10.216  0.00  0.00    +0.000 C 
BRANCH  26  27
ATOM     27  C   UNL     1      45.198   3.185   9.373  0.00  0.00    +0.000 C 
ATOM     28  C   UNL     1      45.396   4.213   8.252  0.00  0.00    +0.000 C 
ATOM     29  C   UNL     1      46.628   3.879   7.413  0.00  0.00    +0.000 C 
ATOM     30  C   UNL     1      46.577   2.435   6.925  0.00  0.00    +0.000 C 
ATOM     31  C   UNL     1      46.335   1.470   8.080  0.00  0.00    +0.000 C 
ATOM     32  N   UNL     1      45.122   1.814   8.820  0.00  0.00    +0.000 NA
ATOM     33  H   UNL     1      45.041   1.170   9.607  0.00  0.00    +0.000 HD
ENDBRANCH  26  27
ENDBRANCH  24  26
ENDBRANCH  23  24
ENDBRANCH   5  23
TORSDOF 7
ENDMDL
MODEL 7
REMARK VINA RESULT:    -7.521      2.301      2.842
REMARK INTER + INTRA:         -11.461
REMARK INTER:                 -10.249
REMARK INTRA:                  -1.212
REMARK UNBOUND:                -0.862
REMARK  Name = 
REMARK  7 active torsions:
REMARK  status: ('A' for Active; 'I' for Inactive)
REMARK    1  A    between atoms: C_2  and  C_20
REMARK    2  A    between atoms: N_3  and  C_4
REMARK    3  A    between atoms: C_4  and  C_5
REMARK    4  A    between atoms: C_9  and  C_10
REMARK    5  A    between atoms: C_10  and  N_11
REMARK    6  A    between atoms: N_11  and  C_12
REMARK    7  A    between atoms: C_12  and  C_13
REMARK                            x       y       z     vdW  Elec       q    Type
REMARK                         _______ _______ _______ _____ _____    ______ ____
ROOT
ATOM      1  C   UNL     1      46.606   5.895  12.920  0.00  0.00    +0.000 A 
ATOM      2  C   UNL     1      46.896   4.652  13.497  0.00  0.00    +0.000 A 
ATOM      3  C   UNL     1      46.209   3.511  13.091  0.00  0.00    +0.000 A 
ATOM      4  C   UNL     1      45.200   3.608  12.134  0.00  0.00    +0.000 A 
ATOM      5  C   UNL     1      44.836   4.853  11.596  0.00  0.00    +0.000 A 
ATOM      6  C   UNL     1      45.572   5.985  11.974  0.00  0.00    +0.000 A 
ENDROOT
BRANCH   1   7
ATOM      7  C   UNL     1      47.353   7.134  13.339  0.00  0.00    +0.000 C 
BRANCH   7  10
ATOM      8  O   UNL     1      48.825   8.833  15.051  0.00  0.00    +0.000 OA
ATOM      9  C   UNL     1      49.185   7.667  14.903  0.00  0.00    +0.000 C 
ATOM     10  N   UNL     1      48.564   6.801  14.042  0.00  0.00    +0.000 N 
ATOM     11  H   UNL     1      48.767   5.811  14.114  0.00  0.00    +0.000 HD
BRANCH   9  12
ATOM     12  C   UNL     1      50.364   7.135  15.597  0.00  0.00    +0.000 A 
ATOM     13  C   UNL     1      51.615   7.693  15.375  0.00  0.00    +0.000 A 
ATOM     14  S   UNL     1      52.867   6.924  16.244  0.00  0.00    +0.000 S 
ATOM     15  C   UNL     1      51.772   5.851  16.985  0.00  0.00    +0.000 A 
ATOM     16  N   UNL     1      52.194   4.922  17.883  0.00  0.00    +0.000 NA
ATOM     17  C   UNL     1      51.253   4.209  18.400  0.00  0.00    +0.000 A 
ATOM     18  N   UNL     1      49.926   4.332  18.093  0.00  0.00    +0.000 N 
ATOM     19  C   UNL     1      49.458   5.203  17.137  0.00  0.00    +0.000 A 
ATOM     20  O   UNL     1      48.282   5.189  16.789  0.00  0.00    +0.000 OA
ATOM     21  C   UNL     1      50.473   6.062  16.558  0.00  0.00    +0.000 A 
ATOM     22  H   UNL     1      49.235   3.719  18.506  0.00  0.00    +0.000 HD
ENDBRANCH   9  12
ENDBRANCH   7  10
ENDBRANCH   1   7
BRANCH   5  23
ATOM     23  C   UNL     1      43.687   4.992  10.616  0.00  0.00    +0.000 C 
BRANCH  23  24
ATOM     24  N   UNL     1      43.918   4.164   9.433  0.00  0.00    +0.000 NA
ATOM     25  H   UNL     1      43.088   4.254   8.846  0.00  0.00    +0.000 HD
BRANCH  24  26
ATOM     26  C   UNL     1      45.073   4.603   8.641  0.00  0.00    +0.000 C 
BRANCH  26  27
ATOM     27  C   UNL     1      45.610   3.410   7.803  0.00  0.00    +0.000 C 
ATOM     28  C   UNL     1      45.944   2.209   8.697  0.00  0.00    +0.000 C 
ATOM     29  C   UNL     1      46.491   1.046   7.873  0.00  0.00    +0.000 C 
ATOM     30  C   UNL     1      47.651   1.502   6.993  0.00  0.00    +0.000 C 
ATOM     31  C   UNL     1      47.268   2.722   6.164  0.00  0.00    +0.000 C 
ATOM     32  N   UNL     1      46.791   3.816   7.009  0.00  0.00    +0.000 NA
ATOM     33  H   UNL     1      46.502   4.582   6.400  0.00  0.00    +0.000 HD
ENDBRANCH  26  27
ENDBRANCH  24  26
ENDBRANCH  23  24
ENDBRANCH   5  23
TORSDOF 7
ENDMDL
MODEL 8
REMARK VINA RESULT:    -7.353      3.553      9.281
REMARK INTER + INTRA:         -11.225
REMARK INTER:                  -9.908
REMARK INTRA:                  -1.316
REMARK UNBOUND:                -0.862
REMARK  Name = 
REMARK  7 active torsions:
REMARK  status: ('A' for Active; 'I' for Inactive)
REMARK    1  A    between atoms: C_2  and  C_20
REMARK    2  A    between atoms: N_3  and  C_4
REMARK    3  A    between atoms: C_4  and  C_5
REMARK    4  A    between atoms: C_9  and  C_10
REMARK    5  A    between atoms: C_10  and  N_11
REMARK    6  A    between atoms: N_11  and  C_12
REMARK    7  A    between atoms: C_12  and  C_13
REMARK                            x       y       z     vdW  Elec       q    Type
REMARK                         _______ _______ _______ _____ _____    ______ ____
ROOT
ATOM      1  C   UNL     1      48.381   5.339  16.304  0.00  0.00    +0.000 A 
ATOM      2  C   UNL     1      47.602   4.177  16.376  0.00  0.00    +0.000 A 
ATOM      3  C   UNL     1      47.604   3.399  17.531  0.00  0.00    +0.000 A 
ATOM      4  C   UNL     1      48.413   3.754  18.609  0.00  0.00    +0.000 A 
ATOM      5  C   UNL     1      49.262   4.870  18.534  0.00  0.00    +0.000 A 
ATOM      6  C   UNL     1      49.211   5.674  17.386  0.00  0.00    +0.000 A 
ENDROOT
BRANCH   1   7
ATOM      7  C   UNL     1      48.375   6.197  15.066  0.00  0.00    +0.000 C 
BRANCH   7  10
ATOM      8  O   UNL     1      47.905   6.990  12.395  0.00  0.00    +0.000 OA
ATOM      9  C   UNL     1      47.020   6.403  13.014  0.00  0.00    +0.000 C 
ATOM     10  N   UNL     1      47.147   6.045  14.331  0.00  0.00    +0.000 N 
ATOM     11  H   UNL     1      46.482   5.389  14.724  0.00  0.00    +0.000 HD
BRANCH   9  12
ATOM     12  C   UNL     1      45.723   6.103  12.397  0.00  0.00    +0.000 A 
ATOM     13  C   UNL     1      44.979   7.117  11.811  0.00  0.00    +0.000 A 
ATOM     14  S   UNL     1      43.487   6.584  11.175  0.00  0.00    +0.000 S 
ATOM     15  C   UNL     1      43.808   4.971  11.616  0.00  0.00    +0.000 A 
ATOM     16  N   UNL     1      42.927   3.976  11.336  0.00  0.00    +0.000 NA
ATOM     17  C   UNL     1      43.319   2.798  11.686  0.00  0.00    +0.000 A 
ATOM     18  N   UNL     1      44.510   2.526  12.300  0.00  0.00    +0.000 N 
ATOM     19  C   UNL     1      45.400   3.506  12.673  0.00  0.00    +0.000 A 
ATOM     20  O   UNL     1      46.390   3.240  13.345  0.00  0.00    +0.000 OA
ATOM     21  C   UNL     1      45.026   4.846  12.261  0.00  0.00    +0.000 A 
ATOM     22  H   UNL     1      44.748   1.584  12.584  0.00  0.00    +0.000 HD
ENDBRANCH   9  12
ENDBRANCH   7  10
ENDBRANCH   1   7
BRANCH   5  23
ATOM     23  C   UNL     1      50.211   5.225  19.662  0.00  0.00    +0.000 C 
BRANCH  23  24
ATOM     24  N   UNL     1      51.212   4.174  19.842  0.00  0.00    +0.000 NA
ATOM     25  H   UNL     1      50.818   3.323  19.440  0.00  0.00    +0.000 HD
BRANCH  24  26
ATOM     26  C   UNL     1      52.472   4.456  19.145  0.00  0.00    +0.000 C 
BRANCH  26  27
ATOM     27  C   UNL     1      52.971   3.165  18.436  0.00  0.00    +0.000 C 
ATOM     28  C   UNL     1      51.798   2.344  17.887  0.00  0.00    +0.000 C 
ATOM     29  C   UNL     1      52.291   1.067  17.210  0.00  0.00    +0.000 C 
ATOM     30  C   UNL     1      53.213   0.282  18.138  0.00  0.00    +0.000 C 
ATOM     31  C   UNL     1      54.330   1.165  18.682  0.00  0.00    +0.000 C 
ATOM     32  N   UNL     1      53.797   2.349  19.355  0.00  0.00    +0.000 NA
ATOM     33  H   UNL     1      54.586   2.925  19.650  0.00  0.00    +0.000 HD
ENDBRANCH  26  27
ENDBRANCH  24  26
ENDBRANCH  23  24
ENDBRANCH   5  23
TORSDOF 7
ENDMDL
MODEL 9
REMARK VINA RESULT:    -7.086      4.360      5.598
REMARK INTER + INTRA:         -10.848
REMARK INTER:                  -9.772
REMARK INTRA:                  -1.076
REMARK UNBOUND:                -0.862
REMARK  Name = 
REMARK  7 active torsions:
REMARK  status: ('A' for Active; 'I' for Inactive)
REMARK    1  A    between atoms: C_2  and  C_20
REMARK    2  A    between atoms: N_3  and  C_4
REMARK    3  A    between atoms: C_4  and  C_5
REMARK    4  A    between atoms: C_9  and  C_10
REMARK    5  A    between atoms: C_10  and  N_11
REMARK    6  A    between atoms: N_11  and  C_12
REMARK    7  A    between atoms: C_12  and  C_13
REMARK                            x       y       z     vdW  Elec       q    Type
REMARK                         _______ _______ _______ _____ _____    ______ ____
ROOT
ATOM      1  C   UNL     1      45.824   6.429  12.891  0.00  0.00    +0.000 A 
ATOM      2  C   UNL     1      46.884   5.883  13.627  0.00  0.00    +0.000 A 
ATOM      3  C   UNL     1      47.033   4.502  13.728  0.00  0.00    +0.000 A 
ATOM      4  C   UNL     1      46.103   3.655  13.127  0.00  0.00    +0.000 A 
ATOM      5  C   UNL     1      44.989   4.175  12.448  0.00  0.00    +0.000 A 
ATOM      6  C   UNL     1      44.880   5.567  12.310  0.00  0.00    +0.000 A 
ENDROOT
BRANCH   1   7
ATOM      7  C   UNL     1      45.662   7.921  12.761  0.00  0.00    +0.000 C 
BRANCH   7  10
ATOM      8  O   UNL     1      47.504   9.719  13.926  0.00  0.00    +0.000 OA
ATOM      9  C   UNL     1      47.683   9.335  12.772  0.00  0.00    +0.000 C 
ATOM     10  N   UNL     1      46.802   8.516  12.116  0.00  0.00    +0.000 N 
ATOM     11  H   UNL     1      47.099   8.069  11.257  0.00  0.00    +0.000 HD
BRANCH   9  12
ATOM     12  C   UNL     1      48.836   9.788  11.984  0.00  0.00    +0.000 A 
ATOM     13  C   UNL     1      48.943  11.121  11.610  0.00  0.00    +0.000 A 
ATOM     14  S   UNL     1      50.330  11.454  10.673  0.00  0.00    +0.000 S 
ATOM     15  C   UNL     1      50.860   9.839  10.778  0.00  0.00    +0.000 A 
ATOM     16  N   UNL     1      52.022   9.440  10.198  0.00  0.00    +0.000 NA
ATOM     17  C   UNL     1      52.324   8.202  10.396  0.00  0.00    +0.000 A 
ATOM     18  N   UNL     1      51.562   7.322  11.114  0.00  0.00    +0.000 N 
ATOM     19  C   UNL     1      50.342   7.657  11.654  0.00  0.00    +0.000 A 
ATOM     20  O   UNL     1      49.623   6.808  12.170  0.00  0.00    +0.000 OA
ATOM     21  C   UNL     1      49.978   9.052  11.498  0.00  0.00    +0.000 A 
ATOM     22  H   UNL     1      51.832   6.351  11.206  0.00  0.00    +0.000 HD
ENDBRANCH   9  12
ENDBRANCH   7  10
ENDBRANCH   1   7
BRANCH   5  23
ATOM     23  C   UNL     1      43.922   3.273  11.859  0.00  0.00    +0.000 C 
BRANCH  23  24
ATOM     24  N   UNL     1      44.498   2.390  10.846  0.00  0.00    +0.000 NA
ATOM     25  H   UNL     1      43.969   1.519  10.881  0.00  0.00    +0.000 HD
BRANCH  24  26
ATOM     26  C   UNL     1      44.383   2.927   9.485  0.00  0.00    +0.000 C 
BRANCH  26  27
ATOM     27  C   UNL     1      45.689   2.626   8.698  0.00  0.00    +0.000 C 
ATOM     28  C   UNL     1      45.779   3.477   7.425  0.00  0.00    +0.000 C 
ATOM     29  C   UNL     1      47.053   3.164   6.643  0.00  0.00    +0.000 C 
ATOM     30  C   UNL     1      47.182   1.665   6.394  0.00  0.00    +0.000 C 
ATOM     31  C   UNL     1      47.041   0.876   7.690  0.00  0.00    +0.000 C 
ATOM     32  N   UNL     1      45.785   1.185   8.372  0.00  0.00    +0.000 NA
ATOM     33  H   UNL     1      45.770   0.670   9.252  0.00  0.00    +0.000 HD
ENDBRANCH  26  27
ENDBRANCH  24  26
ENDBRANCH  23  24
ENDBRANCH   5  23
TORSDOF 7
ENDMDL
