MODEL 1
REMARK VINA RESULT:    -8.292      0.000      0.000
REMARK INTER + INTRA:         -14.085
REMARK INTER:                 -12.897
REMARK INTRA:                  -1.187
REMARK UNBOUND:                -1.187
REMARK  Name = 
REMARK  10 active torsions:
REMARK  status: ('A' for Active; 'I' for Inactive)
REMARK    1  A    between atoms: C_2  and  C_23
REMARK    2  A    between atoms: N_3  and  C_4
REMARK    3  A    between atoms: C_4  and  C_5
REMARK    4  A    between atoms: C_8  and  C_9
REMARK    5  A    between atoms: C_9  and  N_10
REMARK    6  A    between atoms: N_10  and  C_11
REMARK    7  A    between atoms: N_10  and  C_14
REMARK    8  A    between atoms: C_11  and  C_12
REMARK    9  A    between atoms: C_12  and  O_13
REMARK   10  A    between atoms: C_14  and  C_15
REMARK                            x       y       z     vdW  Elec       q    Type
REMARK                         _______ _______ _______ _____ _____    ______ ____
ROOT
ATOM      1  C   UNL     1      46.953   8.131  12.706  0.00  0.00    +0.000 A 
ATOM      2  C   UNL     1      47.446   7.244  11.741  0.00  0.00    +0.000 A 
ATOM      3  C   UNL     1      46.581   6.382  11.068  0.00  0.00    +0.000 A 
ATOM      4  C   UNL     1      45.209   6.387  11.357  0.00  0.00    +0.000 A 
ATOM      5  C   UNL     1      44.703   7.357  12.233  0.00  0.00    +0.000 A 
ATOM      6  C   UNL     1      45.569   8.227  12.899  0.00  0.00    +0.000 A 
ENDROOT
BRANCH   1   7
ATOM      7  C   UNL     1      47.903   8.951  13.535  0.00  0.00    +0.000 C 
BRANCH   7  10
ATOM      8  O   UNL     1      49.690   6.967  14.386  0.00  0.00    +0.000 OA
ATOM      9  C   UNL     1      48.910   7.455  15.194  0.00  0.00    +0.000 C 
ATOM     10  N   UNL     1      48.013   8.439  14.870  0.00  0.00    +0.000 N 
ATOM     11  H   UNL     1      47.410   8.818  15.594  0.00  0.00    +0.000 HD
BRANCH   9  12
ATOM     12  C   UNL     1      48.865   7.028  16.593  0.00  0.00    +0.000 A 
ATOM     13  C   UNL     1      48.999   7.922  17.638  0.00  0.00    +0.000 A 
ATOM     14  S   UNL     1      48.922   7.178  19.169  0.00  0.00    +0.000 S 
ATOM     15  C   UNL     1      48.710   5.621  18.480  0.00  0.00    +0.000 A 
ATOM     16  C   UNL     1      48.561   4.375  19.067  0.00  0.00    +0.000 A 
ATOM     17 CL   UNL     1      48.555   4.107  20.755  0.00  0.00    +0.000 Cl
ATOM     18  N   UNL     1      48.412   3.272  18.311  0.00  0.00    +0.000 NA
ATOM     19  C   UNL     1      48.409   3.434  16.986  0.00  0.00    +0.000 A 
ATOM     20  N   UNL     1      48.537   4.579  16.314  0.00  0.00    +0.000 NA
ATOM     21  C   UNL     1      48.694   5.687  17.090  0.00  0.00    +0.000 A 
ENDBRANCH   9  12
ENDBRANCH   7  10
ENDBRANCH   1   7
BRANCH   4  22
ATOM     22  C   UNL     1      44.307   5.309  10.791  0.00  0.00    +0.000 C 
BRANCH  22  23
ATOM     23  N   UNL     1      45.034   4.057  10.446  0.00  0.00    +0.000 NA
BRANCH  23  24
ATOM     24  C   UNL     1      44.874   3.047  11.526  0.00  0.00    +0.000 C 
BRANCH  24  25
ATOM     25  C   UNL     1      43.461   2.935  12.131  0.00  0.00    +0.000 C 
BRANCH  25  26
ATOM     26  O   UNL     1      42.842   1.712  11.737  0.00  0.00    +0.000 OA
ATOM     27  H   UNL     1      41.914   1.751  12.028  0.00  0.00    +0.000 HD
ENDBRANCH  25  26
ENDBRANCH  24  25
ENDBRANCH  23  24
BRANCH  23  28
ATOM     28  C   UNL     1      44.516   3.511   9.174  0.00  0.00    +0.000 C 
BRANCH  28  29
ATOM     29  C   UNL     1      45.546   2.877   8.265  0.00  0.00    +0.000 A 
ATOM     30  C   UNL     1      46.293   3.651   7.364  0.00  0.00    +0.000 A 
ATOM     31  C   UNL     1      47.327   3.071   6.626  0.00  0.00    +0.000 A 
ATOM     32  C   UNL     1      47.617   1.716   6.771  0.00  0.00    +0.000 A 
ATOM     33  C   UNL     1      46.860   0.931   7.638  0.00  0.00    +0.000 A 
ATOM     34  C   UNL     1      45.829   1.509   8.380  0.00  0.00    +0.000 A 
ENDBRANCH  28  29
ENDBRANCH  23  28
ENDBRANCH  22  23
ENDBRANCH   4  22
TORSDOF 10
ENDMDL
MODEL 2
REMARK VINA RESULT:    -8.189      1.551      1.945
REMARK INTER + INTRA:         -13.924
REMARK INTER:                 -12.636
REMARK INTRA:                  -1.289
REMARK UNBOUND:                -1.187
REMARK  Name = 
REMARK  10 active torsions:
REMARK  status: ('A' for Active; 'I' for Inactive)
REMARK    1  A    between atoms: C_2  and  C_23
REMARK    2  A    between atoms: N_3  and  C_4
REMARK    3  A    between atoms: C_4  and  C_5
REMARK    4  A    between atoms: C_8  and  C_9
REMARK    5  A    between atoms: C_9  and  N_10
REMARK    6  A    between atoms: N_10  and  C_11
REMARK    7  A    between atoms: N_10  and  C_14
REMARK    8  A    between atoms: C_11  and  C_12
REMARK    9  A    between atoms: C_12  and  O_13
REMARK   10  A    between atoms: C_14  and  C_15
REMARK                            x       y       z     vdW  Elec       q    Type
REMARK                         _______ _______ _______ _____ _____    ______ ____
ROOT
ATOM      1  C   UNL     1      47.319   8.005  13.267  0.00  0.00    +0.000 A 
ATOM      2  C   UNL     1      47.808   7.061  12.354  0.00  0.00    +0.000 A 
ATOM      3  C   UNL     1      46.939   6.410  11.480  0.00  0.00    +0.000 A 
ATOM      4  C   UNL     1      45.565   6.686  11.511  0.00  0.00    +0.000 A 
ATOM      5  C   UNL     1      45.097   7.716  12.338  0.00  0.00    +0.000 A 
ATOM      6  C   UNL     1      45.970   8.375  13.207  0.00  0.00    +0.000 A 
ENDROOT
BRANCH   1   7
ATOM      7  C   UNL     1      48.232   8.594  14.308  0.00  0.00    +0.000 C 
BRANCH   7  10
ATOM      8  O   UNL     1      49.968   6.555  15.136  0.00  0.00    +0.000 OA
ATOM      9  C   UNL     1      49.038   6.880  15.863  0.00  0.00    +0.000 C 
ATOM     10  N   UNL     1      48.150   7.875  15.546  0.00  0.00    +0.000 N 
ATOM     11  H   UNL     1      47.415   8.113  16.206  0.00  0.00    +0.000 HD
BRANCH   9  12
ATOM     12  C   UNL     1      48.788   6.230  17.150  0.00  0.00    +0.000 A 
ATOM     13  C   UNL     1      48.977   4.874  17.337  0.00  0.00    +0.000 A 
ATOM     14  S   UNL     1      48.610   4.359  18.919  0.00  0.00    +0.000 S 
ATOM     15  C   UNL     1      48.177   5.945  19.410  0.00  0.00    +0.000 A 
ATOM     16  C   UNL     1      47.726   6.433  20.626  0.00  0.00    +0.000 A 
ATOM     17 CL   UNL     1      47.489   5.468  22.017  0.00  0.00    +0.000 Cl
ATOM     18  N   UNL     1      47.439   7.738  20.779  0.00  0.00    +0.000 NA
ATOM     19  C   UNL     1      47.611   8.532  19.719  0.00  0.00    +0.000 A 
ATOM     20  N   UNL     1      48.043   8.175  18.508  0.00  0.00    +0.000 NA
ATOM     21  C   UNL     1      48.324   6.850  18.364  0.00  0.00    +0.000 A 
ENDBRANCH   9  12
ENDBRANCH   7  10
ENDBRANCH   1   7
BRANCH   4  22
ATOM     22  C   UNL     1      44.598   5.828  10.721  0.00  0.00    +0.000 C 
BRANCH  22  23
ATOM     23  N   UNL     1      45.120   4.464  10.436  0.00  0.00    +0.000 NA
BRANCH  23  24
ATOM     24  C   UNL     1      44.751   3.527  11.531  0.00  0.00    +0.000 C 
BRANCH  24  25
ATOM     25  C   UNL     1      43.251   3.189  11.642  0.00  0.00    +0.000 C 
BRANCH  25  26
ATOM     26  O   UNL     1      43.057   1.777  11.689  0.00  0.00    +0.000 OA
ATOM     27  H   UNL     1      43.774   1.370  11.171  0.00  0.00    +0.000 HD
ENDBRANCH  25  26
ENDBRANCH  24  25
ENDBRANCH  23  24
BRANCH  23  28
ATOM     28  C   UNL     1      44.570   3.974   9.155  0.00  0.00    +0.000 C 
BRANCH  28  29
ATOM     29  C   UNL     1      45.508   3.128   8.321  0.00  0.00    +0.000 A 
ATOM     30  C   UNL     1      46.386   3.714   7.397  0.00  0.00    +0.000 A 
ATOM     31  C   UNL     1      47.332   2.934   6.730  0.00  0.00    +0.000 A 
ATOM     32  C   UNL     1      47.403   1.562   6.970  0.00  0.00    +0.000 A 
ATOM     33  C   UNL     1      46.515   0.965   7.861  0.00  0.00    +0.000 A 
ATOM     34  C   UNL     1      45.571   1.743   8.531  0.00  0.00    +0.000 A 
ENDBRANCH  28  29
ENDBRANCH  23  28
ENDBRANCH  22  23
ENDBRANCH   4  22
TORSDOF 10
ENDMDL
MODEL 3
REMARK VINA RESULT:    -8.069      1.910      2.314
REMARK INTER + INTRA:         -13.737
REMARK INTER:                 -12.499
REMARK INTRA:                  -1.238
REMARK UNBOUND:                -1.187
REMARK  Name = 
REMARK  10 active torsions:
REMARK  status: ('A' for Active; 'I' for Inactive)
REMARK    1  A    between atoms: C_2  and  C_23
REMARK    2  A    between atoms: N_3  and  C_4
REMARK    3  A    between atoms: C_4  and  C_5
REMARK    4  A    between atoms: C_8  and  C_9
REMARK    5  A    between atoms: C_9  and  N_10
REMARK    6  A    between atoms: N_10  and  C_11
REMARK    7  A    between atoms: N_10  and  C_14
REMARK    8  A    between atoms: C_11  and  C_12
REMARK    9  A    between atoms: C_12  and  O_13
REMARK   10  A    between atoms: C_14  and  C_15
REMARK                            x       y       z     vdW  Elec       q    Type
REMARK                         _______ _______ _______ _____ _____    ______ ____
ROOT
ATOM      1  C   UNL     1      47.258   7.318  13.676  0.00  0.00    +0.000 A 
ATOM      2  C   UNL     1      46.293   8.110  13.040  0.00  0.00    +0.000 A 
ATOM      3  C   UNL     1      45.539   7.592  11.987  0.00  0.00    +0.000 A 
ATOM      4  C   UNL     1      45.745   6.277  11.549  0.00  0.00    +0.000 A 
ATOM      5  C   UNL     1      46.623   5.452  12.264  0.00  0.00    +0.000 A 
ATOM      6  C   UNL     1      47.370   5.967  13.325  0.00  0.00    +0.000 A 
ENDROOT
BRANCH   1   7
ATOM      7  C   UNL     1      48.172   7.923  14.707  0.00  0.00    +0.000 C 
BRANCH   7  10
ATOM      8  O   UNL     1      48.613   7.526  17.446  0.00  0.00    +0.000 OA
ATOM      9  C   UNL     1      49.206   6.823  16.638  0.00  0.00    +0.000 C 
ATOM     10  N   UNL     1      49.041   6.938  15.282  0.00  0.00    +0.000 N 
ATOM     11  H   UNL     1      49.544   6.306  14.666  0.00  0.00    +0.000 HD
BRANCH   9  12
ATOM     12  C   UNL     1      50.154   5.787  17.050  0.00  0.00    +0.000 A 
ATOM     13  C   UNL     1      51.395   6.094  17.574  0.00  0.00    +0.000 A 
ATOM     14  S   UNL     1      52.315   4.715  17.967  0.00  0.00    +0.000 S 
ATOM     15  C   UNL     1      51.076   3.652  17.439  0.00  0.00    +0.000 A 
ATOM     16  C   UNL     1      51.012   2.268  17.405  0.00  0.00    +0.000 A 
ATOM     17 CL   UNL     1      52.271   1.239  17.934  0.00  0.00    +0.000 Cl
ATOM     18  N   UNL     1      49.919   1.641  16.935  0.00  0.00    +0.000 NA
ATOM     19  C   UNL     1      48.909   2.405  16.512  0.00  0.00    +0.000 A 
ATOM     20  N   UNL     1      48.857   3.738  16.503  0.00  0.00    +0.000 NA
ATOM     21  C   UNL     1      49.972   4.361  16.975  0.00  0.00    +0.000 A 
ENDBRANCH   9  12
ENDBRANCH   7  10
ENDBRANCH   1   7
BRANCH   4  22
ATOM     22  C   UNL     1      45.088   5.787  10.274  0.00  0.00    +0.000 C 
BRANCH  22  23
ATOM     23  N   UNL     1      44.665   4.362  10.341  0.00  0.00    +0.000 NA
BRANCH  23  24
ATOM     24  C   UNL     1      43.452   4.218  11.190  0.00  0.00    +0.000 C 
BRANCH  24  25
ATOM     25  C   UNL     1      43.582   3.247  12.380  0.00  0.00    +0.000 C 
BRANCH  25  26
ATOM     26  O   UNL     1      43.225   1.923  11.987  0.00  0.00    +0.000 OA
ATOM     27  H   UNL     1      42.336   1.746  12.339  0.00  0.00    +0.000 HD
ENDBRANCH  25  26
ENDBRANCH  24  25
ENDBRANCH  23  24
BRANCH  23  28
ATOM     28  C   UNL     1      44.382   3.858   8.981  0.00  0.00    +0.000 C 
BRANCH  28  29
ATOM     29  C   UNL     1      45.502   3.081   8.324  0.00  0.00    +0.000 A 
ATOM     30  C   UNL     1      45.674   1.710   8.566  0.00  0.00    +0.000 A 
ATOM     31  C   UNL     1      46.630   0.983   7.855  0.00  0.00    +0.000 A 
ATOM     32  C   UNL     1      47.429   1.618   6.906  0.00  0.00    +0.000 A 
ATOM     33  C   UNL     1      47.289   2.985   6.680  0.00  0.00    +0.000 A 
ATOM     34  C   UNL     1      46.332   3.713   7.387  0.00  0.00    +0.000 A 
ENDBRANCH  28  29
ENDBRANCH  23  28
ENDBRANCH  22  23
ENDBRANCH   4  22
TORSDOF 10
ENDMDL
MODEL 4
REMARK VINA RESULT:    -7.801      2.571      3.805
REMARK INTER + INTRA:         -13.321
REMARK INTER:                 -12.056
REMARK INTRA:                  -1.265
REMARK UNBOUND:                -1.187
REMARK  Name = 
REMARK  10 active torsions:
REMARK  status: ('A' for Active; 'I' for Inactive)
REMARK    1  A    between atoms: C_2  and  C_23
REMARK    2  A    between atoms: N_3  and  C_4
REMARK    3  A    between atoms: C_4  and  C_5
REMARK    4  A    between atoms: C_8  and  C_9
REMARK    5  A    between atoms: C_9  and  N_10
REMARK    6  A    between atoms: N_10  and  C_11
REMARK    7  A    between atoms: N_10  and  C_14
REMARK    8  A    between atoms: C_11  and  C_12
REMARK    9  A    between atoms: C_12  and  O_13
REMARK   10  A    between atoms: C_14  and  C_15
REMARK                            x       y       z     vdW  Elec       q    Type
REMARK                         _______ _______ _______ _____ _____    ______ ____
ROOT
ATOM      1  C   UNL     1      47.321   4.584  14.881  0.00  0.00    +0.000 A 
ATOM      2  C   UNL     1      46.827   3.521  14.114  0.00  0.00    +0.000 A 
ATOM      3  C   UNL     1      46.204   3.764  12.890  0.00  0.00    +0.000 A 
ATOM      4  C   UNL     1      46.057   5.076  12.419  0.00  0.00    +0.000 A 
ATOM      5  C   UNL     1      46.657   6.124  13.129  0.00  0.00    +0.000 A 
ATOM      6  C   UNL     1      47.291   5.879  14.350  0.00  0.00    +0.000 A 
ENDROOT
BRANCH   1   7
ATOM      7  C   UNL     1      47.856   4.332  16.265  0.00  0.00    +0.000 C 
BRANCH   7  10
ATOM      8  O   UNL     1      48.850   4.604  18.871  0.00  0.00    +0.000 OA
ATOM      9  C   UNL     1      48.210   5.524  18.377  0.00  0.00    +0.000 C 
ATOM     10  N   UNL     1      47.699   5.484  17.106  0.00  0.00    +0.000 N 
ATOM     11  H   UNL     1      47.199   6.292  16.747  0.00  0.00    +0.000 HD
BRANCH   9  12
ATOM     12  C   UNL     1      47.930   6.762  19.106  0.00  0.00    +0.000 A 
ATOM     13  C   UNL     1      47.624   6.767  20.453  0.00  0.00    +0.000 A 
ATOM     14  S   UNL     1      47.331   8.329  21.066  0.00  0.00    +0.000 S 
ATOM     15  C   UNL     1      47.600   9.057  19.536  0.00  0.00    +0.000 A 
ATOM     16  C   UNL     1      47.552  10.381  19.133  0.00  0.00    +0.000 A 
ATOM     17 CL   UNL     1      47.181  11.686  20.174  0.00  0.00    +0.000 Cl
ATOM     18  N   UNL     1      47.799  10.721  17.855  0.00  0.00    +0.000 NA
ATOM     19  C   UNL     1      48.095   9.735  17.005  0.00  0.00    +0.000 A 
ATOM     20  N   UNL     1      48.177   8.432  17.281  0.00  0.00    +0.000 NA
ATOM     21  C   UNL     1      47.917   8.101  18.576  0.00  0.00    +0.000 A 
ENDBRANCH   9  12
ENDBRANCH   7  10
ENDBRANCH   1   7
BRANCH   4  22
ATOM     22  C   UNL     1      45.193   5.358  11.206  0.00  0.00    +0.000 C 
BRANCH  22  23
ATOM     23  N   UNL     1      44.437   4.166  10.735  0.00  0.00    +0.000 NA
BRANCH  23  24
ATOM     24  C   UNL     1      43.064   4.159  11.309  0.00  0.00    +0.000 C 
BRANCH  24  25
ATOM     25  C   UNL     1      42.599   5.487  11.938  0.00  0.00    +0.000 C 
BRANCH  25  26
ATOM     26  O   UNL     1      42.554   5.378  13.360  0.00  0.00    +0.000 OA
ATOM     27  H   UNL     1      43.086   6.108  13.722  0.00  0.00    +0.000 HD
ENDBRANCH  25  26
ENDBRANCH  24  25
ENDBRANCH  23  24
BRANCH  23  28
ATOM     28  C   UNL     1      44.359   4.174   9.259  0.00  0.00    +0.000 C 
BRANCH  28  29
ATOM     29  C   UNL     1      45.378   3.314   8.544  0.00  0.00    +0.000 A 
ATOM     30  C   UNL     1      45.477   1.939   8.803  0.00  0.00    +0.000 A 
ATOM     31  C   UNL     1      46.333   1.138   8.044  0.00  0.00    +0.000 A 
ATOM     32  C   UNL     1      47.104   1.703   7.029  0.00  0.00    +0.000 A 
ATOM     33  C   UNL     1      47.038   3.073   6.785  0.00  0.00    +0.000 A 
ATOM     34  C   UNL     1      46.180   3.874   7.540  0.00  0.00    +0.000 A 
ENDBRANCH  28  29
ENDBRANCH  23  28
ENDBRANCH  22  23
ENDBRANCH   4  22
TORSDOF 10
ENDMDL
MODEL 5
REMARK VINA RESULT:    -7.469      1.766      2.254
REMARK INTER + INTRA:         -12.804
REMARK INTER:                 -11.654
REMARK INTRA:                  -1.150
REMARK UNBOUND:                -1.187
REMARK  Name = 
REMARK  10 active torsions:
REMARK  status: ('A' for Active; 'I' for Inactive)
REMARK    1  A    between atoms: C_2  and  C_23
REMARK    2  A    between atoms: N_3  and  C_4
REMARK    3  A    between atoms: C_4  and  C_5
REMARK    4  A    between atoms: C_8  and  C_9
REMARK    5  A    between atoms: C_9  and  N_10
REMARK    6  A    between atoms: N_10  and  C_11
REMARK    7  A    between atoms: N_10  and  C_14
REMARK    8  A    between atoms: C_11  and  C_12
REMARK    9  A    between atoms: C_12  and  O_13
REMARK   10  A    between atoms: C_14  and  C_15
REMARK                            x       y       z     vdW  Elec       q    Type
REMARK                         _______ _______ _______ _____ _____    ______ ____
ROOT
ATOM      1  C   UNL     1      47.356   8.000  13.641  0.00  0.00    +0.000 A 
ATOM      2  C   UNL     1      46.100   8.481  13.249  0.00  0.00    +0.000 A 
ATOM      3  C   UNL     1      45.355   7.802  12.286  0.00  0.00    +0.000 A 
ATOM      4  C   UNL     1      45.859   6.637  11.692  0.00  0.00    +0.000 A 
ATOM      5  C   UNL     1      47.058   6.094  12.172  0.00  0.00    +0.000 A 
ATOM      6  C   UNL     1      47.799   6.768  13.145  0.00  0.00    +0.000 A 
ENDROOT
BRANCH   1   7
ATOM      7  C   UNL     1      48.221   8.812  14.567  0.00  0.00    +0.000 C 
BRANCH   7  10
ATOM      8  O   UNL     1      49.191  10.220  16.788  0.00  0.00    +0.000 OA
ATOM      9  C   UNL     1      48.500   9.225  16.967  0.00  0.00    +0.000 C 
ATOM     10  N   UNL     1      47.972   8.485  15.941  0.00  0.00    +0.000 N 
ATOM     11  H   UNL     1      47.386   7.684  16.158  0.00  0.00    +0.000 HD
BRANCH   9  12
ATOM     12  C   UNL     1      48.171   8.731  18.305  0.00  0.00    +0.000 A 
ATOM     13  C   UNL     1      47.748   9.574  19.314  0.00  0.00    +0.000 A 
ATOM     14  S   UNL     1      47.438   8.760  20.779  0.00  0.00    +0.000 S 
ATOM     15  C   UNL     1      47.868   7.241  20.107  0.00  0.00    +0.000 A 
ATOM     16  C   UNL     1      47.902   5.973  20.664  0.00  0.00    +0.000 A 
ATOM     17 CL   UNL     1      47.482   5.627  22.285  0.00  0.00    +0.000 Cl
ATOM     18  N   UNL     1      48.285   4.910  19.933  0.00  0.00    +0.000 NA
ATOM     19  C   UNL     1      48.621   5.132  18.660  0.00  0.00    +0.000 A 
ATOM     20  N   UNL     1      48.620   6.302  18.019  0.00  0.00    +0.000 NA
ATOM     21  C   UNL     1      48.237   7.370  18.772  0.00  0.00    +0.000 A 
ENDBRANCH   9  12
ENDBRANCH   7  10
ENDBRANCH   1   7
BRANCH   4  22
ATOM     22  C   UNL     1      45.155   6.025  10.497  0.00  0.00    +0.000 C 
BRANCH  22  23
ATOM     23  N   UNL     1      45.008   4.548  10.596  0.00  0.00    +0.000 NA
BRANCH  23  24
ATOM     24  C   UNL     1      44.065   4.190  11.689  0.00  0.00    +0.000 C 
BRANCH  24  25
ATOM     25  C   UNL     1      42.737   4.973  11.706  0.00  0.00    +0.000 C 
BRANCH  25  26
ATOM     26  O   UNL     1      42.565   5.640  12.955  0.00  0.00    +0.000 OA
ATOM     27  H   UNL     1      42.076   6.463  12.778  0.00  0.00    +0.000 HD
ENDBRANCH  25  26
ENDBRANCH  24  25
ENDBRANCH  23  24
BRANCH  23  28
ATOM     28  C   UNL     1      44.512   4.007   9.313  0.00  0.00    +0.000 C 
BRANCH  28  29
ATOM     29  C   UNL     1      45.513   3.206   8.508  0.00  0.00    +0.000 A 
ATOM     30  C   UNL     1      45.656   1.824   8.696  0.00  0.00    +0.000 A 
ATOM     31  C   UNL     1      46.490   1.081   7.858  0.00  0.00    +0.000 A 
ATOM     32  C   UNL     1      47.194   1.711   6.834  0.00  0.00    +0.000 A 
ATOM     33  C   UNL     1      47.084   3.089   6.658  0.00  0.00    +0.000 A 
ATOM     34  C   UNL     1      46.249   3.833   7.492  0.00  0.00    +0.000 A 
ENDBRANCH  28  29
ENDBRANCH  23  28
ENDBRANCH  22  23
ENDBRANCH   4  22
TORSDOF 10
ENDMDL
MODEL 6
REMARK VINA RESULT:    -6.636      4.114      8.304
REMARK INTER + INTRA:         -11.509
REMARK INTER:                  -9.173
REMARK INTRA:                  -2.336
REMARK UNBOUND:                -1.187
REMARK  Name = 
REMARK  10 active torsions:
REMARK  status: ('A' for Active; 'I' for Inactive)
REMARK    1  A    between atoms: C_2  and  C_23
REMARK    2  A    between atoms: N_3  and  C_4
REMARK    3  A    between atoms: C_4  and  C_5
REMARK    4  A    between atoms: C_8  and  C_9
REMARK    5  A    between atoms: C_9  and  N_10
REMARK    6  A    between atoms: N_10  and  C_11
REMARK    7  A    between atoms: N_10  and  C_14
REMARK    8  A    between atoms: C_11  and  C_12
REMARK    9  A    between atoms: C_12  and  O_13
REMARK   10  A    between atoms: C_14  and  C_15
REMARK                            x       y       z     vdW  Elec       q    Type
REMARK                         _______ _______ _______ _____ _____    ______ ____
ROOT
ATOM      1  C   UNL     1      49.369   8.525  15.662  0.00  0.00    +0.000 A 
ATOM      2  C   UNL     1      50.058   9.136  16.718  0.00  0.00    +0.000 A 
ATOM      3  C   UNL     1      51.047   8.439  17.411  0.00  0.00    +0.000 A 
ATOM      4  C   UNL     1      51.356   7.116  17.065  0.00  0.00    +0.000 A 
ATOM      5  C   UNL     1      50.751   6.551  15.934  0.00  0.00    +0.000 A 
ATOM      6  C   UNL     1      49.768   7.253  15.234  0.00  0.00    +0.000 A 
ENDROOT
BRANCH   1   7
ATOM      7  C   UNL     1      48.203   9.223  15.016  0.00  0.00    +0.000 C 
BRANCH   7  10
ATOM      8  O   UNL     1      47.677   8.979  12.274  0.00  0.00    +0.000 OA
ATOM      9  C   UNL     1      47.091   8.247  13.062  0.00  0.00    +0.000 C 
ATOM     10  N   UNL     1      47.297   8.287  14.417  0.00  0.00    +0.000 N 
ATOM     11  H   UNL     1      46.796   7.634  15.013  0.00  0.00    +0.000 HD
BRANCH   9  12
ATOM     12  C   UNL     1      46.110   7.253  12.624  0.00  0.00    +0.000 A 
ATOM     13  C   UNL     1      44.979   7.603  11.913  0.00  0.00    +0.000 A 
ATOM     14  S   UNL     1      43.991   6.269  11.529  0.00  0.00    +0.000 S 
ATOM     15  C   UNL     1      45.050   5.170  12.313  0.00  0.00    +0.000 A 
ATOM     16  C   UNL     1      44.979   3.797  12.482  0.00  0.00    +0.000 A 
ATOM     17 CL   UNL     1      43.707   2.823  11.886  0.00  0.00    +0.000 Cl
ATOM     18  N   UNL     1      45.942   3.136  13.149  0.00  0.00    +0.000 NA
ATOM     19  C   UNL     1      46.958   3.855  13.631  0.00  0.00    +0.000 A 
ATOM     20  N   UNL     1      47.133   5.174  13.525  0.00  0.00    +0.000 NA
ATOM     21  C   UNL     1      46.148   5.832  12.853  0.00  0.00    +0.000 A 
ENDBRANCH   9  12
ENDBRANCH   7  10
ENDBRANCH   1   7
BRANCH   4  22
ATOM     22  C   UNL     1      52.268   6.290  17.950  0.00  0.00    +0.000 C 
BRANCH  22  23
ATOM     23  N   UNL     1      52.002   4.828  17.865  0.00  0.00    +0.000 NA
BRANCH  23  24
ATOM     24  C   UNL     1      53.260   4.058  18.057  0.00  0.00    +0.000 C 
BRANCH  24  25
ATOM     25  C   UNL     1      53.306   3.156  19.306  0.00  0.00    +0.000 C 
BRANCH  25  26
ATOM     26  O   UNL     1      53.207   1.782  18.935  0.00  0.00    +0.000 OA
ATOM     27  H   UNL     1      52.860   1.752  18.026  0.00  0.00    +0.000 HD
ENDBRANCH  25  26
ENDBRANCH  24  25
ENDBRANCH  23  24
BRANCH  23  28
ATOM     28  C   UNL     1      51.018   4.437  18.895  0.00  0.00    +0.000 C 
BRANCH  28  29
ATOM     29  C   UNL     1      49.618   4.158  18.391  0.00  0.00    +0.000 A 
ATOM     30  C   UNL     1      48.579   5.080  18.584  0.00  0.00    +0.000 A 
ATOM     31  C   UNL     1      47.328   4.866  18.002  0.00  0.00    +0.000 A 
ATOM     32  C   UNL     1      47.100   3.726  17.233  0.00  0.00    +0.000 A 
ATOM     33  C   UNL     1      48.114   2.787  17.061  0.00  0.00    +0.000 A 
ATOM     34  C   UNL     1      49.367   3.001  17.638  0.00  0.00    +0.000 A 
ENDBRANCH  28  29
ENDBRANCH  23  28
ENDBRANCH  22  23
ENDBRANCH   4  22
TORSDOF 10
ENDMDL
MODEL 7
REMARK VINA RESULT:    -6.474      4.118      8.167
REMARK INTER + INTRA:         -11.256
REMARK INTER:                  -9.505
REMARK INTRA:                  -1.752
REMARK UNBOUND:                -1.187
REMARK  Name = 
REMARK  10 active torsions:
REMARK  status: ('A' for Active; 'I' for Inactive)
REMARK    1  A    between atoms: C_2  and  C_23
REMARK    2  A    between atoms: N_3  and  C_4
REMARK    3  A    between atoms: C_4  and  C_5
REMARK    4  A    between atoms: C_8  and  C_9
REMARK    5  A    between atoms: C_9  and  N_10
REMARK    6  A    between atoms: N_10  and  C_11
REMARK    7  A    between atoms: N_10  and  C_14
REMARK    8  A    between atoms: C_11  and  C_12
REMARK    9  A    between atoms: C_12  and  O_13
REMARK   10  A    between atoms: C_14  and  C_15
REMARK                            x       y       z     vdW  Elec       q    Type
REMARK                         _______ _______ _______ _____ _____    ______ ____
ROOT
ATOM      1  C   UNL     1      49.276   8.479  15.274  0.00  0.00    +0.000 A 
ATOM      2  C   UNL     1      48.301   9.207  15.969  0.00  0.00    +0.000 A 
ATOM      3  C   UNL     1      48.231   9.142  17.360  0.00  0.00    +0.000 A 
ATOM      4  C   UNL     1      49.131   8.342  18.078  0.00  0.00    +0.000 A 
ATOM      5  C   UNL     1      50.178   7.713  17.392  0.00  0.00    +0.000 A 
ATOM      6  C   UNL     1      50.254   7.786  15.999  0.00  0.00    +0.000 A 
ENDROOT
BRANCH   1   7
ATOM      7  C   UNL     1      49.255   8.431  13.771  0.00  0.00    +0.000 C 
BRANCH   7  10
ATOM      8  O   UNL     1      46.793   9.379  12.825  0.00  0.00    +0.000 OA
ATOM      9  C   UNL     1      46.997   8.172  12.854  0.00  0.00    +0.000 C 
ATOM     10  N   UNL     1      48.175   7.621  13.286  0.00  0.00    +0.000 N 
ATOM     11  H   UNL     1      48.289   6.612  13.261  0.00  0.00    +0.000 HD
BRANCH   9  12
ATOM     12  C   UNL     1      45.992   7.199  12.424  0.00  0.00    +0.000 A 
ATOM     13  C   UNL     1      44.861   7.573  11.724  0.00  0.00    +0.000 A 
ATOM     14  S   UNL     1      43.843   6.260  11.347  0.00  0.00    +0.000 S 
ATOM     15  C   UNL     1      44.887   5.138  12.119  0.00  0.00    +0.000 A 
ATOM     16  C   UNL     1      44.791   3.767  12.286  0.00  0.00    +0.000 A 
ATOM     17 CL   UNL     1      43.493   2.819  11.701  0.00  0.00    +0.000 Cl
ATOM     18  N   UNL     1      45.747   3.085  12.944  0.00  0.00    +0.000 NA
ATOM     19  C   UNL     1      46.781   3.783  13.417  0.00  0.00    +0.000 A 
ATOM     20  N   UNL     1      46.981   5.098  13.311  0.00  0.00    +0.000 NA
ATOM     21  C   UNL     1      46.004   5.777  12.650  0.00  0.00    +0.000 A 
ENDBRANCH   9  12
ENDBRANCH   7  10
ENDBRANCH   1   7
BRANCH   4  22
ATOM     22  C   UNL     1      48.921   8.100  19.559  0.00  0.00    +0.000 C 
BRANCH  22  23
ATOM     23  N   UNL     1      48.896   6.656  19.921  0.00  0.00    +0.000 NA
BRANCH  23  24
ATOM     24  C   UNL     1      48.679   6.489  21.383  0.00  0.00    +0.000 C 
BRANCH  24  25
ATOM     25  C   UNL     1      48.634   5.034  21.889  0.00  0.00    +0.000 C 
BRANCH  25  26
ATOM     26  O   UNL     1      47.310   4.682  22.285  0.00  0.00    +0.000 OA
ATOM     27  H   UNL     1      47.283   4.709  23.258  0.00  0.00    +0.000 HD
ENDBRANCH  25  26
ENDBRANCH  24  25
ENDBRANCH  23  24
BRANCH  23  28
ATOM     28  C   UNL     1      47.818   5.972  19.177  0.00  0.00    +0.000 C 
BRANCH  28  29
ATOM     29  C   UNL     1      48.253   4.803  18.320  0.00  0.00    +0.000 A 
ATOM     30  C   UNL     1      49.556   4.291  18.398  0.00  0.00    +0.000 A 
ATOM     31  C   UNL     1      49.903   3.134  17.697  0.00  0.00    +0.000 A 
ATOM     32  C   UNL     1      48.958   2.487  16.904  0.00  0.00    +0.000 A 
ATOM     33  C   UNL     1      47.670   3.005  16.793  0.00  0.00    +0.000 A 
ATOM     34  C   UNL     1      47.320   4.158  17.496  0.00  0.00    +0.000 A 
ENDBRANCH  28  29
ENDBRANCH  23  28
ENDBRANCH  22  23
ENDBRANCH   4  22
TORSDOF 10
ENDMDL
MODEL 8
REMARK VINA RESULT:    -6.430      4.331      9.355
REMARK INTER + INTRA:         -11.188
REMARK INTER:                  -8.427
REMARK INTRA:                  -2.762
REMARK UNBOUND:                -1.187
REMARK  Name = 
REMARK  10 active torsions:
REMARK  status: ('A' for Active; 'I' for Inactive)
REMARK    1  A    between atoms: C_2  and  C_23
REMARK    2  A    between atoms: N_3  and  C_4
REMARK    3  A    between atoms: C_4  and  C_5
REMARK    4  A    between atoms: C_8  and  C_9
REMARK    5  A    between atoms: C_9  and  N_10
REMARK    6  A    between atoms: N_10  and  C_11
REMARK    7  A    between atoms: N_10  and  C_14
REMARK    8  A    between atoms: C_11  and  C_12
REMARK    9  A    between atoms: C_12  and  O_13
REMARK   10  A    between atoms: C_14  and  C_15
REMARK                            x       y       z     vdW  Elec       q    Type
REMARK                         _______ _______ _______ _____ _____    ______ ____
ROOT
ATOM      1  C   UNL     1      47.784   4.220  17.835  0.00  0.00    +0.000 A 
ATOM      2  C   UNL     1      48.818   3.801  18.683  0.00  0.00    +0.000 A 
ATOM      3  C   UNL     1      49.146   4.545  19.816  0.00  0.00    +0.000 A 
ATOM      4  C   UNL     1      48.451   5.726  20.113  0.00  0.00    +0.000 A 
ATOM      5  C   UNL     1      47.342   6.076  19.333  0.00  0.00    +0.000 A 
ATOM      6  C   UNL     1      47.007   5.324  18.204  0.00  0.00    +0.000 A 
ENDROOT
BRANCH   1   7
ATOM      7  C   UNL     1      47.532   3.501  16.538  0.00  0.00    +0.000 C 
BRANCH   7  10
ATOM      8  O   UNL     1      47.301   3.095  13.775  0.00  0.00    +0.000 OA
ATOM      9  C   UNL     1      46.713   4.036  14.291  0.00  0.00    +0.000 C 
ATOM     10  N   UNL     1      46.757   4.301  15.636  0.00  0.00    +0.000 N 
ATOM     11  H   UNL     1      46.224   5.083  16.004  0.00  0.00    +0.000 HD
BRANCH   9  12
ATOM     12  C   UNL     1      45.899   4.971  13.514  0.00  0.00    +0.000 A 
ATOM     13  C   UNL     1      44.683   4.607  12.967  0.00  0.00    +0.000 A 
ATOM     14  S   UNL     1      43.935   5.869  12.100  0.00  0.00    +0.000 S 
ATOM     15  C   UNL     1      45.226   6.952  12.426  0.00  0.00    +0.000 A 
ATOM     16  C   UNL     1      45.426   8.272  12.055  0.00  0.00    +0.000 A 
ATOM     17 CL   UNL     1      44.326   9.179  11.112  0.00  0.00    +0.000 Cl
ATOM     18  N   UNL     1      46.538   8.930  12.429  0.00  0.00    +0.000 NA
ATOM     19  C   UNL     1      47.426   8.262  13.168  0.00  0.00    +0.000 A 
ATOM     20  N   UNL     1      47.336   6.999  13.587  0.00  0.00    +0.000 NA
ATOM     21  C   UNL     1      46.210   6.341  13.197  0.00  0.00    +0.000 A 
ENDBRANCH   9  12
ENDBRANCH   7  10
ENDBRANCH   1   7
BRANCH   4  22
ATOM     22  C   UNL     1      48.946   6.645  21.212  0.00  0.00    +0.000 C 
BRANCH  22  23
ATOM     23  N   UNL     1      49.156   8.046  20.756  0.00  0.00    +0.000 NA
BRANCH  23  24
ATOM     24  C   UNL     1      49.114   8.982  21.911  0.00  0.00    +0.000 C 
BRANCH  24  25
ATOM     25  C   UNL     1      47.849   9.855  22.016  0.00  0.00    +0.000 C 
BRANCH  25  26
ATOM     26  O   UNL     1      46.920   9.519  20.987  0.00  0.00    +0.000 OA
ATOM     27  H   UNL     1      46.742   8.565  21.060  0.00  0.00    +0.000 HD
ENDBRANCH  25  26
ENDBRANCH  24  25
ENDBRANCH  23  24
BRANCH  23  28
ATOM     28  C   UNL     1      50.460   8.160  20.071  0.00  0.00    +0.000 C 
BRANCH  28  29
ATOM     29  C   UNL     1      50.464   7.787  18.604  0.00  0.00    +0.000 A 
ATOM     30  C   UNL     1      51.321   6.792  18.110  0.00  0.00    +0.000 A 
ATOM     31  C   UNL     1      51.222   6.371  16.782  0.00  0.00    +0.000 A 
ATOM     32  C   UNL     1      50.277   6.946  15.934  0.00  0.00    +0.000 A 
ATOM     33  C   UNL     1      49.443   7.958  16.405  0.00  0.00    +0.000 A 
ATOM     34  C   UNL     1      49.537   8.377  17.732  0.00  0.00    +0.000 A 
ENDBRANCH  28  29
ENDBRANCH  23  28
ENDBRANCH  22  23
ENDBRANCH   4  22
TORSDOF 10
ENDMDL
MODEL 9
REMARK VINA RESULT:    -6.356      4.371      9.488
REMARK INTER + INTRA:         -11.074
REMARK INTER:                  -8.534
REMARK INTRA:                  -2.539
REMARK UNBOUND:                -1.187
REMARK  Name = 
REMARK  10 active torsions:
REMARK  status: ('A' for Active; 'I' for Inactive)
REMARK    1  A    between atoms: C_2  and  C_23
REMARK    2  A    between atoms: N_3  and  C_4
REMARK    3  A    between atoms: C_4  and  C_5
REMARK    4  A    between atoms: C_8  and  C_9
REMARK    5  A    between atoms: C_9  and  N_10
REMARK    6  A    between atoms: N_10  and  C_11
REMARK    7  A    between atoms: N_10  and  C_14
REMARK    8  A    between atoms: C_11  and  C_12
REMARK    9  A    between atoms: C_12  and  O_13
REMARK   10  A    between atoms: C_14  and  C_15
REMARK                            x       y       z     vdW  Elec       q    Type
REMARK                         _______ _______ _______ _____ _____    ______ ____
ROOT
ATOM      1  C   UNL     1      47.763   4.292  18.142  0.00  0.00    +0.000 A 
ATOM      2  C   UNL     1      48.870   3.896  18.905  0.00  0.00    +0.000 A 
ATOM      3  C   UNL     1      49.272   4.649  20.007  0.00  0.00    +0.000 A 
ATOM      4  C   UNL     1      48.578   5.815  20.360  0.00  0.00    +0.000 A 
ATOM      5  C   UNL     1      47.403   6.140  19.671  0.00  0.00    +0.000 A 
ATOM      6  C   UNL     1      46.994   5.380  18.572  0.00  0.00    +0.000 A 
ENDROOT
BRANCH   1   7
ATOM      7  C   UNL     1      47.424   3.566  16.869  0.00  0.00    +0.000 C 
BRANCH   7  10
ATOM      8  O   UNL     1      47.374   3.109  14.104  0.00  0.00    +0.000 OA
ATOM      9  C   UNL     1      46.920   4.157  14.544  0.00  0.00    +0.000 C 
ATOM     10  N   UNL     1      46.890   4.459  15.881  0.00  0.00    +0.000 N 
ATOM     11  H   UNL     1      46.477   5.336  16.182  0.00  0.00    +0.000 HD
BRANCH   9  12
ATOM     12  C   UNL     1      46.363   5.194  13.675  0.00  0.00    +0.000 A 
ATOM     13  C   UNL     1      47.089   6.309  13.303  0.00  0.00    +0.000 A 
ATOM     14  S   UNL     1      46.216   7.370  12.296  0.00  0.00    +0.000 S 
ATOM     15  C   UNL     1      44.824   6.369  12.328  0.00  0.00    +0.000 A 
ATOM     16  C   UNL     1      43.581   6.513  11.734  0.00  0.00    +0.000 A 
ATOM     17 CL   UNL     1      43.137   7.841  10.752  0.00  0.00    +0.000 Cl
ATOM     18  N   UNL     1      42.623   5.584  11.907  0.00  0.00    +0.000 NA
ATOM     19  C   UNL     1      42.925   4.527  12.666  0.00  0.00    +0.000 A 
ATOM     20  N   UNL     1      44.084   4.282  13.279  0.00  0.00    +0.000 NA
ATOM     21  C   UNL     1      45.043   5.232  13.102  0.00  0.00    +0.000 A 
ENDBRANCH   9  12
ENDBRANCH   7  10
ENDBRANCH   1   7
BRANCH   4  22
ATOM     22  C   UNL     1      49.140   6.745  21.416  0.00  0.00    +0.000 C 
BRANCH  22  23
ATOM     23  N   UNL     1      49.344   8.135  20.925  0.00  0.00    +0.000 NA
BRANCH  23  24
ATOM     24  C   UNL     1      49.501   9.074  22.069  0.00  0.00    +0.000 C 
BRANCH  24  25
ATOM     25  C   UNL     1      48.724  10.399  21.956  0.00  0.00    +0.000 C 
BRANCH  25  26
ATOM     26  O   UNL     1      47.768  10.331  20.900  0.00  0.00    +0.000 OA
ATOM     27  H   UNL     1      46.886  10.303  21.310  0.00  0.00    +0.000 HD
ENDBRANCH  25  26
ENDBRANCH  24  25
ENDBRANCH  23  24
BRANCH  23  28
ATOM     28  C   UNL     1      50.545   8.192  20.066  0.00  0.00    +0.000 C 
BRANCH  28  29
ATOM     29  C   UNL     1      50.321   7.867  18.605  0.00  0.00    +0.000 A 
ATOM     30  C   UNL     1      51.078   6.881  17.957  0.00  0.00    +0.000 A 
ATOM     31  C   UNL     1      50.773   6.505  16.647  0.00  0.00    +0.000 A 
ATOM     32  C   UNL     1      49.719   7.116  15.971  0.00  0.00    +0.000 A 
ATOM     33  C   UNL     1      48.980   8.119  16.594  0.00  0.00    +0.000 A 
ATOM     34  C   UNL     1      49.281   8.494  17.904  0.00  0.00    +0.000 A 
ENDBRANCH  28  29
ENDBRANCH  23  28
ENDBRANCH  22  23
ENDBRANCH   4  22
TORSDOF 10
ENDMDL
