MODEL 1
REMARK VINA RESULT:    -7.402      0.000      0.000
REMARK INTER + INTRA:         -10.670
REMARK INTER:                  -9.998
REMARK INTRA:                  -0.672
REMARK UNBOUND:                -0.672
REMARK  Name = 
REMARK  7 active torsions:
REMARK  status: ('A' for Active; 'I' for Inactive)
REMARK    1  A    between atoms: C_1  and  O_2
REMARK    2  A    between atoms: O_2  and  C_3
REMARK    3  A    between atoms: C_6  and  C_7
REMARK    4  A    between atoms: C_11  and  C_12
REMARK    5  A    between atoms: C_13  and  C_14
REMARK    6  A    between atoms: C_14  and  O_15
REMARK    7  A    between atoms: O_15  and  C_16
REMARK                            x       y       z     vdW  Elec       q    Type
REMARK                         _______ _______ _______ _____ _____    ______ ____
ROOT
ATOM      1  C   UNL     1      47.154   6.178  13.181  0.00  0.00    +0.000 A 
ATOM      2  C   UNL     1      48.052   6.531  14.198  0.00  0.00    +0.000 A 
ATOM      3  C   UNL     1      48.162   5.755  15.353  0.00  0.00    +0.000 A 
ATOM      4  C   UNL     1      47.376   4.612  15.517  0.00  0.00    +0.000 A 
ATOM      5  C   UNL     1      46.474   4.259  14.507  0.00  0.00    +0.000 A 
ATOM      6  C   UNL     1      46.331   5.039  13.342  0.00  0.00    +0.000 A 
ENDROOT
BRANCH   4   7
ATOM      7  C   UNL     1      47.552   3.822  16.769  0.00  0.00    +0.000 C 
ATOM      8  N   UNL     1      48.787   3.777  17.355  0.00  0.00    +0.000 N 
ATOM      9  O   UNL     1      46.616   3.213  17.275  0.00  0.00    +0.000 OA
ATOM     10  H   UNL     1      49.615   4.245  17.024  0.00  0.00    +0.000 HD
ATOM     11  H   UNL     1      48.861   3.233  18.207  0.00  0.00    +0.000 HD
ENDBRANCH   4   7
BRANCH   1  13
ATOM     12  C   UNL     1      46.342   8.165  12.151  0.00  0.00    +0.000 C 
ATOM     13  O   UNL     1      47.003   6.908  12.027  0.00  0.00    +0.000 OA
ENDBRANCH   1  13
BRANCH   6  14
ATOM     14  C   UNL     1      45.396   4.606  12.275  0.00  0.00    +0.000 C 
ATOM     15  C   UNL     1      44.663   3.478  12.295  0.00  0.00    +0.000 C 
BRANCH  15  16
ATOM     16  C   UNL     1      43.744   3.038  11.194  0.00  0.00    +0.000 C 
BRANCH  16  17
ATOM     17  O   UNL     1      44.034   3.832  10.044  0.00  0.00    +0.000 OA
BRANCH  17  18
ATOM     18  C   UNL     1      44.938   3.318   9.152  0.00  0.00    +0.000 A 
ATOM     19  C   UNL     1      45.265   1.969   9.005  0.00  0.00    +0.000 A 
ATOM     20  C   UNL     1      46.222   1.575   8.063  0.00  0.00    +0.000 A 
ATOM     21  C   UNL     1      46.850   2.530   7.267  0.00  0.00    +0.000 A 
ATOM     22 CL   UNL     1      48.029   2.039   6.113  0.00  0.00    +0.000 Cl
ATOM     23  C   UNL     1      46.528   3.877   7.403  0.00  0.00    +0.000 A 
ATOM     24  C   UNL     1      45.574   4.268   8.346  0.00  0.00    +0.000 A 
ENDBRANCH  17  18
ENDBRANCH  16  17
ENDBRANCH  15  16
ENDBRANCH   6  14
TORSDOF 6
ENDMDL
MODEL 2
REMARK VINA RESULT:    -7.215      2.992      4.551
REMARK INTER + INTRA:         -10.418
REMARK INTER:                  -9.627
REMARK INTRA:                  -0.791
REMARK UNBOUND:                -0.672
REMARK  Name = 
REMARK  7 active torsions:
REMARK  status: ('A' for Active; 'I' for Inactive)
REMARK    1  A    between atoms: C_1  and  O_2
REMARK    2  A    between atoms: O_2  and  C_3
REMARK    3  A    between atoms: C_6  and  C_7
REMARK    4  A    between atoms: C_11  and  C_12
REMARK    5  A    between atoms: C_13  and  C_14
REMARK    6  A    between atoms: C_14  and  O_15
REMARK    7  A    between atoms: O_15  and  C_16
REMARK                            x       y       z     vdW  Elec       q    Type
REMARK                         _______ _______ _______ _____ _____    ______ ____
ROOT
ATOM      1  C   UNL     1      46.759   7.299  12.724  0.00  0.00    +0.000 A 
ATOM      2  C   UNL     1      46.832   8.673  12.990  0.00  0.00    +0.000 A 
ATOM      3  C   UNL     1      45.869   9.549  12.486  0.00  0.00    +0.000 A 
ATOM      4  C   UNL     1      44.816   9.071  11.704  0.00  0.00    +0.000 A 
ATOM      5  C   UNL     1      44.742   7.700  11.430  0.00  0.00    +0.000 A 
ATOM      6  C   UNL     1      45.715   6.800  11.911  0.00  0.00    +0.000 A 
ENDROOT
BRANCH   4   7
ATOM      7  C   UNL     1      43.816  10.059  11.207  0.00  0.00    +0.000 C 
ATOM      8  N   UNL     1      43.036   9.728  10.134  0.00  0.00    +0.000 N 
ATOM      9  O   UNL     1      43.686  11.156  11.737  0.00  0.00    +0.000 OA
ATOM     10  H   UNL     1      43.060   8.855   9.634  0.00  0.00    +0.000 HD
ATOM     11  H   UNL     1      42.366  10.426   9.831  0.00  0.00    +0.000 HD
ENDBRANCH   4   7
BRANCH   1  13
ATOM     12  C   UNL     1      48.454   6.799  14.319  0.00  0.00    +0.000 C 
ATOM     13  O   UNL     1      47.682   6.394  13.192  0.00  0.00    +0.000 OA
ENDBRANCH   1  13
BRANCH   6  14
ATOM     14  C   UNL     1      45.576   5.350  11.636  0.00  0.00    +0.000 C 
ATOM     15  C   UNL     1      44.410   4.684  11.542  0.00  0.00    +0.000 C 
BRANCH  15  16
ATOM     16  C   UNL     1      44.288   3.210  11.293  0.00  0.00    +0.000 C 
BRANCH  16  17
ATOM     17  O   UNL     1      43.853   3.033   9.945  0.00  0.00    +0.000 OA
BRANCH  17  18
ATOM     18  C   UNL     1      44.829   2.926   8.991  0.00  0.00    +0.000 A 
ATOM     19  C   UNL     1      45.273   3.953   8.156  0.00  0.00    +0.000 A 
ATOM     20  C   UNL     1      46.270   3.708   7.206  0.00  0.00    +0.000 A 
ATOM     21  C   UNL     1      46.824   2.435   7.090  0.00  0.00    +0.000 A 
ATOM     22 CL   UNL     1      48.047   2.138   5.916  0.00  0.00    +0.000 Cl
ATOM     23  C   UNL     1      46.391   1.404   7.919  0.00  0.00    +0.000 A 
ATOM     24  C   UNL     1      45.394   1.651   8.867  0.00  0.00    +0.000 A 
ENDBRANCH  17  18
ENDBRANCH  16  17
ENDBRANCH  15  16
ENDBRANCH   6  14
TORSDOF 6
ENDMDL
MODEL 3
REMARK VINA RESULT:    -7.177      1.927      3.590
REMARK INTER + INTRA:         -10.366
REMARK INTER:                  -9.492
REMARK INTRA:                  -0.874
REMARK UNBOUND:                -0.672
REMARK  Name = 
REMARK  7 active torsions:
REMARK  status: ('A' for Active; 'I' for Inactive)
REMARK    1  A    between atoms: C_1  and  O_2
REMARK    2  A    between atoms: O_2  and  C_3
REMARK    3  A    between atoms: C_6  and  C_7
REMARK    4  A    between atoms: C_11  and  C_12
REMARK    5  A    between atoms: C_13  and  C_14
REMARK    6  A    between atoms: C_14  and  O_15
REMARK    7  A    between atoms: O_15  and  C_16
REMARK                            x       y       z     vdW  Elec       q    Type
REMARK                         _______ _______ _______ _____ _____    ______ ____
ROOT
ATOM      1  C   UNL     1      47.374   4.875  14.507  0.00  0.00    +0.000 A 
ATOM      2  C   UNL     1      48.090   5.951  15.049  0.00  0.00    +0.000 A 
ATOM      3  C   UNL     1      48.055   7.208  14.442  0.00  0.00    +0.000 A 
ATOM      4  C   UNL     1      47.305   7.414  13.283  0.00  0.00    +0.000 A 
ATOM      5  C   UNL     1      46.594   6.341  12.735  0.00  0.00    +0.000 A 
ATOM      6  C   UNL     1      46.632   5.058  13.318  0.00  0.00    +0.000 A 
ENDROOT
BRANCH   4   7
ATOM      7  C   UNL     1      47.301   8.784  12.693  0.00  0.00    +0.000 C 
ATOM      8  N   UNL     1      46.207   9.581  12.880  0.00  0.00    +0.000 N 
ATOM      9  O   UNL     1      48.254   9.201  12.043  0.00  0.00    +0.000 OA
ATOM     10  H   UNL     1      45.380   9.337  13.400  0.00  0.00    +0.000 HD
ATOM     11  H   UNL     1      46.247  10.506  12.466  0.00  0.00    +0.000 HD
ENDBRANCH   4   7
BRANCH   1  13
ATOM     12  C   UNL     1      47.564   3.544  16.473  0.00  0.00    +0.000 C 
ATOM     13  O   UNL     1      47.378   3.617  15.062  0.00  0.00    +0.000 OA
ENDBRANCH   1  13
BRANCH   6  14
ATOM     14  C   UNL     1      45.828   3.958  12.733  0.00  0.00    +0.000 C 
ATOM     15  C   UNL     1      44.630   4.103  12.136  0.00  0.00    +0.000 C 
BRANCH  15  16
ATOM     16  C   UNL     1      43.815   2.976  11.575  0.00  0.00    +0.000 C 
BRANCH  16  17
ATOM     17  O   UNL     1      43.515   3.292  10.216  0.00  0.00    +0.000 OA
BRANCH  17  18
ATOM     18  C   UNL     1      44.533   3.158   9.311  0.00  0.00    +0.000 A 
ATOM     19  C   UNL     1      45.105   4.189   8.564  0.00  0.00    +0.000 A 
ATOM     20  C   UNL     1      46.134   3.915   7.656  0.00  0.00    +0.000 A 
ATOM     21  C   UNL     1      46.591   2.609   7.495  0.00  0.00    +0.000 A 
ATOM     22 CL   UNL     1      47.853   2.278   6.373  0.00  0.00    +0.000 Cl
ATOM     23  C   UNL     1      46.030   1.574   8.237  0.00  0.00    +0.000 A 
ATOM     24  C   UNL     1      45.002   1.850   9.142  0.00  0.00    +0.000 A 
ENDBRANCH  17  18
ENDBRANCH  16  17
ENDBRANCH  15  16
ENDBRANCH   6  14
TORSDOF 6
ENDMDL
MODEL 4
REMARK VINA RESULT:    -7.147      2.213      2.643
REMARK INTER + INTRA:         -10.326
REMARK INTER:                  -9.602
REMARK INTRA:                  -0.725
REMARK UNBOUND:                -0.672
REMARK  Name = 
REMARK  7 active torsions:
REMARK  status: ('A' for Active; 'I' for Inactive)
REMARK    1  A    between atoms: C_1  and  O_2
REMARK    2  A    between atoms: O_2  and  C_3
REMARK    3  A    between atoms: C_6  and  C_7
REMARK    4  A    between atoms: C_11  and  C_12
REMARK    5  A    between atoms: C_13  and  C_14
REMARK    6  A    between atoms: C_14  and  O_15
REMARK    7  A    between atoms: O_15  and  C_16
REMARK                            x       y       z     vdW  Elec       q    Type
REMARK                         _______ _______ _______ _____ _____    ______ ____
ROOT
ATOM      1  C   UNL     1      45.166   7.945  11.903  0.00  0.00    +0.000 A 
ATOM      2  C   UNL     1      45.987   8.927  12.474  0.00  0.00    +0.000 A 
ATOM      3  C   UNL     1      47.164   8.575  13.136  0.00  0.00    +0.000 A 
ATOM      4  C   UNL     1      47.544   7.236  13.244  0.00  0.00    +0.000 A 
ATOM      5  C   UNL     1      46.724   6.251  12.681  0.00  0.00    +0.000 A 
ATOM      6  C   UNL     1      45.520   6.582  12.026  0.00  0.00    +0.000 A 
ENDROOT
BRANCH   4   7
ATOM      7  C   UNL     1      48.819   6.931  13.954  0.00  0.00    +0.000 C 
ATOM      8  N   UNL     1      49.996   7.382  13.425  0.00  0.00    +0.000 N 
ATOM      9  O   UNL     1      48.829   6.281  14.994  0.00  0.00    +0.000 OA
ATOM     10  H   UNL     1      50.094   7.925  12.583  0.00  0.00    +0.000 HD
ATOM     11  H   UNL     1      50.838   7.156  13.941  0.00  0.00    +0.000 HD
ENDBRANCH   4   7
BRANCH   1  13
ATOM     12  C   UNL     1      43.770   9.607  10.925  0.00  0.00    +0.000 C 
ATOM     13  O   UNL     1      43.995   8.237  11.244  0.00  0.00    +0.000 OA
ENDBRANCH   1  13
BRANCH   6  14
ATOM     14  C   UNL     1      44.703   5.513  11.404  0.00  0.00    +0.000 C 
ATOM     15  C   UNL     1      44.609   4.246  11.850  0.00  0.00    +0.000 C 
BRANCH  15  16
ATOM     16  C   UNL     1      43.800   3.168  11.191  0.00  0.00    +0.000 C 
BRANCH  16  17
ATOM     17  O   UNL     1      43.702   3.486   9.804  0.00  0.00    +0.000 OA
BRANCH  17  18
ATOM     18  C   UNL     1      44.718   3.050   8.996  0.00  0.00    +0.000 A 
ATOM     19  C   UNL     1      45.214   1.746   8.938  0.00  0.00    +0.000 A 
ATOM     20  C   UNL     1      46.272   1.432   8.078  0.00  0.00    +0.000 A 
ATOM     21  C   UNL     1      46.835   2.422   7.276  0.00  0.00    +0.000 A 
ATOM     22 CL   UNL     1      48.139   2.031   6.224  0.00  0.00    +0.000 Cl
ATOM     23  C   UNL     1      46.346   3.725   7.323  0.00  0.00    +0.000 A 
ATOM     24  C   UNL     1      45.290   4.036   8.184  0.00  0.00    +0.000 A 
ENDBRANCH  17  18
ENDBRANCH  16  17
ENDBRANCH  15  16
ENDBRANCH   6  14
TORSDOF 6
ENDMDL
MODEL 5
REMARK VINA RESULT:    -6.534      4.236      7.488
REMARK INTER + INTRA:          -9.498
REMARK INTER:                  -8.784
REMARK INTRA:                  -0.714
REMARK UNBOUND:                -0.672
REMARK  Name = 
REMARK  7 active torsions:
REMARK  status: ('A' for Active; 'I' for Inactive)
REMARK    1  A    between atoms: C_1  and  O_2
REMARK    2  A    between atoms: O_2  and  C_3
REMARK    3  A    between atoms: C_6  and  C_7
REMARK    4  A    between atoms: C_11  and  C_12
REMARK    5  A    between atoms: C_13  and  C_14
REMARK    6  A    between atoms: C_14  and  O_15
REMARK    7  A    between atoms: O_15  and  C_16
REMARK                            x       y       z     vdW  Elec       q    Type
REMARK                         _______ _______ _______ _____ _____    ______ ____
ROOT
ATOM      1  C   UNL     1      44.349   3.052   9.763  0.00  0.00    +0.000 A 
ATOM      2  C   UNL     1      44.576   1.795   9.188  0.00  0.00    +0.000 A 
ATOM      3  C   UNL     1      45.562   1.623   8.216  0.00  0.00    +0.000 A 
ATOM      4  C   UNL     1      46.341   2.704   7.797  0.00  0.00    +0.000 A 
ATOM      5  C   UNL     1      46.114   3.963   8.365  0.00  0.00    +0.000 A 
ATOM      6  C   UNL     1      45.109   4.164   9.333  0.00  0.00    +0.000 A 
ENDROOT
BRANCH   4   7
ATOM      7  C   UNL     1      47.385   2.449   6.764  0.00  0.00    +0.000 C 
ATOM      8  N   UNL     1      47.335   3.143   5.587  0.00  0.00    +0.000 N 
ATOM      9  O   UNL     1      48.278   1.629   6.949  0.00  0.00    +0.000 OA
ATOM     10  H   UNL     1      46.650   3.839   5.341  0.00  0.00    +0.000 HD
ATOM     11  H   UNL     1      48.066   2.943   4.914  0.00  0.00    +0.000 HD
ENDBRANCH   4   7
BRANCH   1  13
ATOM     12  C   UNL     1      43.629   2.713  12.008  0.00  0.00    +0.000 C 
ATOM     13  O   UNL     1      43.388   3.277  10.721  0.00  0.00    +0.000 OA
ENDBRANCH   1  13
BRANCH   6  14
ATOM     14  C   UNL     1      44.931   5.504   9.943  0.00  0.00    +0.000 C 
ATOM     15  C   UNL     1      45.420   5.886  11.137  0.00  0.00    +0.000 C 
BRANCH  15  16
ATOM     16  C   UNL     1      45.206   7.236  11.753  0.00  0.00    +0.000 C 
BRANCH  16  17
ATOM     17  O   UNL     1      46.330   8.049  11.419  0.00  0.00    +0.000 OA
BRANCH  17  18
ATOM     18  C   UNL     1      47.444   7.914  12.204  0.00  0.00    +0.000 A 
ATOM     19  C   UNL     1      48.739   7.662  11.748  0.00  0.00    +0.000 A 
ATOM     20  C   UNL     1      49.793   7.529  12.659  0.00  0.00    +0.000 A 
ATOM     21  C   UNL     1      49.552   7.647  14.025  0.00  0.00    +0.000 A 
ATOM     22 CL   UNL     1      50.852   7.477  15.141  0.00  0.00    +0.000 Cl
ATOM     23  C   UNL     1      48.265   7.902  14.490  0.00  0.00    +0.000 A 
ATOM     24  C   UNL     1      47.214   8.033  13.579  0.00  0.00    +0.000 A 
ENDBRANCH  17  18
ENDBRANCH  16  17
ENDBRANCH  15  16
ENDBRANCH   6  14
TORSDOF 6
ENDMDL
MODEL 6
REMARK VINA RESULT:    -6.529      3.303      4.040
REMARK INTER + INTRA:          -9.492
REMARK INTER:                  -8.921
REMARK INTRA:                  -0.570
REMARK UNBOUND:                -0.672
REMARK  Name = 
REMARK  7 active torsions:
REMARK  status: ('A' for Active; 'I' for Inactive)
REMARK    1  A    between atoms: C_1  and  O_2
REMARK    2  A    between atoms: O_2  and  C_3
REMARK    3  A    between atoms: C_6  and  C_7
REMARK    4  A    between atoms: C_11  and  C_12
REMARK    5  A    between atoms: C_13  and  C_14
REMARK    6  A    between atoms: C_14  and  O_15
REMARK    7  A    between atoms: O_15  and  C_16
REMARK                            x       y       z     vdW  Elec       q    Type
REMARK                         _______ _______ _______ _____ _____    ______ ____
ROOT
ATOM      1  C   UNL     1      46.396   9.028  12.247  0.00  0.00    +0.000 A 
ATOM      2  C   UNL     1      47.318  10.077  12.138  0.00  0.00    +0.000 A 
ATOM      3  C   UNL     1      48.664   9.819  11.871  0.00  0.00    +0.000 A 
ATOM      4  C   UNL     1      49.115   8.508  11.708  0.00  0.00    +0.000 A 
ATOM      5  C   UNL     1      48.199   7.456  11.822  0.00  0.00    +0.000 A 
ATOM      6  C   UNL     1      46.840   7.692  12.112  0.00  0.00    +0.000 A 
ENDROOT
BRANCH   4   7
ATOM      7  C   UNL     1      50.562   8.303  11.412  0.00  0.00    +0.000 C 
ATOM      8  N   UNL     1      51.467   9.223  11.865  0.00  0.00    +0.000 N 
ATOM      9  O   UNL     1      50.950   7.334  10.769  0.00  0.00    +0.000 OA
ATOM     10  H   UNL     1      51.252  10.046  12.404  0.00  0.00    +0.000 HD
ATOM     11  H   UNL     1      52.440   9.043  11.646  0.00  0.00    +0.000 HD
ENDBRANCH   4   7
BRANCH   1  13
ATOM     12  C   UNL     1      44.416  10.268  11.786  0.00  0.00    +0.000 C 
ATOM     13  O   UNL     1      45.062   9.226  12.513  0.00  0.00    +0.000 OA
ENDBRANCH   1  13
BRANCH   6  14
ATOM     14  C   UNL     1      45.892   6.553  12.180  0.00  0.00    +0.000 C 
ATOM     15  C   UNL     1      45.150   6.098  11.154  0.00  0.00    +0.000 C 
BRANCH  15  16
ATOM     16  C   UNL     1      44.173   4.963  11.246  0.00  0.00    +0.000 C 
BRANCH  16  17
ATOM     17  O   UNL     1      43.786   4.616   9.917  0.00  0.00    +0.000 OA
BRANCH  17  18
ATOM     18  C   UNL     1      44.612   3.761   9.237  0.00  0.00    +0.000 A 
ATOM     19  C   UNL     1      44.709   2.383   9.441  0.00  0.00    +0.000 A 
ATOM     20  C   UNL     1      45.609   1.622   8.687  0.00  0.00    +0.000 A 
ATOM     21  C   UNL     1      46.412   2.238   7.730  0.00  0.00    +0.000 A 
ATOM     22 CL   UNL     1      47.520   1.296   6.809  0.00  0.00    +0.000 Cl
ATOM     23  C   UNL     1      46.320   3.610   7.516  0.00  0.00    +0.000 A 
ATOM     24  C   UNL     1      45.421   4.369   8.271  0.00  0.00    +0.000 A 
ENDBRANCH  17  18
ENDBRANCH  16  17
ENDBRANCH  15  16
ENDBRANCH   6  14
TORSDOF 6
ENDMDL
MODEL 7
REMARK VINA RESULT:    -6.448      4.584      7.704
REMARK INTER + INTRA:          -9.381
REMARK INTER:                  -8.743
REMARK INTRA:                  -0.638
REMARK UNBOUND:                -0.672
REMARK  Name = 
REMARK  7 active torsions:
REMARK  status: ('A' for Active; 'I' for Inactive)
REMARK    1  A    between atoms: C_1  and  O_2
REMARK    2  A    between atoms: O_2  and  C_3
REMARK    3  A    between atoms: C_6  and  C_7
REMARK    4  A    between atoms: C_11  and  C_12
REMARK    5  A    between atoms: C_13  and  C_14
REMARK    6  A    between atoms: C_14  and  O_15
REMARK    7  A    between atoms: O_15  and  C_16
REMARK                            x       y       z     vdW  Elec       q    Type
REMARK                         _______ _______ _______ _____ _____    ______ ____
ROOT
ATOM      1  C   UNL     1      47.204   5.845  12.994  0.00  0.00    +0.000 A 
ATOM      2  C   UNL     1      46.572   6.622  12.015  0.00  0.00    +0.000 A 
ATOM      3  C   UNL     1      45.256   6.356  11.633  0.00  0.00    +0.000 A 
ATOM      4  C   UNL     1      44.545   5.307  12.220  0.00  0.00    +0.000 A 
ATOM      5  C   UNL     1      45.175   4.523  13.194  0.00  0.00    +0.000 A 
ATOM      6  C   UNL     1      46.510   4.761  13.581  0.00  0.00    +0.000 A 
ENDROOT
BRANCH   4   7
ATOM      7  C   UNL     1      43.140   5.084  11.775  0.00  0.00    +0.000 C 
ATOM      8  N   UNL     1      42.265   6.135  11.795  0.00  0.00    +0.000 N 
ATOM      9  O   UNL     1      42.757   3.982  11.400  0.00  0.00    +0.000 OA
ATOM     10  H   UNL     1      42.481   7.077  12.079  0.00  0.00    +0.000 HD
ATOM     11  H   UNL     1      41.322   5.942  11.480  0.00  0.00    +0.000 HD
ENDBRANCH   4   7
BRANCH   1  13
ATOM     12  C   UNL     1      49.249   7.017  12.659  0.00  0.00    +0.000 C 
ATOM     13  O   UNL     1      48.498   6.061  13.403  0.00  0.00    +0.000 OA
ENDBRANCH   1  13
BRANCH   6  14
ATOM     14  C   UNL     1      47.126   3.937  14.649  0.00  0.00    +0.000 C 
ATOM     15  C   UNL     1      47.087   4.215  15.965  0.00  0.00    +0.000 C 
BRANCH  15  16
ATOM     16  C   UNL     1      47.741   3.387  17.031  0.00  0.00    +0.000 C 
BRANCH  16  17
ATOM     17  O   UNL     1      48.759   2.604  16.408  0.00  0.00    +0.000 OA
BRANCH  17  18
ATOM     18  C   UNL     1      49.998   2.624  16.993  0.00  0.00    +0.000 A 
ATOM     19  C   UNL     1      50.877   1.543  17.083  0.00  0.00    +0.000 A 
ATOM     20  C   UNL     1      52.111   1.691  17.725  0.00  0.00    +0.000 A 
ATOM     21  C   UNL     1      52.467   2.919  18.276  0.00  0.00    +0.000 A 
ATOM     22 CL   UNL     1      53.985   3.093  19.068  0.00  0.00    +0.000 Cl
ATOM     23  C   UNL     1      51.600   4.004  18.189  0.00  0.00    +0.000 A 
ATOM     24  C   UNL     1      50.367   3.854  17.549  0.00  0.00    +0.000 A 
ENDBRANCH  17  18
ENDBRANCH  16  17
ENDBRANCH  15  16
ENDBRANCH   6  14
TORSDOF 6
ENDMDL
MODEL 8
REMARK VINA RESULT:    -5.810      4.078      7.311
REMARK INTER + INTRA:          -8.519
REMARK INTER:                  -8.114
REMARK INTRA:                  -0.406
REMARK UNBOUND:                -0.672
REMARK  Name = 
REMARK  7 active torsions:
REMARK  status: ('A' for Active; 'I' for Inactive)
REMARK    1  A    between atoms: C_1  and  O_2
REMARK    2  A    between atoms: O_2  and  C_3
REMARK    3  A    between atoms: C_6  and  C_7
REMARK    4  A    between atoms: C_11  and  C_12
REMARK    5  A    between atoms: C_13  and  C_14
REMARK    6  A    between atoms: C_14  and  O_15
REMARK    7  A    between atoms: O_15  and  C_16
REMARK                            x       y       z     vdW  Elec       q    Type
REMARK                         _______ _______ _______ _____ _____    ______ ____
ROOT
ATOM      1  C   UNL     1      44.278   4.284  10.814  0.00  0.00    +0.000 A 
ATOM      2  C   UNL     1      43.975   3.139  10.064  0.00  0.00    +0.000 A 
ATOM      3  C   UNL     1      44.664   2.857   8.884  0.00  0.00    +0.000 A 
ATOM      4  C   UNL     1      45.668   3.713   8.427  0.00  0.00    +0.000 A 
ATOM      5  C   UNL     1      45.970   4.860   9.169  0.00  0.00    +0.000 A 
ATOM      6  C   UNL     1      45.273   5.176  10.353  0.00  0.00    +0.000 A 
ENDROOT
BRANCH   4   7
ATOM      7  C   UNL     1      46.372   3.346   7.165  0.00  0.00    +0.000 C 
ATOM      8  N   UNL     1      46.798   2.057   6.995  0.00  0.00    +0.000 N 
ATOM      9  O   UNL     1      46.579   4.175   6.286  0.00  0.00    +0.000 OA
ATOM     10  H   UNL     1      46.672   1.303   7.650  0.00  0.00    +0.000 HD
ATOM     11  H   UNL     1      47.268   1.850   6.121  0.00  0.00    +0.000 HD
ENDBRANCH   4   7
BRANCH   1  13
ATOM     12  C   UNL     1      42.457   5.413  11.852  0.00  0.00    +0.000 C 
ATOM     13  O   UNL     1      43.628   4.611  11.980  0.00  0.00    +0.000 OA
ENDBRANCH   1  13
BRANCH   6  14
ATOM     14  C   UNL     1      45.655   6.378  11.134  0.00  0.00    +0.000 C 
ATOM     15  C   UNL     1      46.549   6.400  12.139  0.00  0.00    +0.000 C 
BRANCH  15  16
ATOM     16  C   UNL     1      46.902   7.618  12.940  0.00  0.00    +0.000 C 
BRANCH  16  17
ATOM     17  O   UNL     1      47.195   8.670  12.022  0.00  0.00    +0.000 OA
BRANCH  17  18
ATOM     18  C   UNL     1      48.514   8.866  11.708  0.00  0.00    +0.000 A 
ATOM     19  C   UNL     1      49.506   7.884  11.691  0.00  0.00    +0.000 A 
ATOM     20  C   UNL     1      50.825   8.220  11.368  0.00  0.00    +0.000 A 
ATOM     21  C   UNL     1      51.153   9.539  11.062  0.00  0.00    +0.000 A 
ATOM     22 CL   UNL     1      52.778   9.946  10.670  0.00  0.00    +0.000 Cl
ATOM     23  C   UNL     1      50.171  10.525  11.073  0.00  0.00    +0.000 A 
ATOM     24  C   UNL     1      48.855  10.188  11.397  0.00  0.00    +0.000 A 
ENDBRANCH  17  18
ENDBRANCH  16  17
ENDBRANCH  15  16
ENDBRANCH   6  14
TORSDOF 6
ENDMDL
MODEL 9
REMARK VINA RESULT:    -5.786      2.798      4.441
REMARK INTER + INTRA:          -8.488
REMARK INTER:                  -7.663
REMARK INTRA:                  -0.825
REMARK UNBOUND:                -0.672
REMARK  Name = 
REMARK  7 active torsions:
REMARK  status: ('A' for Active; 'I' for Inactive)
REMARK    1  A    between atoms: C_1  and  O_2
REMARK    2  A    between atoms: O_2  and  C_3
REMARK    3  A    between atoms: C_6  and  C_7
REMARK    4  A    between atoms: C_11  and  C_12
REMARK    5  A    between atoms: C_13  and  C_14
REMARK    6  A    between atoms: C_14  and  O_15
REMARK    7  A    between atoms: O_15  and  C_16
REMARK                            x       y       z     vdW  Elec       q    Type
REMARK                         _______ _______ _______ _____ _____    ______ ____
ROOT
ATOM      1  C   UNL     1      50.076   6.701  15.928  0.00  0.00    +0.000 A 
ATOM      2  C   UNL     1      50.531   6.004  17.055  0.00  0.00    +0.000 A 
ATOM      3  C   UNL     1      49.748   5.008  17.641  0.00  0.00    +0.000 A 
ATOM      4  C   UNL     1      48.494   4.689  17.114  0.00  0.00    +0.000 A 
ATOM      5  C   UNL     1      48.034   5.387  15.992  0.00  0.00    +0.000 A 
ATOM      6  C   UNL     1      48.798   6.411  15.396  0.00  0.00    +0.000 A 
ENDROOT
BRANCH   4   7
ATOM      7  C   UNL     1      47.715   3.607  17.781  0.00  0.00    +0.000 C 
ATOM      8  N   UNL     1      48.188   3.074  18.947  0.00  0.00    +0.000 N 
ATOM      9  O   UNL     1      46.668   3.188  17.301  0.00  0.00    +0.000 OA
ATOM     10  H   UNL     1      49.030   3.351  19.425  0.00  0.00    +0.000 HD
ATOM     11  H   UNL     1      47.625   2.344  19.370  0.00  0.00    +0.000 HD
ENDBRANCH   4   7
BRANCH   1  13
ATOM     12  C   UNL     1      52.219   7.637  15.480  0.00  0.00    +0.000 C 
ATOM     13  O   UNL     1      50.805   7.693  15.315  0.00  0.00    +0.000 OA
ENDBRANCH   1  13
BRANCH   6  14
ATOM     14  C   UNL     1      48.294   7.096  14.181  0.00  0.00    +0.000 C 
ATOM     15  C   UNL     1      48.378   6.616  12.927  0.00  0.00    +0.000 C 
BRANCH  15  16
ATOM     16  C   UNL     1      47.890   7.334  11.704  0.00  0.00    +0.000 C 
BRANCH  16  17
ATOM     17  O   UNL     1      46.489   7.555  11.862  0.00  0.00    +0.000 OA
BRANCH  17  18
ATOM     18  C   UNL     1      45.690   6.443  11.910  0.00  0.00    +0.000 A 
ATOM     19  C   UNL     1      44.916   6.039  12.999  0.00  0.00    +0.000 A 
ATOM     20  C   UNL     1      44.154   4.868  12.926  0.00  0.00    +0.000 A 
ATOM     21  C   UNL     1      44.165   4.101  11.763  0.00  0.00    +0.000 A 
ATOM     22 CL   UNL     1      43.229   2.659  11.681  0.00  0.00    +0.000 Cl
ATOM     23  C   UNL     1      44.931   4.497  10.670  0.00  0.00    +0.000 A 
ATOM     24  C   UNL     1      45.692   5.666  10.746  0.00  0.00    +0.000 A 
ENDBRANCH  17  18
ENDBRANCH  16  17
ENDBRANCH  15  16
ENDBRANCH   6  14
TORSDOF 6
ENDMDL
