MODEL 1
REMARK VINA RESULT:    -8.470      0.000      0.000
REMARK INTER + INTRA:         -14.178
REMARK INTER:                 -12.927
REMARK INTRA:                  -1.252
REMARK UNBOUND:                -1.252
REMARK  Name = 
REMARK  9 active torsions:
REMARK  status: ('A' for Active; 'I' for Inactive)
REMARK    1  A    between atoms: C_2  and  C_3
REMARK    2  A    between atoms: C_3  and  N_4
REMARK    3  A    between atoms: N_4  and  C_5
REMARK    4  A    between atoms: N_4  and  C_12
REMARK    5  A    between atoms: C_5  and  C_6
REMARK    6  A    between atoms: C_12  and  C_13
REMARK    7  A    between atoms: C_16  and  C_17
REMARK    8  A    between atoms: C_17  and  N_18
REMARK    9  A    between atoms: C_19  and  C_21
REMARK                            x       y       z     vdW  Elec       q    Type
REMARK                         _______ _______ _______ _____ _____    ______ ____
ROOT
ATOM      1  C   UNL     1      44.869   6.037  10.972  0.00  0.00    +0.000 A 
ATOM      2  C   UNL     1      46.249   5.801  11.030  0.00  0.00    +0.000 A 
ATOM      3  C   UNL     1      47.062   6.555  11.881  0.00  0.00    +0.000 A 
ATOM      4  C   UNL     1      46.501   7.556  12.686  0.00  0.00    +0.000 A 
ATOM      5  C   UNL     1      45.132   7.826  12.582  0.00  0.00    +0.000 A 
ATOM      6  C   UNL     1      44.319   7.069  11.735  0.00  0.00    +0.000 A 
ENDROOT
BRANCH   1   7
ATOM      7  C   UNL     1      43.975   5.133  10.146  0.00  0.00    +0.000 C 
BRANCH   7   8
ATOM      8  N   UNL     1      44.625   3.846   9.836  0.00  0.00    +0.000 NA
BRANCH   8   9
ATOM      9  C   UNL     1      43.985   2.744  10.612  0.00  0.00    +0.000 C 
BRANCH   9  11
ATOM     10  N   UNL     1      43.627   3.475  13.272  0.00  0.00    +0.000 NA
ATOM     11  C   UNL     1      43.789   3.143  12.066  0.00  0.00    +0.000 C 
ENDBRANCH   9  11
ENDBRANCH   8   9
BRANCH   8  12
ATOM     12  C   UNL     1      44.611   3.563   8.381  0.00  0.00    +0.000 C 
BRANCH  12  13
ATOM     13  C   UNL     1      45.840   2.826   7.888  0.00  0.00    +0.000 A 
ATOM     14  C   UNL     1      46.825   3.478   7.138  0.00  0.00    +0.000 A 
ATOM     15  C   UNL     1      47.885   2.732   6.641  0.00  0.00    +0.000 A 
ATOM     16  N   UNL     1      48.033   1.405   6.846  0.00  0.00    +0.000 NA
ATOM     17  C   UNL     1      47.089   0.801   7.597  0.00  0.00    +0.000 A 
ATOM     18  C   UNL     1      45.999   1.459   8.144  0.00  0.00    +0.000 A 
ENDBRANCH  12  13
ENDBRANCH   8  12
ENDBRANCH   7   8
ENDBRANCH   1   7
BRANCH   4  19
ATOM     19  C   UNL     1      47.363   8.363  13.620  0.00  0.00    +0.000 C 
BRANCH  19  20
ATOM     20  N   UNL     1      47.692   7.609  14.800  0.00  0.00    +0.000 N 
ATOM     21  C   UNL     1      48.892   6.959  14.915  0.00  0.00    +0.000 C 
ATOM     22  O   UNL     1      49.754   7.022  14.042  0.00  0.00    +0.000 OA
ATOM     23  H   UNL     1      46.925   7.358  15.415  0.00  0.00    +0.000 HD
BRANCH  21  24
ATOM     24  C   UNL     1      49.120   6.230  16.168  0.00  0.00    +0.000 A 
ATOM     25  C   UNL     1      50.118   6.651  17.035  0.00  0.00    +0.000 A 
ATOM     26  S   UNL     1      50.222   5.721  18.460  0.00  0.00    +0.000 S 
ATOM     27  C   UNL     1      48.967   4.694  17.946  0.00  0.00    +0.000 A 
ATOM     28  N   UNL     1      48.568   3.641  18.710  0.00  0.00    +0.000 NA
ATOM     29  C   UNL     1      47.624   2.931  18.190  0.00  0.00    +0.000 A 
ATOM     30  N   UNL     1      47.037   3.184  16.977  0.00  0.00    +0.000 N 
ATOM     31  C   UNL     1      47.391   4.247  16.180  0.00  0.00    +0.000 A 
ATOM     32  O   UNL     1      46.821   4.462  15.116  0.00  0.00    +0.000 OA
ATOM     33  C   UNL     1      48.459   5.069  16.715  0.00  0.00    +0.000 A 
ATOM     34  H   UNL     1      46.294   2.595  16.631  0.00  0.00    +0.000 HD
ENDBRANCH  21  24
ENDBRANCH  19  20
ENDBRANCH   4  19
TORSDOF 9
ENDMDL
MODEL 2
REMARK VINA RESULT:    -7.629      1.518      1.657
REMARK INTER + INTRA:         -12.895
REMARK INTER:                 -11.956
REMARK INTRA:                  -0.939
REMARK UNBOUND:                -1.252
REMARK  Name = 
REMARK  9 active torsions:
REMARK  status: ('A' for Active; 'I' for Inactive)
REMARK    1  A    between atoms: C_2  and  C_3
REMARK    2  A    between atoms: C_3  and  N_4
REMARK    3  A    between atoms: N_4  and  C_5
REMARK    4  A    between atoms: N_4  and  C_12
REMARK    5  A    between atoms: C_5  and  C_6
REMARK    6  A    between atoms: C_12  and  C_13
REMARK    7  A    between atoms: C_16  and  C_17
REMARK    8  A    between atoms: C_17  and  N_18
REMARK    9  A    between atoms: C_19  and  C_21
REMARK                            x       y       z     vdW  Elec       q    Type
REMARK                         _______ _______ _______ _____ _____    ______ ____
ROOT
ATOM      1  C   UNL     1      45.044   6.157  11.172  0.00  0.00    +0.000 A 
ATOM      2  C   UNL     1      46.227   5.619  11.698  0.00  0.00    +0.000 A 
ATOM      3  C   UNL     1      47.088   6.411  12.462  0.00  0.00    +0.000 A 
ATOM      4  C   UNL     1      46.774   7.755  12.711  0.00  0.00    +0.000 A 
ATOM      5  C   UNL     1      45.621   8.302  12.136  0.00  0.00    +0.000 A 
ATOM      6  C   UNL     1      44.758   7.509  11.377  0.00  0.00    +0.000 A 
ENDROOT
BRANCH   1   7
ATOM      7  C   UNL     1      44.052   5.263  10.455  0.00  0.00    +0.000 C 
BRANCH   7   8
ATOM      8  N   UNL     1      44.665   3.994  10.020  0.00  0.00    +0.000 NA
BRANCH   8   9
ATOM      9  C   UNL     1      43.957   2.838  10.643  0.00  0.00    +0.000 C 
BRANCH   9  11
ATOM     10  N   UNL     1      43.525   3.276  13.356  0.00  0.00    +0.000 NA
ATOM     11  C   UNL     1      43.721   3.078  12.125  0.00  0.00    +0.000 C 
ENDBRANCH   9  11
ENDBRANCH   8   9
BRANCH   8  12
ATOM     12  C   UNL     1      44.694   3.879   8.543  0.00  0.00    +0.000 C 
BRANCH  12  13
ATOM     13  C   UNL     1      45.832   3.028   8.016  0.00  0.00    +0.000 A 
ATOM     14  C   UNL     1      46.831   3.575   7.202  0.00  0.00    +0.000 A 
ATOM     15  C   UNL     1      47.800   2.730   6.679  0.00  0.00    +0.000 A 
ATOM     16  N   UNL     1      47.847   1.401   6.917  0.00  0.00    +0.000 NA
ATOM     17  C   UNL     1      46.894   0.899   7.729  0.00  0.00    +0.000 A 
ATOM     18  C   UNL     1      45.890   1.661   8.305  0.00  0.00    +0.000 A 
ENDBRANCH  12  13
ENDBRANCH   8  12
ENDBRANCH   7   8
ENDBRANCH   1   7
BRANCH   4  19
ATOM     19  C   UNL     1      47.684   8.614  13.547  0.00  0.00    +0.000 C 
BRANCH  19  20
ATOM     20  N   UNL     1      47.693   8.175  14.916  0.00  0.00    +0.000 N 
ATOM     21  C   UNL     1      48.467   8.800  15.858  0.00  0.00    +0.000 C 
ATOM     22  O   UNL     1      49.154   9.782  15.588  0.00  0.00    +0.000 OA
ATOM     23  H   UNL     1      47.324   7.248  15.106  0.00  0.00    +0.000 HD
BRANCH  21  24
ATOM     24  C   UNL     1      48.387   8.271  17.223  0.00  0.00    +0.000 A 
ATOM     25  C   UNL     1      48.145   9.135  18.282  0.00  0.00    +0.000 A 
ATOM     26  S   UNL     1      48.041   8.353  19.793  0.00  0.00    +0.000 S 
ATOM     27  C   UNL     1      48.363   6.837  19.091  0.00  0.00    +0.000 A 
ATOM     28  N   UNL     1      48.444   5.715  19.857  0.00  0.00    +0.000 NA
ATOM     29  C   UNL     1      48.717   4.638  19.200  0.00  0.00    +0.000 A 
ATOM     30  N   UNL     1      48.909   4.580  17.844  0.00  0.00    +0.000 N 
ATOM     31  C   UNL     1      48.816   5.682  17.027  0.00  0.00    +0.000 A 
ATOM     32  O   UNL     1      48.961   5.588  15.812  0.00  0.00    +0.000 OA
ATOM     33  C   UNL     1      48.523   6.922  17.720  0.00  0.00    +0.000 A 
ATOM     34  H   UNL     1      49.109   3.702  17.388  0.00  0.00    +0.000 HD
ENDBRANCH  21  24
ENDBRANCH  19  20
ENDBRANCH   4  19
TORSDOF 9
ENDMDL
MODEL 3
REMARK VINA RESULT:    -6.977      2.867      8.135
REMARK INTER + INTRA:         -11.900
REMARK INTER:                  -9.811
REMARK INTRA:                  -2.089
REMARK UNBOUND:                -1.252
REMARK  Name = 
REMARK  9 active torsions:
REMARK  status: ('A' for Active; 'I' for Inactive)
REMARK    1  A    between atoms: C_2  and  C_3
REMARK    2  A    between atoms: C_3  and  N_4
REMARK    3  A    between atoms: N_4  and  C_5
REMARK    4  A    between atoms: N_4  and  C_12
REMARK    5  A    between atoms: C_5  and  C_6
REMARK    6  A    between atoms: C_12  and  C_13
REMARK    7  A    between atoms: C_16  and  C_17
REMARK    8  A    between atoms: C_17  and  N_18
REMARK    9  A    between atoms: C_19  and  C_21
REMARK                            x       y       z     vdW  Elec       q    Type
REMARK                         _______ _______ _______ _____ _____    ______ ____
ROOT
ATOM      1  C   UNL     1      49.447   8.137  15.796  0.00  0.00    +0.000 A 
ATOM      2  C   UNL     1      48.266   8.825  15.482  0.00  0.00    +0.000 A 
ATOM      3  C   UNL     1      47.719   8.745  14.198  0.00  0.00    +0.000 A 
ATOM      4  C   UNL     1      48.349   7.973  13.212  0.00  0.00    +0.000 A 
ATOM      5  C   UNL     1      49.558   7.335  13.514  0.00  0.00    +0.000 A 
ATOM      6  C   UNL     1      50.100   7.411  14.799  0.00  0.00    +0.000 A 
ENDROOT
BRANCH   1   7
ATOM      7  C   UNL     1      49.964   8.122  17.221  0.00  0.00    +0.000 C 
BRANCH   7   8
ATOM      8  N   UNL     1      49.971   6.763  17.793  0.00  0.00    +0.000 NA
BRANCH   8   9
ATOM      9  C   UNL     1      50.718   6.750  19.084  0.00  0.00    +0.000 C 
BRANCH   9  11
ATOM     10  N   UNL     1      52.110   4.364  19.408  0.00  0.00    +0.000 NA
ATOM     11  C   UNL     1      51.478   5.446  19.261  0.00  0.00    +0.000 C 
ENDBRANCH   9  11
ENDBRANCH   8   9
BRANCH   8  12
ATOM     12  C   UNL     1      48.597   6.232  17.956  0.00  0.00    +0.000 C 
BRANCH  12  13
ATOM     13  C   UNL     1      48.314   4.996  17.125  0.00  0.00    +0.000 A 
ATOM     14  C   UNL     1      48.851   3.750  17.470  0.00  0.00    +0.000 A 
ATOM     15  C   UNL     1      48.628   2.673  16.625  0.00  0.00    +0.000 A 
ATOM     16  N   UNL     1      47.909   2.748  15.484  0.00  0.00    +0.000 NA
ATOM     17  C   UNL     1      47.374   3.950  15.185  0.00  0.00    +0.000 A 
ATOM     18  C   UNL     1      47.533   5.082  15.967  0.00  0.00    +0.000 A 
ENDBRANCH  12  13
ENDBRANCH   8  12
ENDBRANCH   7   8
ENDBRANCH   1   7
BRANCH   4  19
ATOM     19  C   UNL     1      47.761   7.865  11.830  0.00  0.00    +0.000 C 
BRANCH  19  20
ATOM     20  N   UNL     1      47.032   6.635  11.675  0.00  0.00    +0.000 N 
ATOM     21  C   UNL     1      45.662   6.613  11.703  0.00  0.00    +0.000 C 
ATOM     22  O   UNL     1      44.996   7.639  11.821  0.00  0.00    +0.000 OA
ATOM     23  H   UNL     1      47.549   5.772  11.808  0.00  0.00    +0.000 HD
BRANCH  21  24
ATOM     24  C   UNL     1      45.028   5.302  11.525  0.00  0.00    +0.000 A 
ATOM     25  C   UNL     1      44.337   4.724  12.580  0.00  0.00    +0.000 A 
ATOM     26  S   UNL     1      43.628   3.223  12.193  0.00  0.00    +0.000 S 
ATOM     27  C   UNL     1      44.260   3.271  10.614  0.00  0.00    +0.000 A 
ATOM     28  N   UNL     1      44.043   2.249   9.743  0.00  0.00    +0.000 NA
ATOM     29  C   UNL     1      44.599   2.403   8.588  0.00  0.00    +0.000 A 
ATOM     30  N   UNL     1      45.347   3.493   8.223  0.00  0.00    +0.000 N 
ATOM     31  C   UNL     1      45.575   4.559   9.061  0.00  0.00    +0.000 A 
ATOM     32  O   UNL     1      46.222   5.533   8.689  0.00  0.00    +0.000 OA
ATOM     33  C   UNL     1      44.982   4.427  10.378  0.00  0.00    +0.000 A 
ATOM     34  H   UNL     1      45.747   3.558   7.299  0.00  0.00    +0.000 HD
ENDBRANCH  21  24
ENDBRANCH  19  20
ENDBRANCH   4  19
TORSDOF 9
ENDMDL
MODEL 4
REMARK VINA RESULT:    -6.940      3.125      5.408
REMARK INTER + INTRA:         -11.843
REMARK INTER:                 -10.449
REMARK INTRA:                  -1.394
REMARK UNBOUND:                -1.252
REMARK  Name = 
REMARK  9 active torsions:
REMARK  status: ('A' for Active; 'I' for Inactive)
REMARK    1  A    between atoms: C_2  and  C_3
REMARK    2  A    between atoms: C_3  and  N_4
REMARK    3  A    between atoms: N_4  and  C_5
REMARK    4  A    between atoms: N_4  and  C_12
REMARK    5  A    between atoms: C_5  and  C_6
REMARK    6  A    between atoms: C_12  and  C_13
REMARK    7  A    between atoms: C_16  and  C_17
REMARK    8  A    between atoms: C_17  and  N_18
REMARK    9  A    between atoms: C_19  and  C_21
REMARK                            x       y       z     vdW  Elec       q    Type
REMARK                         _______ _______ _______ _____ _____    ______ ____
ROOT
ATOM      1  C   UNL     1      47.430   5.779  13.707  0.00  0.00    +0.000 A 
ATOM      2  C   UNL     1      46.915   4.475  13.691  0.00  0.00    +0.000 A 
ATOM      3  C   UNL     1      47.015   3.659  14.822  0.00  0.00    +0.000 A 
ATOM      4  C   UNL     1      47.633   4.141  15.985  0.00  0.00    +0.000 A 
ATOM      5  C   UNL     1      48.196   5.423  15.976  0.00  0.00    +0.000 A 
ATOM      6  C   UNL     1      48.090   6.239  14.848  0.00  0.00    +0.000 A 
ENDROOT
BRANCH   1   7
ATOM      7  C   UNL     1      47.204   6.702  12.526  0.00  0.00    +0.000 C 
BRANCH   7   8
ATOM      8  N   UNL     1      45.888   7.364  12.584  0.00  0.00    +0.000 NA
BRANCH   8   9
ATOM      9  C   UNL     1      46.053   8.817  12.879  0.00  0.00    +0.000 C 
BRANCH   9  11
ATOM     10  N   UNL     1      44.039  10.313  11.678  0.00  0.00    +0.000 NA
ATOM     11  C   UNL     1      44.953   9.635  12.223  0.00  0.00    +0.000 C 
ENDBRANCH   9  11
ENDBRANCH   8   9
BRANCH   8  12
ATOM     12  C   UNL     1      45.112   7.148  11.340  0.00  0.00    +0.000 C 
BRANCH  12  13
ATOM     13  C   UNL     1      44.606   5.730  11.170  0.00  0.00    +0.000 A 
ATOM     14  C   UNL     1      45.032   4.929  10.104  0.00  0.00    +0.000 A 
ATOM     15  C   UNL     1      44.471   3.669   9.952  0.00  0.00    +0.000 A 
ATOM     16  N   UNL     1      43.536   3.157  10.781  0.00  0.00    +0.000 NA
ATOM     17  C   UNL     1      43.161   3.932  11.820  0.00  0.00    +0.000 A 
ATOM     18  C   UNL     1      43.668   5.198  12.062  0.00  0.00    +0.000 A 
ENDBRANCH  12  13
ENDBRANCH   8  12
ENDBRANCH   7   8
ENDBRANCH   1   7
BRANCH   4  19
ATOM     19  C   UNL     1      47.733   3.279  17.215  0.00  0.00    +0.000 C 
BRANCH  19  20
ATOM     20  N   UNL     1      49.104   3.102  17.611  0.00  0.00    +0.000 N 
ATOM     21  C   UNL     1      49.937   2.257  16.927  0.00  0.00    +0.000 C 
ATOM     22  O   UNL     1      49.568   1.646  15.928  0.00  0.00    +0.000 OA
ATOM     23  H   UNL     1      49.357   3.408  18.545  0.00  0.00    +0.000 HD
BRANCH  21  24
ATOM     24  C   UNL     1      51.317   2.165  17.417  0.00  0.00    +0.000 A 
ATOM     25  C   UNL     1      51.894   0.919  17.617  0.00  0.00    +0.000 A 
ATOM     26  S   UNL     1      53.512   0.992  18.149  0.00  0.00    +0.000 S 
ATOM     27  C   UNL     1      53.483   2.693  18.177  0.00  0.00    +0.000 A 
ATOM     28  N   UNL     1      54.571   3.404  18.578  0.00  0.00    +0.000 NA
ATOM     29  C   UNL     1      54.404   4.684  18.573  0.00  0.00    +0.000 A 
ATOM     30  N   UNL     1      53.249   5.318  18.196  0.00  0.00    +0.000 N 
ATOM     31  C   UNL     1      52.132   4.643  17.764  0.00  0.00    +0.000 A 
ATOM     32  O   UNL     1      51.126   5.245  17.402  0.00  0.00    +0.000 OA
ATOM     33  C   UNL     1      52.264   3.199  17.763  0.00  0.00    +0.000 A 
ATOM     34  H   UNL     1      53.186   6.325  18.206  0.00  0.00    +0.000 HD
ENDBRANCH  21  24
ENDBRANCH  19  20
ENDBRANCH   4  19
TORSDOF 9
ENDMDL
MODEL 5
REMARK VINA RESULT:    -6.907      2.224      2.964
REMARK INTER + INTRA:         -11.792
REMARK INTER:                 -10.413
REMARK INTRA:                  -1.379
REMARK UNBOUND:                -1.252
REMARK  Name = 
REMARK  9 active torsions:
REMARK  status: ('A' for Active; 'I' for Inactive)
REMARK    1  A    between atoms: C_2  and  C_3
REMARK    2  A    between atoms: C_3  and  N_4
REMARK    3  A    between atoms: N_4  and  C_5
REMARK    4  A    between atoms: N_4  and  C_12
REMARK    5  A    between atoms: C_5  and  C_6
REMARK    6  A    between atoms: C_12  and  C_13
REMARK    7  A    between atoms: C_16  and  C_17
REMARK    8  A    between atoms: C_17  and  N_18
REMARK    9  A    between atoms: C_19  and  C_21
REMARK                            x       y       z     vdW  Elec       q    Type
REMARK                         _______ _______ _______ _____ _____    ______ ____
ROOT
ATOM      1  C   UNL     1      45.550   6.897  11.769  0.00  0.00    +0.000 A 
ATOM      2  C   UNL     1      45.316   8.125  12.405  0.00  0.00    +0.000 A 
ATOM      3  C   UNL     1      46.377   8.985  12.700  0.00  0.00    +0.000 A 
ATOM      4  C   UNL     1      47.689   8.625  12.359  0.00  0.00    +0.000 A 
ATOM      5  C   UNL     1      47.924   7.375  11.776  0.00  0.00    +0.000 A 
ATOM      6  C   UNL     1      46.862   6.519  11.477  0.00  0.00    +0.000 A 
ENDROOT
BRANCH   1   7
ATOM      7  C   UNL     1      44.385   6.029  11.336  0.00  0.00    +0.000 C 
BRANCH   7   8
ATOM      8  N   UNL     1      44.799   4.637  11.079  0.00  0.00    +0.000 NA
BRANCH   8   9
ATOM      9  C   UNL     1      44.517   3.786  12.271  0.00  0.00    +0.000 C 
BRANCH   9  11
ATOM     10  N   UNL     1      46.859   3.190  13.648  0.00  0.00    +0.000 NA
ATOM     11  C   UNL     1      45.797   3.461  13.024  0.00  0.00    +0.000 C 
ENDBRANCH   9  11
ENDBRANCH   8   9
BRANCH   8  12
ATOM     12  C   UNL     1      44.156   4.092   9.859  0.00  0.00    +0.000 C 
BRANCH  12  13
ATOM     13  C   UNL     1      45.119   3.410   8.910  0.00  0.00    +0.000 A 
ATOM     14  C   UNL     1      45.297   2.022   8.929  0.00  0.00    +0.000 A 
ATOM     15  C   UNL     1      46.254   1.462   8.095  0.00  0.00    +0.000 A 
ATOM     16  N   UNL     1      47.027   2.178   7.250  0.00  0.00    +0.000 NA
ATOM     17  C   UNL     1      46.819   3.510   7.224  0.00  0.00    +0.000 A 
ATOM     18  C   UNL     1      45.883   4.162   8.011  0.00  0.00    +0.000 A 
ENDBRANCH  12  13
ENDBRANCH   8  12
ENDBRANCH   7   8
ENDBRANCH   1   7
BRANCH   4  19
ATOM     19  C   UNL     1      48.840   9.550  12.656  0.00  0.00    +0.000 C 
BRANCH  19  20
ATOM     20  N   UNL     1      49.912   8.847  13.306  0.00  0.00    +0.000 N 
ATOM     21  C   UNL     1      50.091   8.924  14.663  0.00  0.00    +0.000 C 
ATOM     22  O   UNL     1      49.328   9.558  15.386  0.00  0.00    +0.000 OA
ATOM     23  H   UNL     1      50.671   8.517  12.719  0.00  0.00    +0.000 HD
BRANCH  21  24
ATOM     24  C   UNL     1      51.213   8.156  15.215  0.00  0.00    +0.000 A 
ATOM     25  C   UNL     1      52.515   8.555  14.950  0.00  0.00    +0.000 A 
ATOM     26  S   UNL     1      53.695   7.579  15.700  0.00  0.00    +0.000 S 
ATOM     27  C   UNL     1      52.507   6.560  16.366  0.00  0.00    +0.000 A 
ATOM     28  N   UNL     1      52.854   5.480  17.117  0.00  0.00    +0.000 NA
ATOM     29  C   UNL     1      51.855   4.780  17.540  0.00  0.00    +0.000 A 
ATOM     30  N   UNL     1      50.539   5.069  17.287  0.00  0.00    +0.000 N 
ATOM     31  C   UNL     1      50.139   6.160  16.553  0.00  0.00    +0.000 A 
ATOM     32  O   UNL     1      48.951   6.406  16.373  0.00  0.00    +0.000 OA
ATOM     33  C   UNL     1      51.227   6.972  16.042  0.00  0.00    +0.000 A 
ATOM     34  H   UNL     1      49.802   4.486  17.657  0.00  0.00    +0.000 HD
ENDBRANCH  21  24
ENDBRANCH  19  20
ENDBRANCH   4  19
TORSDOF 9
ENDMDL
MODEL 6
REMARK VINA RESULT:    -6.876      2.246      2.850
REMARK INTER + INTRA:         -11.745
REMARK INTER:                 -10.724
REMARK INTRA:                  -1.021
REMARK UNBOUND:                -1.252
REMARK  Name = 
REMARK  9 active torsions:
REMARK  status: ('A' for Active; 'I' for Inactive)
REMARK    1  A    between atoms: C_2  and  C_3
REMARK    2  A    between atoms: C_3  and  N_4
REMARK    3  A    between atoms: N_4  and  C_5
REMARK    4  A    between atoms: N_4  and  C_12
REMARK    5  A    between atoms: C_5  and  C_6
REMARK    6  A    between atoms: C_12  and  C_13
REMARK    7  A    between atoms: C_16  and  C_17
REMARK    8  A    between atoms: C_17  and  N_18
REMARK    9  A    between atoms: C_19  and  C_21
REMARK                            x       y       z     vdW  Elec       q    Type
REMARK                         _______ _______ _______ _____ _____    ______ ____
ROOT
ATOM      1  C   UNL     1      46.120   6.410  11.745  0.00  0.00    +0.000 A 
ATOM      2  C   UNL     1      46.718   7.676  11.807  0.00  0.00    +0.000 A 
ATOM      3  C   UNL     1      47.745   7.932  12.720  0.00  0.00    +0.000 A 
ATOM      4  C   UNL     1      48.187   6.919  13.584  0.00  0.00    +0.000 A 
ATOM      5  C   UNL     1      47.548   5.674  13.557  0.00  0.00    +0.000 A 
ATOM      6  C   UNL     1      46.526   5.418  12.641  0.00  0.00    +0.000 A 
ENDROOT
BRANCH   1   7
ATOM      7  C   UNL     1      45.099   6.101  10.669  0.00  0.00    +0.000 C 
BRANCH   7   8
ATOM      8  N   UNL     1      44.722   4.675  10.656  0.00  0.00    +0.000 NA
BRANCH   8   9
ATOM      9  C   UNL     1      43.645   4.416  11.655  0.00  0.00    +0.000 C 
BRANCH   9  11
ATOM     10  N   UNL     1      42.972   1.718  11.720  0.00  0.00    +0.000 NA
ATOM     11  C   UNL     1      43.277   2.942  11.691  0.00  0.00    +0.000 C 
ENDBRANCH   9  11
ENDBRANCH   8   9
BRANCH   8  12
ATOM     12  C   UNL     1      44.322   4.228   9.300  0.00  0.00    +0.000 C 
BRANCH  12  13
ATOM     13  C   UNL     1      45.367   3.381   8.601  0.00  0.00    +0.000 A 
ATOM     14  C   UNL     1      46.279   3.949   7.704  0.00  0.00    +0.000 A 
ATOM     15  C   UNL     1      47.157   3.112   7.029  0.00  0.00    +0.000 A 
ATOM     16  N   UNL     1      47.193   1.772   7.192  0.00  0.00    +0.000 NA
ATOM     17  C   UNL     1      46.328   1.248   8.084  0.00  0.00    +0.000 A 
ATOM     18  C   UNL     1      45.419   1.999   8.812  0.00  0.00    +0.000 A 
ENDBRANCH  12  13
ENDBRANCH   8  12
ENDBRANCH   7   8
ENDBRANCH   1   7
BRANCH   4  19
ATOM     19  C   UNL     1      49.304   7.177  14.559  0.00  0.00    +0.000 C 
BRANCH  19  20
ATOM     20  N   UNL     1      48.903   6.848  15.901  0.00  0.00    +0.000 N 
ATOM     21  C   UNL     1      49.757   6.209  16.761  0.00  0.00    +0.000 C 
ATOM     22  O   UNL     1      50.909   5.925  16.444  0.00  0.00    +0.000 OA
ATOM     23  H   UNL     1      47.908   6.863  16.101  0.00  0.00    +0.000 HD
BRANCH  21  24
ATOM     24  C   UNL     1      49.240   5.935  18.106  0.00  0.00    +0.000 A 
ATOM     25  C   UNL     1      49.315   4.648  18.622  0.00  0.00    +0.000 A 
ATOM     26  S   UNL     1      48.708   4.511  20.209  0.00  0.00    +0.000 S 
ATOM     27  C   UNL     1      48.281   6.158  20.246  0.00  0.00    +0.000 A 
ATOM     28  N   UNL     1      47.675   6.699  21.337  0.00  0.00    +0.000 NA
ATOM     29  C   UNL     1      47.385   7.951  21.222  0.00  0.00    +0.000 A 
ATOM     30  N   UNL     1      47.654   8.714  20.115  0.00  0.00    +0.000 N 
ATOM     31  C   UNL     1      48.283   8.218  18.998  0.00  0.00    +0.000 A 
ATOM     32  O   UNL     1      48.537   8.938  18.038  0.00  0.00    +0.000 OA
ATOM     33  C   UNL     1      48.618   6.809  19.072  0.00  0.00    +0.000 A 
ATOM     34  H   UNL     1      47.410   9.694  20.092  0.00  0.00    +0.000 HD
ENDBRANCH  21  24
ENDBRANCH  19  20
ENDBRANCH   4  19
TORSDOF 9
ENDMDL
MODEL 7
REMARK VINA RESULT:    -6.806      3.449      8.128
REMARK INTER + INTRA:         -11.638
REMARK INTER:                  -8.989
REMARK INTRA:                  -2.650
REMARK UNBOUND:                -1.252
REMARK  Name = 
REMARK  9 active torsions:
REMARK  status: ('A' for Active; 'I' for Inactive)
REMARK    1  A    between atoms: C_2  and  C_3
REMARK    2  A    between atoms: C_3  and  N_4
REMARK    3  A    between atoms: N_4  and  C_5
REMARK    4  A    between atoms: N_4  and  C_12
REMARK    5  A    between atoms: C_5  and  C_6
REMARK    6  A    between atoms: C_12  and  C_13
REMARK    7  A    between atoms: C_16  and  C_17
REMARK    8  A    between atoms: C_17  and  N_18
REMARK    9  A    between atoms: C_19  and  C_21
REMARK                            x       y       z     vdW  Elec       q    Type
REMARK                         _______ _______ _______ _____ _____    ______ ____
ROOT
ATOM      1  C   UNL     1      51.264   7.024  17.306  0.00  0.00    +0.000 A 
ATOM      2  C   UNL     1      50.413   7.921  17.967  0.00  0.00    +0.000 A 
ATOM      3  C   UNL     1      49.453   8.643  17.253  0.00  0.00    +0.000 A 
ATOM      4  C   UNL     1      49.333   8.475  15.866  0.00  0.00    +0.000 A 
ATOM      5  C   UNL     1      50.223   7.622  15.204  0.00  0.00    +0.000 A 
ATOM      6  C   UNL     1      51.178   6.896  15.918  0.00  0.00    +0.000 A 
ENDROOT
BRANCH   1   7
ATOM      7  C   UNL     1      52.214   6.149  18.100  0.00  0.00    +0.000 C 
BRANCH   7   8
ATOM      8  N   UNL     1      51.893   4.716  17.963  0.00  0.00    +0.000 NA
BRANCH   8   9
ATOM      9  C   UNL     1      53.109   3.888  18.212  0.00  0.00    +0.000 C 
BRANCH   9  11
ATOM     10  N   UNL     1      52.510   1.175  18.090  0.00  0.00    +0.000 NA
ATOM     11  C   UNL     1      52.781   2.405  18.146  0.00  0.00    +0.000 C 
ENDBRANCH   9  11
ENDBRANCH   8   9
BRANCH   8  12
ATOM     12  C   UNL     1      50.775   4.319  18.851  0.00  0.00    +0.000 C 
BRANCH  12  13
ATOM     13  C   UNL     1      49.470   4.071  18.121  0.00  0.00    +0.000 A 
ATOM     14  C   UNL     1      48.357   4.895  18.321  0.00  0.00    +0.000 A 
ATOM     15  C   UNL     1      47.165   4.569  17.691  0.00  0.00    +0.000 A 
ATOM     16  N   UNL     1      47.011   3.500  16.880  0.00  0.00    +0.000 NA
ATOM     17  C   UNL     1      48.103   2.736  16.674  0.00  0.00    +0.000 A 
ATOM     18  C   UNL     1      49.339   2.983  17.251  0.00  0.00    +0.000 A 
ENDBRANCH  12  13
ENDBRANCH   8  12
ENDBRANCH   7   8
ENDBRANCH   1   7
BRANCH   4  19
ATOM     19  C   UNL     1      48.291   9.235  15.089  0.00  0.00    +0.000 C 
BRANCH  19  20
ATOM     20  N   UNL     1      47.335   8.338  14.497  0.00  0.00    +0.000 N 
ATOM     21  C   UNL     1      47.164   8.279  13.139  0.00  0.00    +0.000 C 
ATOM     22  O   UNL     1      47.841   8.952  12.366  0.00  0.00    +0.000 OA
ATOM     23  H   UNL     1      46.622   7.955  15.109  0.00  0.00    +0.000 HD
BRANCH  21  24
ATOM     24  C   UNL     1      46.166   7.320  12.650  0.00  0.00    +0.000 A 
ATOM     25  C   UNL     1      45.089   7.771  11.901  0.00  0.00    +0.000 A 
ATOM     26  S   UNL     1      44.049   6.525  11.379  0.00  0.00    +0.000 S 
ATOM     27  C   UNL     1      44.978   5.343  12.176  0.00  0.00    +0.000 A 
ATOM     28  N   UNL     1      44.612   4.033  12.151  0.00  0.00    +0.000 NA
ATOM     29  C   UNL     1      45.392   3.247  12.815  0.00  0.00    +0.000 A 
ATOM     30  N   UNL     1      46.509   3.654  13.497  0.00  0.00    +0.000 N 
ATOM     31  C   UNL     1      46.930   4.962  13.534  0.00  0.00    +0.000 A 
ATOM     32  O   UNL     1      47.954   5.285  14.126  0.00  0.00    +0.000 OA
ATOM     33  C   UNL     1      46.079   5.888  12.811  0.00  0.00    +0.000 A 
ATOM     34  H   UNL     1      47.084   2.986  13.990  0.00  0.00    +0.000 HD
ENDBRANCH  21  24
ENDBRANCH  19  20
ENDBRANCH   4  19
TORSDOF 9
ENDMDL
MODEL 8
REMARK VINA RESULT:    -6.769      1.846      2.504
REMARK INTER + INTRA:         -11.582
REMARK INTER:                 -10.400
REMARK INTRA:                  -1.181
REMARK UNBOUND:                -1.252
REMARK  Name = 
REMARK  9 active torsions:
REMARK  status: ('A' for Active; 'I' for Inactive)
REMARK    1  A    between atoms: C_2  and  C_3
REMARK    2  A    between atoms: C_3  and  N_4
REMARK    3  A    between atoms: N_4  and  C_5
REMARK    4  A    between atoms: N_4  and  C_12
REMARK    5  A    between atoms: C_5  and  C_6
REMARK    6  A    between atoms: C_12  and  C_13
REMARK    7  A    between atoms: C_16  and  C_17
REMARK    8  A    between atoms: C_17  and  N_18
REMARK    9  A    between atoms: C_19  and  C_21
REMARK                            x       y       z     vdW  Elec       q    Type
REMARK                         _______ _______ _______ _____ _____    ______ ____
ROOT
ATOM      1  C   UNL     1      45.516   6.329  11.631  0.00  0.00    +0.000 A 
ATOM      2  C   UNL     1      46.508   5.477  12.138  0.00  0.00    +0.000 A 
ATOM      3  C   UNL     1      47.588   5.996  12.858  0.00  0.00    +0.000 A 
ATOM      4  C   UNL     1      47.687   7.377  13.081  0.00  0.00    +0.000 A 
ATOM      5  C   UNL     1      46.725   8.228  12.524  0.00  0.00    +0.000 A 
ATOM      6  C   UNL     1      45.643   7.708  11.810  0.00  0.00    +0.000 A 
ENDROOT
BRANCH   1   7
ATOM      7  C   UNL     1      44.283   5.752  10.965  0.00  0.00    +0.000 C 
BRANCH   7   8
ATOM      8  N   UNL     1      44.495   4.362  10.518  0.00  0.00    +0.000 NA
BRANCH   8   9
ATOM      9  C   UNL     1      43.537   3.447  11.205  0.00  0.00    +0.000 C 
BRANCH   9  11
ATOM     10  N   UNL     1      43.260   4.124  13.889  0.00  0.00    +0.000 NA
ATOM     11  C   UNL     1      43.386   3.818  12.671  0.00  0.00    +0.000 C 
ENDBRANCH   9  11
ENDBRANCH   8   9
BRANCH   8  12
ATOM     12  C   UNL     1      44.398   4.241   9.044  0.00  0.00    +0.000 C 
BRANCH  12  13
ATOM     13  C   UNL     1      45.456   3.347   8.431  0.00  0.00    +0.000 A 
ATOM     14  C   UNL     1      46.418   3.857   7.552  0.00  0.00    +0.000 A 
ATOM     15  C   UNL     1      47.309   2.976   6.955  0.00  0.00    +0.000 A 
ATOM     16  N   UNL     1      47.313   1.644   7.179  0.00  0.00    +0.000 NA
ATOM     17  C   UNL     1      46.398   1.176   8.054  0.00  0.00    +0.000 A 
ATOM     18  C   UNL     1      45.473   1.975   8.706  0.00  0.00    +0.000 A 
ENDBRANCH  12  13
ENDBRANCH   8  12
ENDBRANCH   7   8
ENDBRANCH   1   7
BRANCH   4  19
ATOM     19  C   UNL     1      48.836   7.946  13.870  0.00  0.00    +0.000 C 
BRANCH  19  20
ATOM     20  N   UNL     1      49.263   7.030  14.893  0.00  0.00    +0.000 N 
ATOM     21  C   UNL     1      49.023   7.284  16.218  0.00  0.00    +0.000 C 
ATOM     22  O   UNL     1      48.403   8.276  16.589  0.00  0.00    +0.000 OA
ATOM     23  H   UNL     1      49.962   6.341  14.633  0.00  0.00    +0.000 HD
BRANCH  21  24
ATOM     24  C   UNL     1      49.497   6.273  17.170  0.00  0.00    +0.000 A 
ATOM     25  C   UNL     1      48.602   5.696  18.060  0.00  0.00    +0.000 A 
ATOM     26  S   UNL     1      49.305   4.513  19.067  0.00  0.00    +0.000 S 
ATOM     27  C   UNL     1      50.841   4.765  18.379  0.00  0.00    +0.000 A 
ATOM     28  N   UNL     1      51.926   4.072  18.820  0.00  0.00    +0.000 NA
ATOM     29  C   UNL     1      53.032   4.378  18.228  0.00  0.00    +0.000 A 
ATOM     30  N   UNL     1      53.150   5.309  17.230  0.00  0.00    +0.000 N 
ATOM     31  C   UNL     1      52.080   6.018  16.737  0.00  0.00    +0.000 A 
ATOM     32  O   UNL     1      52.216   6.821  15.820  0.00  0.00    +0.000 OA
ATOM     33  C   UNL     1      50.814   5.720  17.379  0.00  0.00    +0.000 A 
ATOM     34  H   UNL     1      54.044   5.495  16.800  0.00  0.00    +0.000 HD
ENDBRANCH  21  24
ENDBRANCH  19  20
ENDBRANCH   4  19
TORSDOF 9
ENDMDL
MODEL 9
REMARK VINA RESULT:    -6.655      3.468      8.538
REMARK INTER + INTRA:         -11.408
REMARK INTER:                  -9.247
REMARK INTRA:                  -2.161
REMARK UNBOUND:                -1.252
REMARK  Name = 
REMARK  9 active torsions:
REMARK  status: ('A' for Active; 'I' for Inactive)
REMARK    1  A    between atoms: C_2  and  C_3
REMARK    2  A    between atoms: C_3  and  N_4
REMARK    3  A    between atoms: N_4  and  C_5
REMARK    4  A    between atoms: N_4  and  C_12
REMARK    5  A    between atoms: C_5  and  C_6
REMARK    6  A    between atoms: C_12  and  C_13
REMARK    7  A    between atoms: C_16  and  C_17
REMARK    8  A    between atoms: C_17  and  N_18
REMARK    9  A    between atoms: C_19  and  C_21
REMARK                            x       y       z     vdW  Elec       q    Type
REMARK                         _______ _______ _______ _____ _____    ______ ____
ROOT
ATOM      1  C   UNL     1      49.658   7.351  18.526  0.00  0.00    +0.000 A 
ATOM      2  C   UNL     1      48.573   8.211  18.309  0.00  0.00    +0.000 A 
ATOM      3  C   UNL     1      48.189   8.556  17.010  0.00  0.00    +0.000 A 
ATOM      4  C   UNL     1      48.889   8.041  15.910  0.00  0.00    +0.000 A 
ATOM      5  C   UNL     1      50.007   7.228  16.133  0.00  0.00    +0.000 A 
ATOM      6  C   UNL     1      50.386   6.880  17.431  0.00  0.00    +0.000 A 
ENDROOT
BRANCH   1   7
ATOM      7  C   UNL     1      49.989   6.879  19.928  0.00  0.00    +0.000 C 
BRANCH   7   8
ATOM      8  N   UNL     1      50.120   5.412  20.002  0.00  0.00    +0.000 NA
BRANCH   8   9
ATOM      9  C   UNL     1      50.884   5.022  21.222  0.00  0.00    +0.000 C 
BRANCH   9  11
ATOM     10  N   UNL     1      53.412   4.071  20.557  0.00  0.00    +0.000 NA
ATOM     11  C   UNL     1      52.266   4.503  20.858  0.00  0.00    +0.000 C 
ENDBRANCH   9  11
ENDBRANCH   8   9
BRANCH   8  12
ATOM     12  C   UNL     1      48.799   4.742  19.952  0.00  0.00    +0.000 C 
BRANCH  12  13
ATOM     13  C   UNL     1      48.492   4.089  18.620  0.00  0.00    +0.000 A 
ATOM     14  C   UNL     1      49.282   3.046  18.123  0.00  0.00    +0.000 A 
ATOM     15  C   UNL     1      49.004   2.544  16.859  0.00  0.00    +0.000 A 
ATOM     16  N   UNL     1      48.002   2.997  16.074  0.00  0.00    +0.000 NA
ATOM     17  C   UNL     1      47.233   3.980  16.584  0.00  0.00    +0.000 A 
ATOM     18  C   UNL     1      47.425   4.541  17.836  0.00  0.00    +0.000 A 
ENDBRANCH  12  13
ENDBRANCH   8  12
ENDBRANCH   7   8
ENDBRANCH   1   7
BRANCH   4  19
ATOM     19  C   UNL     1      48.475   8.390  14.505  0.00  0.00    +0.000 C 
BRANCH  19  20
ATOM     20  N   UNL     1      47.420   7.526  14.049  0.00  0.00    +0.000 N 
ATOM     21  C   UNL     1      47.684   6.440  13.257  0.00  0.00    +0.000 C 
ATOM     22  O   UNL     1      48.828   6.131  12.935  0.00  0.00    +0.000 OA
ATOM     23  H   UNL     1      46.472   7.885  14.107  0.00  0.00    +0.000 HD
BRANCH  21  24
ATOM     24  C   UNL     1      46.528   5.626  12.862  0.00  0.00    +0.000 A 
ATOM     25  C   UNL     1      46.564   4.250  13.039  0.00  0.00    +0.000 A 
ATOM     26  S   UNL     1      45.128   3.462  12.567  0.00  0.00    +0.000 S 
ATOM     27  C   UNL     1      44.425   4.928  12.065  0.00  0.00    +0.000 A 
ATOM     28  N   UNL     1      43.178   4.956  11.522  0.00  0.00    +0.000 NA
ATOM     29  C   UNL     1      42.777   6.129  11.163  0.00  0.00    +0.000 A 
ATOM     30  N   UNL     1      43.508   7.280  11.307  0.00  0.00    +0.000 N 
ATOM     31  C   UNL     1      44.762   7.305  11.869  0.00  0.00    +0.000 A 
ATOM     32  O   UNL     1      45.374   8.358  12.012  0.00  0.00    +0.000 OA
ATOM     33  C   UNL     1      45.265   6.007  12.277  0.00  0.00    +0.000 A 
ATOM     34  H   UNL     1      43.131   8.170  11.015  0.00  0.00    +0.000 HD
ENDBRANCH  21  24
ENDBRANCH  19  20
ENDBRANCH   4  19
TORSDOF 9
ENDMDL
