MODEL 1
REMARK VINA RESULT:    -6.761      0.000      0.000
REMARK INTER + INTRA:          -8.809
REMARK INTER:                  -8.342
REMARK INTRA:                  -0.467
REMARK UNBOUND:                -0.467
REMARK  Name = 
REMARK  4 active torsions:
REMARK  status: ('A' for Active; 'I' for Inactive)
REMARK    1  A    between atoms: C_2  and  C_4
REMARK    2  A    between atoms: C_8  and  C_9
REMARK    3  A    between atoms: C_10  and  C_11
REMARK    4  A    between atoms: C_15  and  N_16
REMARK                            x       y       z     vdW  Elec       q    Type
REMARK                         _______ _______ _______ _____ _____    ______ ____
ROOT
ATOM      1  C   UNL     1      46.596   4.262  14.864  0.00  0.00    +0.000 C 
ATOM      2  C   UNL     1      45.889   4.429  13.907  0.00  0.00    +0.000 C 
ENDROOT
BRANCH   1   7
ATOM      3  C   UNL     1      49.264   3.133  17.202  0.00  0.00    +0.000 A 
ATOM      4  C   UNL     1      48.843   3.812  18.339  0.00  0.00    +0.000 A 
ATOM      5  N   UNL     1      47.758   4.624  18.373  0.00  0.00    +0.000 NA
ATOM      6  C   UNL     1      47.057   4.743  17.220  0.00  0.00    +0.000 A 
ATOM      7  C   UNL     1      47.387   4.087  16.038  0.00  0.00    +0.000 A 
ATOM      8  C   UNL     1      48.510   3.261  16.032  0.00  0.00    +0.000 A 
BRANCH   3  10
ATOM      9  N   UNL     1      51.458   2.717  18.149  0.00  0.00    +0.000 N 
ATOM     10  C   UNL     1      50.485   2.307  17.279  0.00  0.00    +0.000 C 
ATOM     11  O   UNL     1      50.605   1.279  16.628  0.00  0.00    +0.000 OA
ATOM     12  H   UNL     1      52.236   2.083  18.280  0.00  0.00    +0.000 HD
ATOM     13  H   UNL     1      51.290   3.403  18.870  0.00  0.00    +0.000 HD
ENDBRANCH   3  10
ENDBRANCH   1   7
BRANCH   2  14
ATOM     14  C   UNL     1      44.985   4.648  12.821  0.00  0.00    +0.000 A 
ATOM     15  C   UNL     1      43.952   5.573  12.937  0.00  0.00    +0.000 A 
ATOM     16  C   UNL     1      43.126   5.817  11.844  0.00  0.00    +0.000 A 
ATOM     17  C   UNL     1      43.342   5.142  10.637  0.00  0.00    +0.000 A 
ATOM     18  C   UNL     1      44.368   4.196  10.494  0.00  0.00    +0.000 A 
ATOM     19  C   UNL     1      45.175   3.959  11.617  0.00  0.00    +0.000 A 
BRANCH  18  20
ATOM     20  N   UNL     1      44.598   3.537   9.306  0.00  0.00    +0.000 N 
ATOM     21  C   UNL     1      44.551   2.075   9.172  0.00  0.00    +0.000 C 
ATOM     22  C   UNL     1      45.902   1.545   8.675  0.00  0.00    +0.000 C 
ATOM     23  O   UNL     1      46.312   2.200   7.461  0.00  0.00    +0.000 OA
ATOM     24  C   UNL     1      46.433   3.617   7.675  0.00  0.00    +0.000 C 
ATOM     25  C   UNL     1      45.100   4.243   8.117  0.00  0.00    +0.000 C 
ENDBRANCH  18  20
ENDBRANCH   2  14
TORSDOF 4
ENDMDL
MODEL 2
REMARK VINA RESULT:    -6.577      1.458      2.059
REMARK INTER + INTRA:          -8.582
REMARK INTER:                  -8.122
REMARK INTRA:                  -0.461
REMARK UNBOUND:                -0.467
REMARK  Name = 
REMARK  4 active torsions:
REMARK  status: ('A' for Active; 'I' for Inactive)
REMARK    1  A    between atoms: C_2  and  C_4
REMARK    2  A    between atoms: C_8  and  C_9
REMARK    3  A    between atoms: C_10  and  C_11
REMARK    4  A    between atoms: C_15  and  N_16
REMARK                            x       y       z     vdW  Elec       q    Type
REMARK                         _______ _______ _______ _____ _____    ______ ____
ROOT
ATOM      1  C   UNL     1      46.690   4.290  14.774  0.00  0.00    +0.000 C 
ATOM      2  C   UNL     1      45.931   4.491  13.864  0.00  0.00    +0.000 C 
ENDROOT
BRANCH   1   7
ATOM      3  C   UNL     1      48.484   4.539  18.026  0.00  0.00    +0.000 A 
ATOM      4  C   UNL     1      49.228   3.367  17.942  0.00  0.00    +0.000 A 
ATOM      5  N   UNL     1      49.158   2.504  16.899  0.00  0.00    +0.000 NA
ATOM      6  C   UNL     1      48.318   2.842  15.891  0.00  0.00    +0.000 A 
ATOM      7  C   UNL     1      47.550   4.002  15.875  0.00  0.00    +0.000 A 
ATOM      8  C   UNL     1      47.641   4.870  16.963  0.00  0.00    +0.000 A 
BRANCH   3  10
ATOM      9  N   UNL     1      47.731   5.157  20.247  0.00  0.00    +0.000 N 
ATOM     10  C   UNL     1      48.619   5.380  19.231  0.00  0.00    +0.000 C 
ATOM     11  O   UNL     1      49.510   6.210  19.336  0.00  0.00    +0.000 OA
ATOM     12  H   UNL     1      47.905   5.655  21.111  0.00  0.00    +0.000 HD
ATOM     13  H   UNL     1      47.156   4.328  20.296  0.00  0.00    +0.000 HD
ENDBRANCH   3  10
ENDBRANCH   1   7
BRANCH   2  14
ATOM     14  C   UNL     1      44.987   4.660  12.804  0.00  0.00    +0.000 A 
ATOM     15  C   UNL     1      43.908   5.526  12.949  0.00  0.00    +0.000 A 
ATOM     16  C   UNL     1      43.041   5.724  11.879  0.00  0.00    +0.000 A 
ATOM     17  C   UNL     1      43.263   5.063  10.665  0.00  0.00    +0.000 A 
ATOM     18  C   UNL     1      44.335   4.176  10.492  0.00  0.00    +0.000 A 
ATOM     19  C   UNL     1      45.184   3.984  11.593  0.00  0.00    +0.000 A 
BRANCH  18  20
ATOM     20  N   UNL     1      44.570   3.533   9.297  0.00  0.00    +0.000 N 
ATOM     21  C   UNL     1      44.555   2.071   9.151  0.00  0.00    +0.000 C 
ATOM     22  C   UNL     1      45.913   1.575   8.638  0.00  0.00    +0.000 C 
ATOM     23  O   UNL     1      46.298   2.249   7.427  0.00  0.00    +0.000 OA
ATOM     24  C   UNL     1      46.390   3.666   7.653  0.00  0.00    +0.000 C 
ATOM     25  C   UNL     1      45.047   4.259   8.110  0.00  0.00    +0.000 C 
ENDBRANCH  18  20
ENDBRANCH   2  14
TORSDOF 4
ENDMDL
MODEL 3
REMARK VINA RESULT:    -6.451      2.568      9.218
REMARK INTER + INTRA:          -8.427
REMARK INTER:                  -7.964
REMARK INTRA:                  -0.462
REMARK UNBOUND:                -0.467
REMARK  Name = 
REMARK  4 active torsions:
REMARK  status: ('A' for Active; 'I' for Inactive)
REMARK    1  A    between atoms: C_2  and  C_4
REMARK    2  A    between atoms: C_8  and  C_9
REMARK    3  A    between atoms: C_10  and  C_11
REMARK    4  A    between atoms: C_15  and  N_16
REMARK                            x       y       z     vdW  Elec       q    Type
REMARK                         _______ _______ _______ _____ _____    ______ ____
ROOT
ATOM      1  C   UNL     1      46.039   4.602  13.844  0.00  0.00    +0.000 C 
ATOM      2  C   UNL     1      46.751   4.426  14.797  0.00  0.00    +0.000 C 
ENDROOT
BRANCH   1   7
ATOM      3  C   UNL     1      44.690   4.669  10.376  0.00  0.00    +0.000 A 
ATOM      4  C   UNL     1      43.396   5.087  10.665  0.00  0.00    +0.000 A 
ATOM      5  N   UNL     1      42.945   5.326  11.921  0.00  0.00    +0.000 NA
ATOM      6  C   UNL     1      43.838   5.153  12.926  0.00  0.00    +0.000 A 
ATOM      7  C   UNL     1      45.158   4.759  12.733  0.00  0.00    +0.000 A 
ATOM      8  C   UNL     1      45.593   4.518  11.431  0.00  0.00    +0.000 A 
BRANCH   3  10
ATOM      9  N   UNL     1      44.301   3.482   8.297  0.00  0.00    +0.000 N 
ATOM     10  C   UNL     1      45.053   4.405   8.970  0.00  0.00    +0.000 C 
ATOM     11  O   UNL     1      45.958   5.014   8.417  0.00  0.00    +0.000 OA
ATOM     12  H   UNL     1      44.482   3.395   7.305  0.00  0.00    +0.000 HD
ATOM     13  H   UNL     1      43.409   3.153   8.637  0.00  0.00    +0.000 HD
ENDBRANCH   3  10
ENDBRANCH   1   7
BRANCH   2  14
ATOM     14  C   UNL     1      47.541   4.159  15.957  0.00  0.00    +0.000 A 
ATOM     15  C   UNL     1      48.077   2.893  16.172  0.00  0.00    +0.000 A 
ATOM     16  C   UNL     1      48.898   2.676  17.274  0.00  0.00    +0.000 A 
ATOM     17  C   UNL     1      49.189   3.727  18.151  0.00  0.00    +0.000 A 
ATOM     18  C   UNL     1      48.655   5.011  17.967  0.00  0.00    +0.000 A 
ATOM     19  C   UNL     1      47.818   5.197  16.856  0.00  0.00    +0.000 A 
BRANCH  18  20
ATOM     20  N   UNL     1      48.947   6.056  18.815  0.00  0.00    +0.000 N 
ATOM     21  C   UNL     1      49.355   5.869  20.214  0.00  0.00    +0.000 C 
ATOM     22  C   UNL     1      48.371   6.581  21.152  0.00  0.00    +0.000 C 
ATOM     23  O   UNL     1      48.215   7.967  20.800  0.00  0.00    +0.000 OA
ATOM     24  C   UNL     1      47.724   8.087  19.454  0.00  0.00    +0.000 C 
ATOM     25  C   UNL     1      48.687   7.453  18.437  0.00  0.00    +0.000 C 
ENDBRANCH  18  20
ENDBRANCH   2  14
TORSDOF 4
ENDMDL
MODEL 4
REMARK VINA RESULT:    -6.276      2.650      9.069
REMARK INTER + INTRA:          -8.210
REMARK INTER:                  -7.769
REMARK INTRA:                  -0.441
REMARK UNBOUND:                -0.467
REMARK  Name = 
REMARK  4 active torsions:
REMARK  status: ('A' for Active; 'I' for Inactive)
REMARK    1  A    between atoms: C_2  and  C_4
REMARK    2  A    between atoms: C_8  and  C_9
REMARK    3  A    between atoms: C_10  and  C_11
REMARK    4  A    between atoms: C_15  and  N_16
REMARK                            x       y       z     vdW  Elec       q    Type
REMARK                         _______ _______ _______ _____ _____    ______ ____
ROOT
ATOM      1  C   UNL     1      45.955   4.723  13.908  0.00  0.00    +0.000 C 
ATOM      2  C   UNL     1      46.713   4.608  14.833  0.00  0.00    +0.000 C 
ENDROOT
BRANCH   1   7
ATOM      3  C   UNL     1      44.671   4.713  10.415  0.00  0.00    +0.000 A 
ATOM      4  C   UNL     1      43.333   4.978  10.685  0.00  0.00    +0.000 A 
ATOM      5  N   UNL     1      42.835   5.138  11.936  0.00  0.00    +0.000 NA
ATOM      6  C   UNL     1      43.722   5.045  12.955  0.00  0.00    +0.000 A 
ATOM      7  C   UNL     1      45.082   4.804  12.783  0.00  0.00    +0.000 A 
ATOM      8  C   UNL     1      45.565   4.641  11.485  0.00  0.00    +0.000 A 
BRANCH   3  10
ATOM      9  N   UNL     1      44.335   3.666   8.253  0.00  0.00    +0.000 N 
ATOM     10  C   UNL     1      45.086   4.520   9.012  0.00  0.00    +0.000 C 
ATOM     11  O   UNL     1      46.034   5.129   8.535  0.00  0.00    +0.000 OA
ATOM     12  H   UNL     1      44.557   3.632   7.265  0.00  0.00    +0.000 HD
ATOM     13  H   UNL     1      43.419   3.348   8.535  0.00  0.00    +0.000 HD
ENDBRANCH   3  10
ENDBRANCH   1   7
BRANCH   2  14
ATOM     14  C   UNL     1      47.640   4.397  15.901  0.00  0.00    +0.000 A 
ATOM     15  C   UNL     1      47.716   3.163  16.538  0.00  0.00    +0.000 A 
ATOM     16  C   UNL     1      48.672   2.962  17.529  0.00  0.00    +0.000 A 
ATOM     17  C   UNL     1      49.554   3.993  17.872  0.00  0.00    +0.000 A 
ATOM     18  C   UNL     1      49.495   5.251  17.256  0.00  0.00    +0.000 A 
ATOM     19  C   UNL     1      48.511   5.430  16.271  0.00  0.00    +0.000 A 
BRANCH  18  20
ATOM     20  N   UNL     1      50.368   6.268  17.575  0.00  0.00    +0.000 N 
ATOM     21  C   UNL     1      51.518   6.636  16.738  0.00  0.00    +0.000 C 
ATOM     22  C   UNL     1      52.821   6.496  17.535  0.00  0.00    +0.000 C 
ATOM     23  O   UNL     1      52.770   7.241  18.765  0.00  0.00    +0.000 OA
ATOM     24  C   UNL     1      51.685   6.775  19.586  0.00  0.00    +0.000 C 
ATOM     25  C   UNL     1      50.327   6.939  18.883  0.00  0.00    +0.000 C 
ENDBRANCH  18  20
ENDBRANCH   2  14
TORSDOF 4
ENDMDL
MODEL 5
REMARK VINA RESULT:    -6.203      3.154      9.223
REMARK INTER + INTRA:          -8.120
REMARK INTER:                  -7.638
REMARK INTRA:                  -0.482
REMARK UNBOUND:                -0.467
REMARK  Name = 
REMARK  4 active torsions:
REMARK  status: ('A' for Active; 'I' for Inactive)
REMARK    1  A    between atoms: C_2  and  C_4
REMARK    2  A    between atoms: C_8  and  C_9
REMARK    3  A    between atoms: C_10  and  C_11
REMARK    4  A    between atoms: C_15  and  N_16
REMARK                            x       y       z     vdW  Elec       q    Type
REMARK                         _______ _______ _______ _____ _____    ______ ____
ROOT
ATOM      1  C   UNL     1      46.794   4.569  14.398  0.00  0.00    +0.000 C 
ATOM      2  C   UNL     1      47.222   4.452  15.514  0.00  0.00    +0.000 C 
ENDROOT
BRANCH   1   7
ATOM      3  C   UNL     1      44.894   4.041  11.241  0.00  0.00    +0.000 A 
ATOM      4  C   UNL     1      45.254   5.213  10.584  0.00  0.00    +0.000 A 
ATOM      5  N   UNL     1      46.059   6.161  11.123  0.00  0.00    +0.000 NA
ATOM      6  C   UNL     1      46.536   5.912  12.367  0.00  0.00    +0.000 A 
ATOM      7  C   UNL     1      46.250   4.759  13.092  0.00  0.00    +0.000 A 
ATOM      8  C   UNL     1      45.417   3.803  12.514  0.00  0.00    +0.000 A 
BRANCH   3  10
ATOM      9  N   UNL     1      44.207   2.858   9.238  0.00  0.00    +0.000 N 
ATOM     10  C   UNL     1      43.979   3.101  10.564  0.00  0.00    +0.000 C 
ATOM     11  O   UNL     1      43.083   2.532  11.171  0.00  0.00    +0.000 OA
ATOM     12  H   UNL     1      43.649   2.126   8.815  0.00  0.00    +0.000 HD
ATOM     13  H   UNL     1      45.070   3.109   8.778  0.00  0.00    +0.000 HD
ENDBRANCH   3  10
ENDBRANCH   1   7
BRANCH   2  14
ATOM     14  C   UNL     1      47.694   4.386  16.862  0.00  0.00    +0.000 A 
ATOM     15  C   UNL     1      47.960   3.158  17.460  0.00  0.00    +0.000 A 
ATOM     16  C   UNL     1      48.482   3.124  18.749  0.00  0.00    +0.000 A 
ATOM     17  C   UNL     1      48.745   4.317  19.432  0.00  0.00    +0.000 A 
ATOM     18  C   UNL     1      48.477   5.569  18.860  0.00  0.00    +0.000 A 
ATOM     19  C   UNL     1      47.936   5.573  17.565  0.00  0.00    +0.000 A 
BRANCH  18  20
ATOM     20  N   UNL     1      48.747   6.749  19.518  0.00  0.00    +0.000 N 
ATOM     21  C   UNL     1      47.734   7.502  20.272  0.00  0.00    +0.000 C 
ATOM     22  C   UNL     1      47.589   8.916  19.696  0.00  0.00    +0.000 C 
ATOM     23  O   UNL     1      48.856   9.596  19.638  0.00  0.00    +0.000 OA
ATOM     24  C   UNL     1      49.776   8.864  18.811  0.00  0.00    +0.000 C 
ATOM     25  C   UNL     1      50.030   7.448  19.355  0.00  0.00    +0.000 C 
ENDBRANCH  18  20
ENDBRANCH   2  14
TORSDOF 4
ENDMDL
MODEL 6
REMARK VINA RESULT:    -6.124      3.095      4.144
REMARK INTER + INTRA:          -8.022
REMARK INTER:                  -7.552
REMARK INTRA:                  -0.470
REMARK UNBOUND:                -0.467
REMARK  Name = 
REMARK  4 active torsions:
REMARK  status: ('A' for Active; 'I' for Inactive)
REMARK    1  A    between atoms: C_2  and  C_4
REMARK    2  A    between atoms: C_8  and  C_9
REMARK    3  A    between atoms: C_10  and  C_11
REMARK    4  A    between atoms: C_15  and  N_16
REMARK                            x       y       z     vdW  Elec       q    Type
REMARK                         _______ _______ _______ _____ _____    ______ ____
ROOT
ATOM      1  C   UNL     1      48.387   5.650  16.343  0.00  0.00    +0.000 C 
ATOM      2  C   UNL     1      48.028   5.829  15.210  0.00  0.00    +0.000 C 
ENDROOT
BRANCH   1   7
ATOM      3  C   UNL     1      48.367   5.742  20.064  0.00  0.00    +0.000 A 
ATOM      4  C   UNL     1      49.591   5.124  20.293  0.00  0.00    +0.000 A 
ATOM      5  N   UNL     1      50.401   4.669  19.306  0.00  0.00    +0.000 NA
ATOM      6  C   UNL     1      49.970   4.859  18.035  0.00  0.00    +0.000 A 
ATOM      7  C   UNL     1      48.771   5.485  17.707  0.00  0.00    +0.000 A 
ATOM      8  C   UNL     1      47.957   5.940  18.743  0.00  0.00    +0.000 A 
BRANCH   3  10
ATOM      9  N   UNL     1      47.077   5.171  22.038  0.00  0.00    +0.000 N 
ATOM     10  C   UNL     1      47.555   6.160  21.224  0.00  0.00    +0.000 C 
ATOM     11  O   UNL     1      47.355   7.341  21.472  0.00  0.00    +0.000 OA
ATOM     12  H   UNL     1      46.624   5.474  22.891  0.00  0.00    +0.000 HD
ATOM     13  H   UNL     1      47.426   4.224  22.007  0.00  0.00    +0.000 HD
ENDBRANCH   3  10
ENDBRANCH   1   7
BRANCH   2  14
ATOM     14  C   UNL     1      47.539   6.093  13.893  0.00  0.00    +0.000 A 
ATOM     15  C   UNL     1      48.268   6.890  13.015  0.00  0.00    +0.000 A 
ATOM     16  C   UNL     1      47.805   7.076  11.716  0.00  0.00    +0.000 A 
ATOM     17  C   UNL     1      46.620   6.459  11.298  0.00  0.00    +0.000 A 
ATOM     18  C   UNL     1      45.859   5.660  12.163  0.00  0.00    +0.000 A 
ATOM     19  C   UNL     1      46.342   5.501  13.471  0.00  0.00    +0.000 A 
BRANCH  18  20
ATOM     20  N   UNL     1      44.700   5.035  11.756  0.00  0.00    +0.000 N 
ATOM     21  C   UNL     1      43.724   4.459  12.691  0.00  0.00    +0.000 C 
ATOM     22  C   UNL     1      43.548   2.960  12.418  0.00  0.00    +0.000 C 
ATOM     23  O   UNL     1      43.212   2.710  11.041  0.00  0.00    +0.000 OA
ATOM     24  C   UNL     1      44.247   3.210  10.177  0.00  0.00    +0.000 C 
ATOM     25  C   UNL     1      44.446   4.726  10.341  0.00  0.00    +0.000 C 
ENDBRANCH  18  20
ENDBRANCH   2  14
TORSDOF 4
ENDMDL
MODEL 7
REMARK VINA RESULT:    -6.061      6.245      8.101
REMARK INTER + INTRA:          -7.945
REMARK INTER:                  -7.488
REMARK INTRA:                  -0.457
REMARK UNBOUND:                -0.467
REMARK  Name = 
REMARK  4 active torsions:
REMARK  status: ('A' for Active; 'I' for Inactive)
REMARK    1  A    between atoms: C_2  and  C_4
REMARK    2  A    between atoms: C_8  and  C_9
REMARK    3  A    between atoms: C_10  and  C_11
REMARK    4  A    between atoms: C_15  and  N_16
REMARK                            x       y       z     vdW  Elec       q    Type
REMARK                         _______ _______ _______ _____ _____    ______ ____
ROOT
ATOM      1  C   UNL     1      47.921   6.866  12.197  0.00  0.00    +0.000 C 
ATOM      2  C   UNL     1      48.886   7.512  11.887  0.00  0.00    +0.000 C 
ENDROOT
BRANCH   1   7
ATOM      3  C   UNL     1      44.496   5.419  12.041  0.00  0.00    +0.000 A 
ATOM      4  C   UNL     1      44.567   4.598  13.161  0.00  0.00    +0.000 A 
ATOM      5  N   UNL     1      45.669   4.482  13.941  0.00  0.00    +0.000 NA
ATOM      6  C   UNL     1      46.739   5.236  13.590  0.00  0.00    +0.000 A 
ATOM      7  C   UNL     1      46.755   6.102  12.501  0.00  0.00    +0.000 A 
ATOM      8  C   UNL     1      45.608   6.198  11.715  0.00  0.00    +0.000 A 
BRANCH   3  10
ATOM      9  N   UNL     1      42.178   6.088  11.784  0.00  0.00    +0.000 N 
ATOM     10  C   UNL     1      43.251   5.431  11.248  0.00  0.00    +0.000 C 
ATOM     11  O   UNL     1      43.191   4.912  10.142  0.00  0.00    +0.000 OA
ATOM     12  H   UNL     1      41.370   6.191  11.184  0.00  0.00    +0.000 HD
ATOM     13  H   UNL     1      42.264   6.728  12.561  0.00  0.00    +0.000 HD
ENDBRANCH   3  10
ENDBRANCH   1   7
BRANCH   2  14
ATOM     14  C   UNL     1      50.010   8.273  11.438  0.00  0.00    +0.000 A 
ATOM     15  C   UNL     1      50.079   9.642  11.679  0.00  0.00    +0.000 A 
ATOM     16  C   UNL     1      51.214  10.348  11.292  0.00  0.00    +0.000 A 
ATOM     17  C   UNL     1      52.278   9.681  10.674  0.00  0.00    +0.000 A 
ATOM     18  C   UNL     1      52.233   8.305  10.409  0.00  0.00    +0.000 A 
ATOM     19  C   UNL     1      51.071   7.621  10.797  0.00  0.00    +0.000 A 
BRANCH  18  20
ATOM     20  N   UNL     1      53.282   7.636   9.817  0.00  0.00    +0.000 N 
ATOM     21  C   UNL     1      53.392   7.432   8.366  0.00  0.00    +0.000 C 
ATOM     22  C   UNL     1      53.448   5.933   8.045  0.00  0.00    +0.000 C 
ATOM     23  O   UNL     1      54.497   5.275   8.778  0.00  0.00    +0.000 OA
ATOM     24  C   UNL     1      54.287   5.427  10.192  0.00  0.00    +0.000 C 
ATOM     25  C   UNL     1      54.281   6.907  10.612  0.00  0.00    +0.000 C 
ENDBRANCH  18  20
ENDBRANCH   2  14
TORSDOF 4
ENDMDL
MODEL 8
REMARK VINA RESULT:    -5.966      6.094      7.205
REMARK INTER + INTRA:          -7.827
REMARK INTER:                  -7.376
REMARK INTRA:                  -0.452
REMARK UNBOUND:                -0.467
REMARK  Name = 
REMARK  4 active torsions:
REMARK  status: ('A' for Active; 'I' for Inactive)
REMARK    1  A    between atoms: C_2  and  C_4
REMARK    2  A    between atoms: C_8  and  C_9
REMARK    3  A    between atoms: C_10  and  C_11
REMARK    4  A    between atoms: C_15  and  N_16
REMARK                            x       y       z     vdW  Elec       q    Type
REMARK                         _______ _______ _______ _____ _____    ______ ____
ROOT
ATOM      1  C   UNL     1      50.509   7.734  11.156  0.00  0.00    +0.000 C 
ATOM      2  C   UNL     1      49.368   7.770  11.531  0.00  0.00    +0.000 C 
ENDROOT
BRANCH   1   7
ATOM      3  C   UNL     1      53.536   6.844   9.181  0.00  0.00    +0.000 A 
ATOM      4  C   UNL     1      54.426   7.749   9.748  0.00  0.00    +0.000 A 
ATOM      5  N   UNL     1      54.085   8.635  10.716  0.00  0.00    +0.000 NA
ATOM      6  C   UNL     1      52.800   8.597  11.144  0.00  0.00    +0.000 A 
ATOM      7  C   UNL     1      51.844   7.714  10.653  0.00  0.00    +0.000 A 
ATOM      8  C   UNL     1      52.222   6.817   9.655  0.00  0.00    +0.000 A 
BRANCH   3  10
ATOM      9  N   UNL     1      54.371   4.683   8.463  0.00  0.00    +0.000 N 
ATOM     10  C   UNL     1      54.016   5.955   8.106  0.00  0.00    +0.000 C 
ATOM     11  O   UNL     1      54.056   6.323   6.941  0.00  0.00    +0.000 OA
ATOM     12  H   UNL     1      54.587   4.049   7.704  0.00  0.00    +0.000 HD
ATOM     13  H   UNL     1      54.118   4.276   9.352  0.00  0.00    +0.000 HD
ENDBRANCH   3  10
ENDBRANCH   1   7
BRANCH   2  14
ATOM     14  C   UNL     1      47.990   7.852  11.904  0.00  0.00    +0.000 A 
ATOM     15  C   UNL     1      47.419   9.077  12.235  0.00  0.00    +0.000 A 
ATOM     16  C   UNL     1      46.060   9.141  12.529  0.00  0.00    +0.000 A 
ATOM     17  C   UNL     1      45.277   7.982  12.481  0.00  0.00    +0.000 A 
ATOM     18  C   UNL     1      45.826   6.733  12.161  0.00  0.00    +0.000 A 
ATOM     19  C   UNL     1      47.201   6.695  11.884  0.00  0.00    +0.000 A 
BRANCH  18  20
ATOM     20  N   UNL     1      45.060   5.589  12.095  0.00  0.00    +0.000 N 
ATOM     21  C   UNL     1      45.247   4.551  11.073  0.00  0.00    +0.000 C 
ATOM     22  C   UNL     1      43.956   4.367  10.263  0.00  0.00    +0.000 C 
ATOM     23  O   UNL     1      42.829   4.106  11.119  0.00  0.00    +0.000 OA
ATOM     24  C   UNL     1      42.636   5.197  12.035  0.00  0.00    +0.000 C 
ATOM     25  C   UNL     1      43.865   5.411  12.935  0.00  0.00    +0.000 C 
ENDBRANCH  18  20
ENDBRANCH   2  14
TORSDOF 4
ENDMDL
MODEL 9
REMARK VINA RESULT:    -5.878      3.082      3.329
REMARK INTER + INTRA:          -7.720
REMARK INTER:                  -7.243
REMARK INTRA:                  -0.477
REMARK UNBOUND:                -0.467
REMARK  Name = 
REMARK  4 active torsions:
REMARK  status: ('A' for Active; 'I' for Inactive)
REMARK    1  A    between atoms: C_2  and  C_4
REMARK    2  A    between atoms: C_8  and  C_9
REMARK    3  A    between atoms: C_10  and  C_11
REMARK    4  A    between atoms: C_15  and  N_16
REMARK                            x       y       z     vdW  Elec       q    Type
REMARK                         _______ _______ _______ _____ _____    ______ ____
ROOT
ATOM      1  C   UNL     1      47.421   5.973  13.588  0.00  0.00    +0.000 C 
ATOM      2  C   UNL     1      46.508   5.352  13.113  0.00  0.00    +0.000 C 
ENDROOT
BRANCH   1   7
ATOM      3  C   UNL     1      49.954   7.344  15.945  0.00  0.00    +0.000 A 
ATOM      4  C   UNL     1      50.729   8.048  15.030  0.00  0.00    +0.000 A 
ATOM      5  N   UNL     1      50.479   8.079  13.698  0.00  0.00    +0.000 NA
ATOM      6  C   UNL     1      49.394   7.388  13.272  0.00  0.00    +0.000 A 
ATOM      7  C   UNL     1      48.547   6.674  14.113  0.00  0.00    +0.000 A 
ATOM      8  C   UNL     1      48.831   6.657  15.478  0.00  0.00    +0.000 A 
BRANCH   3  10
ATOM      9  N   UNL     1      51.507   8.012  17.685  0.00  0.00    +0.000 N 
ATOM     10  C   UNL     1      50.350   7.356  17.367  0.00  0.00    +0.000 C 
ATOM     11  O   UNL     1      49.654   6.838  18.229  0.00  0.00    +0.000 OA
ATOM     12  H   UNL     1      51.707   8.113  18.672  0.00  0.00    +0.000 HD
ATOM     13  H   UNL     1      51.963   8.651  17.050  0.00  0.00    +0.000 HD
ENDBRANCH   3  10
ENDBRANCH   1   7
BRANCH   2  14
ATOM     14  C   UNL     1      45.477   4.579  12.494  0.00  0.00    +0.000 A 
ATOM     15  C   UNL     1      44.287   4.320  13.167  0.00  0.00    +0.000 A 
ATOM     16  C   UNL     1      43.272   3.623  12.519  0.00  0.00    +0.000 A 
ATOM     17  C   UNL     1      43.447   3.197  11.197  0.00  0.00    +0.000 A 
ATOM     18  C   UNL     1      44.639   3.434  10.497  0.00  0.00    +0.000 A 
ATOM     19  C   UNL     1      45.651   4.125  11.181  0.00  0.00    +0.000 A 
BRANCH  18  20
ATOM     20  N   UNL     1      44.816   3.032   9.191  0.00  0.00    +0.000 N 
ATOM     21  C   UNL     1      44.997   1.628   8.797  0.00  0.00    +0.000 C 
ATOM     22  C   UNL     1      46.339   1.450   8.075  0.00  0.00    +0.000 C 
ATOM     23  O   UNL     1      46.467   2.358   6.966  0.00  0.00    +0.000 OA
ATOM     24  C   UNL     1      46.376   3.719   7.424  0.00  0.00    +0.000 C 
ATOM     25  C   UNL     1      45.028   4.003   8.107  0.00  0.00    +0.000 C 
ENDBRANCH  18  20
ENDBRANCH   2  14
TORSDOF 4
ENDMDL
