MODEL 1
REMARK VINA RESULT:    -7.634      0.000      0.000
REMARK INTER + INTRA:         -11.854
REMARK INTER:                 -10.758
REMARK INTRA:                  -1.096
REMARK UNBOUND:                -1.096
REMARK  Name = 
REMARK  8 active torsions:
REMARK  status: ('A' for Active; 'I' for Inactive)
REMARK    1  A    between atoms: C_1  and  O_2
REMARK    2  A    between atoms: O_2  and  C_3
REMARK    3  A    between atoms: C_7  and  C_8
REMARK    4  A    between atoms: N_10  and  C_11
REMARK    5  A    between atoms: C_11  and  C_12
REMARK    6  A    between atoms: C_15  and  C_16
REMARK    7  A    between atoms: C_16  and  N_17
REMARK    8  A    between atoms: C_18  and  C_20
REMARK                            x       y       z     vdW  Elec       q    Type
REMARK                         _______ _______ _______ _____ _____    ______ ____
ROOT
ATOM      1  C   UNL     1      45.229   6.520  11.443  0.00  0.00    +0.000 A 
ATOM      2  C   UNL     1      46.459   5.999  11.869  0.00  0.00    +0.000 A 
ATOM      3  C   UNL     1      47.282   6.720  12.745  0.00  0.00    +0.000 A 
ATOM      4  C   UNL     1      46.886   7.972  13.235  0.00  0.00    +0.000 A 
ATOM      5  C   UNL     1      45.657   8.495  12.807  0.00  0.00    +0.000 A 
ATOM      6  C   UNL     1      44.835   7.774  11.929  0.00  0.00    +0.000 A 
ENDROOT
BRANCH   1   7
ATOM      7  C   UNL     1      44.342   5.736  10.503  0.00  0.00    +0.000 C 
BRANCH   7  10
ATOM      8  C   UNL     1      44.828   3.652   9.270  0.00  0.00    +0.000 C 
ATOM      9  O   UNL     1      43.914   3.028   9.799  0.00  0.00    +0.000 OA
ATOM     10  N   UNL     1      45.122   4.970   9.558  0.00  0.00    +0.000 N 
ATOM     11  H   UNL     1      45.708   5.487   8.916  0.00  0.00    +0.000 HD
BRANCH   8  16
ATOM     12  C   UNL     1      46.930   1.103   7.402  0.00  0.00    +0.000 A 
ATOM     13  C   UNL     1      47.208   1.798   6.222  0.00  0.00    +0.000 A 
ATOM     14  C   UNL     1      46.749   3.106   6.051  0.00  0.00    +0.000 A 
ATOM     15  C   UNL     1      45.991   3.719   7.047  0.00  0.00    +0.000 A 
ATOM     16  C   UNL     1      45.681   3.023   8.221  0.00  0.00    +0.000 A 
ATOM     17  C   UNL     1      46.177   1.724   8.407  0.00  0.00    +0.000 A 
BRANCH  12  19
ATOM     18  C   UNL     1      46.416  -1.221   7.344  0.00  0.00    +0.000 C 
ATOM     19  O   UNL     1      47.330  -0.178   7.674  0.00  0.00    +0.000 OA
ENDBRANCH  12  19
ENDBRANCH   8  16
ENDBRANCH   7  10
ENDBRANCH   1   7
BRANCH   4  20
ATOM     20  C   UNL     1      47.769   8.757  14.176  0.00  0.00    +0.000 C 
BRANCH  20  21
ATOM     21  N   UNL     1      48.123   7.983  15.340  0.00  0.00    +0.000 N 
ATOM     22  C   UNL     1      49.371   7.428  15.487  0.00  0.00    +0.000 C 
ATOM     23  O   UNL     1      50.260   7.593  14.656  0.00  0.00    +0.000 OA
ATOM     24  H   UNL     1      47.358   7.631  15.905  0.00  0.00    +0.000 HD
BRANCH  22  25
ATOM     25  C   UNL     1      49.611   6.675  16.727  0.00  0.00    +0.000 A 
ATOM     26  C   UNL     1      50.512   7.155  17.668  0.00  0.00    +0.000 A 
ATOM     27  S   UNL     1      50.628   6.182  19.066  0.00  0.00    +0.000 S 
ATOM     28  C   UNL     1      49.521   5.053  18.439  0.00  0.00    +0.000 A 
ATOM     29  N   UNL     1      49.190   3.934  19.137  0.00  0.00    +0.000 NA
ATOM     30  C   UNL     1      48.367   3.148  18.527  0.00  0.00    +0.000 A 
ATOM     31  N   UNL     1      47.837   3.385  17.285  0.00  0.00    +0.000 N 
ATOM     32  C   UNL     1      48.110   4.521  16.561  0.00  0.00    +0.000 A 
ATOM     33  O   UNL     1      47.571   4.731  15.479  0.00  0.00    +0.000 OA
ATOM     34  C   UNL     1      49.049   5.427  17.193  0.00  0.00    +0.000 A 
ATOM     35  H   UNL     1      47.185   2.738  16.868  0.00  0.00    +0.000 HD
ENDBRANCH  22  25
ENDBRANCH  20  21
ENDBRANCH   4  20
TORSDOF 7
ENDMDL
MODEL 2
REMARK VINA RESULT:    -7.273      1.834      2.120
REMARK INTER + INTRA:         -11.346
REMARK INTER:                 -10.492
REMARK INTRA:                  -0.853
REMARK UNBOUND:                -1.096
REMARK  Name = 
REMARK  8 active torsions:
REMARK  status: ('A' for Active; 'I' for Inactive)
REMARK    1  A    between atoms: C_1  and  O_2
REMARK    2  A    between atoms: O_2  and  C_3
REMARK    3  A    between atoms: C_7  and  C_8
REMARK    4  A    between atoms: N_10  and  C_11
REMARK    5  A    between atoms: C_11  and  C_12
REMARK    6  A    between atoms: C_15  and  C_16
REMARK    7  A    between atoms: C_16  and  N_17
REMARK    8  A    between atoms: C_18  and  C_20
REMARK                            x       y       z     vdW  Elec       q    Type
REMARK                         _______ _______ _______ _____ _____    ______ ____
ROOT
ATOM      1  C   UNL     1      45.320   6.606  11.456  0.00  0.00    +0.000 A 
ATOM      2  C   UNL     1      44.797   7.725  12.119  0.00  0.00    +0.000 A 
ATOM      3  C   UNL     1      45.624   8.563  12.880  0.00  0.00    +0.000 A 
ATOM      4  C   UNL     1      47.001   8.316  12.978  0.00  0.00    +0.000 A 
ATOM      5  C   UNL     1      47.523   7.196  12.316  0.00  0.00    +0.000 A 
ATOM      6  C   UNL     1      46.696   6.356  11.558  0.00  0.00    +0.000 A 
ENDROOT
BRANCH   1   7
ATOM      7  C   UNL     1      44.426   5.708  10.632  0.00  0.00    +0.000 C 
BRANCH   7  10
ATOM      8  C   UNL     1      44.851   3.637   9.355  0.00  0.00    +0.000 C 
ATOM      9  O   UNL     1      43.907   3.035   9.856  0.00  0.00    +0.000 OA
ATOM     10  N   UNL     1      45.190   4.936   9.679  0.00  0.00    +0.000 N 
ATOM     11  H   UNL     1      45.804   5.445   9.057  0.00  0.00    +0.000 HD
BRANCH   8  16
ATOM     12  C   UNL     1      46.897   1.061   7.462  0.00  0.00    +0.000 A 
ATOM     13  C   UNL     1      47.203   1.767   6.295  0.00  0.00    +0.000 A 
ATOM     14  C   UNL     1      46.781   3.089   6.141  0.00  0.00    +0.000 A 
ATOM     15  C   UNL     1      46.033   3.707   7.142  0.00  0.00    +0.000 A 
ATOM     16  C   UNL     1      45.695   3.002   8.302  0.00  0.00    +0.000 A 
ATOM     17  C   UNL     1      46.154   1.687   8.471  0.00  0.00    +0.000 A 
BRANCH  12  19
ATOM     18  C   UNL     1      46.381  -1.253   7.246  0.00  0.00    +0.000 C 
ATOM     19  O   UNL     1      47.260  -0.235   7.717  0.00  0.00    +0.000 OA
ENDBRANCH  12  19
ENDBRANCH   8  16
ENDBRANCH   7  10
ENDBRANCH   1   7
BRANCH   4  20
ATOM     20  C   UNL     1      47.897   9.213  13.798  0.00  0.00    +0.000 C 
BRANCH  20  21
ATOM     21  N   UNL     1      47.614   9.103  15.207  0.00  0.00    +0.000 N 
ATOM     22  C   UNL     1      48.595   8.799  16.120  0.00  0.00    +0.000 C 
ATOM     23  O   UNL     1      49.767   8.644  15.790  0.00  0.00    +0.000 OA
ATOM     24  H   UNL     1      46.642   8.982  15.470  0.00  0.00    +0.000 HD
BRANCH  22  25
ATOM     25  C   UNL     1      48.179   8.731  17.529  0.00  0.00    +0.000 A 
ATOM     26  C   UNL     1      47.810   9.889  18.201  0.00  0.00    +0.000 A 
ATOM     27  S   UNL     1      47.309   9.619  19.810  0.00  0.00    +0.000 S 
ATOM     28  C   UNL     1      47.621   7.951  19.685  0.00  0.00    +0.000 A 
ATOM     29  N   UNL     1      47.428   7.120  20.745  0.00  0.00    +0.000 NA
ATOM     30  C   UNL     1      47.739   5.887  20.520  0.00  0.00    +0.000 A 
ATOM     31  N   UNL     1      48.217   5.408  19.328  0.00  0.00    +0.000 N 
ATOM     32  C   UNL     1      48.390   6.201  18.219  0.00  0.00    +0.000 A 
ATOM     33  O   UNL     1      48.761   5.729  17.150  0.00  0.00    +0.000 OA
ATOM     34  C   UNL     1      48.076   7.602  18.425  0.00  0.00    +0.000 A 
ATOM     35  H   UNL     1      48.427   4.429  19.211  0.00  0.00    +0.000 HD
ENDBRANCH  22  25
ENDBRANCH  20  21
ENDBRANCH   4  20
TORSDOF 7
ENDMDL
MODEL 3
REMARK VINA RESULT:    -7.221      5.440      9.890
REMARK INTER + INTRA:         -11.273
REMARK INTER:                 -10.339
REMARK INTRA:                  -0.934
REMARK UNBOUND:                -1.096
REMARK  Name = 
REMARK  8 active torsions:
REMARK  status: ('A' for Active; 'I' for Inactive)
REMARK    1  A    between atoms: C_1  and  O_2
REMARK    2  A    between atoms: O_2  and  C_3
REMARK    3  A    between atoms: C_7  and  C_8
REMARK    4  A    between atoms: N_10  and  C_11
REMARK    5  A    between atoms: C_11  and  C_12
REMARK    6  A    between atoms: C_15  and  C_16
REMARK    7  A    between atoms: C_16  and  N_17
REMARK    8  A    between atoms: C_18  and  C_20
REMARK                            x       y       z     vdW  Elec       q    Type
REMARK                         _______ _______ _______ _____ _____    ______ ____
ROOT
ATOM      1  C   UNL     1      51.533   3.067  17.758  0.00  0.00    +0.000 A 
ATOM      2  C   UNL     1      50.883   4.263  18.093  0.00  0.00    +0.000 A 
ATOM      3  C   UNL     1      49.511   4.429  17.857  0.00  0.00    +0.000 A 
ATOM      4  C   UNL     1      48.749   3.392  17.301  0.00  0.00    +0.000 A 
ATOM      5  C   UNL     1      49.398   2.196  16.966  0.00  0.00    +0.000 A 
ATOM      6  C   UNL     1      50.772   2.032  17.199  0.00  0.00    +0.000 A 
ENDROOT
BRANCH   1   7
ATOM      7  C   UNL     1      53.011   2.891  18.020  0.00  0.00    +0.000 C 
BRANCH   7  10
ATOM      8  C   UNL     1      54.161   0.732  18.362  0.00  0.00    +0.000 C 
ATOM      9  O   UNL     1      54.438   0.970  19.533  0.00  0.00    +0.000 OA
ATOM     10  N   UNL     1      53.482   1.611  17.542  0.00  0.00    +0.000 N 
ATOM     11  H   UNL     1      53.071   1.257  16.688  0.00  0.00    +0.000 HD
BRANCH   8  16
ATOM     12  C   UNL     1      54.716  -2.995  17.904  0.00  0.00    +0.000 A 
ATOM     13  C   UNL     1      55.090  -3.046  16.559  0.00  0.00    +0.000 A 
ATOM     14  C   UNL     1      55.201  -1.871  15.814  0.00  0.00    +0.000 A 
ATOM     15  C   UNL     1      54.919  -0.639  16.401  0.00  0.00    +0.000 A 
ATOM     16  C   UNL     1      54.516  -0.576  17.740  0.00  0.00    +0.000 A 
ATOM     17  C   UNL     1      54.443  -1.755  18.497  0.00  0.00    +0.000 A 
BRANCH  12  19
ATOM     18  C   UNL     1      53.248  -4.530  18.981  0.00  0.00    +0.000 C 
ATOM     19  O   UNL     1      54.577  -4.082  18.726  0.00  0.00    +0.000 OA
ENDBRANCH  12  19
ENDBRANCH   8  16
ENDBRANCH   7  10
ENDBRANCH   1   7
BRANCH   4  20
ATOM     20  C   UNL     1      47.271   3.563  17.042  0.00  0.00    +0.000 C 
BRANCH  20  21
ATOM     21  N   UNL     1      47.021   4.554  16.024  0.00  0.00    +0.000 N 
ATOM     22  C   UNL     1      47.081   4.246  14.687  0.00  0.00    +0.000 C 
ATOM     23  O   UNL     1      47.310   3.108  14.288  0.00  0.00    +0.000 OA
ATOM     24  H   UNL     1      47.075   5.525  16.310  0.00  0.00    +0.000 HD
BRANCH  22  25
ATOM     25  C   UNL     1      46.791   5.342  13.750  0.00  0.00    +0.000 A 
ATOM     26  C   UNL     1      47.745   6.323  13.513  0.00  0.00    +0.000 A 
ATOM     27  S   UNL     1      47.262   7.487  12.362  0.00  0.00    +0.000 S 
ATOM     28  C   UNL     1      45.737   6.756  12.182  0.00  0.00    +0.000 A 
ATOM     29  N   UNL     1      44.800   7.282  11.348  0.00  0.00    +0.000 NA
ATOM     30  C   UNL     1      43.677   6.645  11.336  0.00  0.00    +0.000 A 
ATOM     31  N   UNL     1      43.408   5.524  12.077  0.00  0.00    +0.000 N 
ATOM     32  C   UNL     1      44.335   4.934  12.902  0.00  0.00    +0.000 A 
ATOM     33  O   UNL     1      44.082   3.895  13.504  0.00  0.00    +0.000 OA
ATOM     34  C   UNL     1      45.608   5.624  12.968  0.00  0.00    +0.000 A 
ATOM     35  H   UNL     1      42.513   5.063  12.012  0.00  0.00    +0.000 HD
ENDBRANCH  22  25
ENDBRANCH  20  21
ENDBRANCH   4  20
TORSDOF 7
ENDMDL
MODEL 4
REMARK VINA RESULT:    -7.032      1.502      2.136
REMARK INTER + INTRA:         -11.006
REMARK INTER:                  -9.770
REMARK INTRA:                  -1.235
REMARK UNBOUND:                -1.096
REMARK  Name = 
REMARK  8 active torsions:
REMARK  status: ('A' for Active; 'I' for Inactive)
REMARK    1  A    between atoms: C_1  and  O_2
REMARK    2  A    between atoms: O_2  and  C_3
REMARK    3  A    between atoms: C_7  and  C_8
REMARK    4  A    between atoms: N_10  and  C_11
REMARK    5  A    between atoms: C_11  and  C_12
REMARK    6  A    between atoms: C_15  and  C_16
REMARK    7  A    between atoms: C_16  and  N_17
REMARK    8  A    between atoms: C_18  and  C_20
REMARK                            x       y       z     vdW  Elec       q    Type
REMARK                         _______ _______ _______ _____ _____    ______ ____
ROOT
ATOM      1  C   UNL     1      45.800   7.423  11.868  0.00  0.00    +0.000 A 
ATOM      2  C   UNL     1      45.585   8.429  12.820  0.00  0.00    +0.000 A 
ATOM      3  C   UNL     1      46.630   8.885  13.636  0.00  0.00    +0.000 A 
ATOM      4  C   UNL     1      47.924   8.362  13.504  0.00  0.00    +0.000 A 
ATOM      5  C   UNL     1      48.139   7.354  12.553  0.00  0.00    +0.000 A 
ATOM      6  C   UNL     1      47.093   6.896  11.739  0.00  0.00    +0.000 A 
ENDROOT
BRANCH   1   7
ATOM      7  C   UNL     1      44.672   6.938  10.987  0.00  0.00    +0.000 C 
BRANCH   7  10
ATOM      8  C   UNL     1      44.580   4.573  10.277  0.00  0.00    +0.000 C 
ATOM      9  O   UNL     1      43.752   4.264  11.128  0.00  0.00    +0.000 OA
ATOM     10  N   UNL     1      45.097   5.847  10.140  0.00  0.00    +0.000 N 
ATOM     11  H   UNL     1      45.569   6.087   9.278  0.00  0.00    +0.000 HD
BRANCH   8  16
ATOM     12  C   UNL     1      46.202   3.083   7.187  0.00  0.00    +0.000 A 
ATOM     13  C   UNL     1      46.069   1.716   7.447  0.00  0.00    +0.000 A 
ATOM     14  C   UNL     1      45.417   1.280   8.603  0.00  0.00    +0.000 A 
ATOM     15  C   UNL     1      44.915   2.206   9.516  0.00  0.00    +0.000 A 
ATOM     16  C   UNL     1      45.068   3.577   9.281  0.00  0.00    +0.000 A 
ATOM     17  C   UNL     1      45.687   4.012   8.100  0.00  0.00    +0.000 A 
BRANCH  12  19
ATOM     18  C   UNL     1      47.531   2.716   5.245  0.00  0.00    +0.000 C 
ATOM     19  O   UNL     1      46.820   3.619   6.088  0.00  0.00    +0.000 OA
ENDBRANCH  12  19
ENDBRANCH   8  16
ENDBRANCH   7  10
ENDBRANCH   1   7
BRANCH   4  20
ATOM     20  C   UNL     1      49.054   8.846  14.381  0.00  0.00    +0.000 C 
BRANCH  20  21
ATOM     21  N   UNL     1      49.203   8.025  15.557  0.00  0.00    +0.000 N 
ATOM     22  C   UNL     1      48.629   8.371  16.756  0.00  0.00    +0.000 C 
ATOM     23  O   UNL     1      47.930   9.373  16.880  0.00  0.00    +0.000 OA
ATOM     24  H   UNL     1      49.957   7.347  15.549  0.00  0.00    +0.000 HD
BRANCH  22  25
ATOM     25  C   UNL     1      48.843   7.442  17.876  0.00  0.00    +0.000 A 
ATOM     26  C   UNL     1      49.210   7.931  19.123  0.00  0.00    +0.000 A 
ATOM     27  S   UNL     1      49.366   6.720  20.316  0.00  0.00    +0.000 S 
ATOM     28  C   UNL     1      49.004   5.492  19.195  0.00  0.00    +0.000 A 
ATOM     29  N   UNL     1      48.998   4.184  19.566  0.00  0.00    +0.000 NA
ATOM     30  C   UNL     1      48.742   3.358  18.607  0.00  0.00    +0.000 A 
ATOM     31  N   UNL     1      48.483   3.723  17.311  0.00  0.00    +0.000 N 
ATOM     32  C   UNL     1      48.439   5.033  16.899  0.00  0.00    +0.000 A 
ATOM     33  O   UNL     1      48.144   5.328  15.745  0.00  0.00    +0.000 OA
ATOM     34  C   UNL     1      48.742   6.001  17.935  0.00  0.00    +0.000 A 
ATOM     35  H   UNL     1      48.275   3.029  16.609  0.00  0.00    +0.000 HD
ENDBRANCH  22  25
ENDBRANCH  20  21
ENDBRANCH   4  20
TORSDOF 7
ENDMDL
MODEL 5
REMARK VINA RESULT:    -7.009      2.309      3.337
REMARK INTER + INTRA:         -10.973
REMARK INTER:                  -9.821
REMARK INTRA:                  -1.151
REMARK UNBOUND:                -1.096
REMARK  Name = 
REMARK  8 active torsions:
REMARK  status: ('A' for Active; 'I' for Inactive)
REMARK    1  A    between atoms: C_1  and  O_2
REMARK    2  A    between atoms: O_2  and  C_3
REMARK    3  A    between atoms: C_7  and  C_8
REMARK    4  A    between atoms: N_10  and  C_11
REMARK    5  A    between atoms: C_11  and  C_12
REMARK    6  A    between atoms: C_15  and  C_16
REMARK    7  A    between atoms: C_16  and  N_17
REMARK    8  A    between atoms: C_18  and  C_20
REMARK                            x       y       z     vdW  Elec       q    Type
REMARK                         _______ _______ _______ _____ _____    ______ ____
ROOT
ATOM      1  C   UNL     1      46.294   7.706  12.333  0.00  0.00    +0.000 A 
ATOM      2  C   UNL     1      46.325   8.691  13.330  0.00  0.00    +0.000 A 
ATOM      3  C   UNL     1      47.451   8.852  14.150  0.00  0.00    +0.000 A 
ATOM      4  C   UNL     1      48.585   8.046  13.978  0.00  0.00    +0.000 A 
ATOM      5  C   UNL     1      48.554   7.060  12.982  0.00  0.00    +0.000 A 
ATOM      6  C   UNL     1      47.426   6.897  12.164  0.00  0.00    +0.000 A 
ENDROOT
BRANCH   1   7
ATOM      7  C   UNL     1      45.081   7.540  11.447  0.00  0.00    +0.000 C 
BRANCH   7  10
ATOM      8  C   UNL     1      44.731   5.163  10.873  0.00  0.00    +0.000 C 
ATOM      9  O   UNL     1      44.153   4.908  11.924  0.00  0.00    +0.000 OA
ATOM     10  N   UNL     1      45.230   6.412  10.557  0.00  0.00    +0.000 N 
ATOM     11  H   UNL     1      45.459   6.611   9.592  0.00  0.00    +0.000 HD
BRANCH   8  16
ATOM     12  C   UNL     1      45.750   3.465   7.635  0.00  0.00    +0.000 A 
ATOM     13  C   UNL     1      45.313   2.159   7.868  0.00  0.00    +0.000 A 
ATOM     14  C   UNL     1      44.651   1.840   9.056  0.00  0.00    +0.000 A 
ATOM     15  C   UNL     1      44.443   2.818  10.027  0.00  0.00    +0.000 A 
ATOM     16  C   UNL     1      44.902   4.123   9.818  0.00  0.00    +0.000 A 
ATOM     17  C   UNL     1      45.531   4.450   8.607  0.00  0.00    +0.000 A 
BRANCH  12  19
ATOM     18  C   UNL     1      46.951   2.876   5.665  0.00  0.00    +0.000 C 
ATOM     19  O   UNL     1      46.406   3.887   6.509  0.00  0.00    +0.000 OA
ENDBRANCH  12  19
ENDBRANCH   8  16
ENDBRANCH   7  10
ENDBRANCH   1   7
BRANCH   4  20
ATOM     20  C   UNL     1      49.800   8.212  14.859  0.00  0.00    +0.000 C 
BRANCH  20  21
ATOM     21  N   UNL     1      50.213   6.956  15.435  0.00  0.00    +0.000 N 
ATOM     22  C   UNL     1      49.702   6.506  16.628  0.00  0.00    +0.000 C 
ATOM     23  O   UNL     1      48.842   7.127  17.245  0.00  0.00    +0.000 OA
ATOM     24  H   UNL     1      51.077   6.556  15.087  0.00  0.00    +0.000 HD
BRANCH  22  25
ATOM     25  C   UNL     1      50.194   5.203  17.100  0.00  0.00    +0.000 A 
ATOM     26  C   UNL     1      49.298   4.170  17.345  0.00  0.00    +0.000 A 
ATOM     27  S   UNL     1      50.045   2.716  17.838  0.00  0.00    +0.000 S 
ATOM     28  C   UNL     1      51.588   3.431  17.797  0.00  0.00    +0.000 A 
ATOM     29  N   UNL     1      52.697   2.725  18.146  0.00  0.00    +0.000 NA
ATOM     30  C   UNL     1      53.796   3.402  18.104  0.00  0.00    +0.000 A 
ATOM     31  N   UNL     1      53.887   4.719  17.735  0.00  0.00    +0.000 N 
ATOM     32  C   UNL     1      52.801   5.460  17.336  0.00  0.00    +0.000 A 
ATOM     33  O   UNL     1      52.926   6.619  16.954  0.00  0.00    +0.000 OA
ATOM     34  C   UNL     1      51.537   4.752  17.388  0.00  0.00    +0.000 A 
ATOM     35  H   UNL     1      54.780   5.188  17.707  0.00  0.00    +0.000 HD
ENDBRANCH  22  25
ENDBRANCH  20  21
ENDBRANCH   4  20
TORSDOF 7
ENDMDL
MODEL 6
REMARK VINA RESULT:    -6.921      4.321      7.371
REMARK INTER + INTRA:         -10.849
REMARK INTER:                  -9.816
REMARK INTRA:                  -1.033
REMARK UNBOUND:                -1.096
REMARK  Name = 
REMARK  8 active torsions:
REMARK  status: ('A' for Active; 'I' for Inactive)
REMARK    1  A    between atoms: C_1  and  O_2
REMARK    2  A    between atoms: O_2  and  C_3
REMARK    3  A    between atoms: C_7  and  C_8
REMARK    4  A    between atoms: N_10  and  C_11
REMARK    5  A    between atoms: C_11  and  C_12
REMARK    6  A    between atoms: C_15  and  C_16
REMARK    7  A    between atoms: C_16  and  N_17
REMARK    8  A    between atoms: C_18  and  C_20
REMARK                            x       y       z     vdW  Elec       q    Type
REMARK                         _______ _______ _______ _____ _____    ______ ____
ROOT
ATOM      1  C   UNL     1      44.651   8.210  11.592  0.00  0.00    +0.000 A 
ATOM      2  C   UNL     1      45.836   8.208  12.339  0.00  0.00    +0.000 A 
ATOM      3  C   UNL     1      46.286   7.043  12.976  0.00  0.00    +0.000 A 
ATOM      4  C   UNL     1      45.572   5.842  12.861  0.00  0.00    +0.000 A 
ATOM      5  C   UNL     1      44.385   5.843  12.115  0.00  0.00    +0.000 A 
ATOM      6  C   UNL     1      43.934   7.010  11.481  0.00  0.00    +0.000 A 
ENDROOT
BRANCH   1   7
ATOM      7  C   UNL     1      44.172   9.467  10.902  0.00  0.00    +0.000 C 
BRANCH   7  10
ATOM      8  C   UNL     1      41.955  10.516  10.609  0.00  0.00    +0.000 C 
ATOM      9  O   UNL     1      42.144  10.779   9.425  0.00  0.00    +0.000 OA
ATOM     10  N   UNL     1      42.889   9.892  11.413  0.00  0.00    +0.000 N 
ATOM     11  H   UNL     1      42.580   9.484  12.285  0.00  0.00    +0.000 HD
BRANCH   8  16
ATOM     12  C   UNL     1      38.236  10.578  11.361  0.00  0.00    +0.000 A 
ATOM     13  C   UNL     1      38.214  11.325  12.541  0.00  0.00    +0.000 A 
ATOM     14  C   UNL     1      39.398  11.843  13.068  0.00  0.00    +0.000 A 
ATOM     15  C   UNL     1      40.614  11.599  12.433  0.00  0.00    +0.000 A 
ATOM     16  C   UNL     1      40.654  10.827  11.266  0.00  0.00    +0.000 A 
ATOM     17  C   UNL     1      39.457  10.342  10.717  0.00  0.00    +0.000 A 
BRANCH  12  19
ATOM     18  C   UNL     1      36.178   9.405  11.610  0.00  0.00    +0.000 C 
ATOM     19  O   UNL     1      37.137  10.025  10.757  0.00  0.00    +0.000 OA
ENDBRANCH  12  19
ENDBRANCH   8  16
ENDBRANCH   7  10
ENDBRANCH   1   7
BRANCH   4  20
ATOM     20  C   UNL     1      46.049   4.583  13.546  0.00  0.00    +0.000 C 
BRANCH  20  21
ATOM     21  N   UNL     1      46.694   4.874  14.802  0.00  0.00    +0.000 N 
ATOM     22  C   UNL     1      47.483   3.948  15.440  0.00  0.00    +0.000 C 
ATOM     23  O   UNL     1      47.711   2.842  14.958  0.00  0.00    +0.000 OA
ATOM     24  H   UNL     1      46.334   5.661  15.330  0.00  0.00    +0.000 HD
BRANCH  22  25
ATOM     25  C   UNL     1      48.097   4.373  16.707  0.00  0.00    +0.000 A 
ATOM     26  C   UNL     1      47.838   3.668  17.875  0.00  0.00    +0.000 A 
ATOM     27  S   UNL     1      48.671   4.268  19.239  0.00  0.00    +0.000 S 
ATOM     28  C   UNL     1      49.363   5.528  18.329  0.00  0.00    +0.000 A 
ATOM     29  N   UNL     1      50.179   6.447  18.912  0.00  0.00    +0.000 NA
ATOM     30  C   UNL     1      50.604   7.367  18.112  0.00  0.00    +0.000 A 
ATOM     31  N   UNL     1      50.294   7.446  16.779  0.00  0.00    +0.000 N 
ATOM     32  C   UNL     1      49.508   6.519  16.139  0.00  0.00    +0.000 A 
ATOM     33  O   UNL     1      49.300   6.585  14.931  0.00  0.00    +0.000 OA
ATOM     34  C   UNL     1      48.985   5.476  16.999  0.00  0.00    +0.000 A 
ATOM     35  H   UNL     1      50.672   8.183  16.203  0.00  0.00    +0.000 HD
ENDBRANCH  22  25
ENDBRANCH  20  21
ENDBRANCH   4  20
TORSDOF 7
ENDMDL
MODEL 7
REMARK VINA RESULT:    -6.778      2.184      3.209
REMARK INTER + INTRA:         -10.647
REMARK INTER:                  -9.556
REMARK INTRA:                  -1.091
REMARK UNBOUND:                -1.096
REMARK  Name = 
REMARK  8 active torsions:
REMARK  status: ('A' for Active; 'I' for Inactive)
REMARK    1  A    between atoms: C_1  and  O_2
REMARK    2  A    between atoms: O_2  and  C_3
REMARK    3  A    between atoms: C_7  and  C_8
REMARK    4  A    between atoms: N_10  and  C_11
REMARK    5  A    between atoms: C_11  and  C_12
REMARK    6  A    between atoms: C_15  and  C_16
REMARK    7  A    between atoms: C_16  and  N_17
REMARK    8  A    between atoms: C_18  and  C_20
REMARK                            x       y       z     vdW  Elec       q    Type
REMARK                         _______ _______ _______ _____ _____    ______ ____
ROOT
ATOM      1  C   UNL     1      47.110   7.925  12.792  0.00  0.00    +0.000 A 
ATOM      2  C   UNL     1      47.236   8.593  14.018  0.00  0.00    +0.000 A 
ATOM      3  C   UNL     1      48.452   8.596  14.716  0.00  0.00    +0.000 A 
ATOM      4  C   UNL     1      49.581   7.950  14.193  0.00  0.00    +0.000 A 
ATOM      5  C   UNL     1      49.455   7.281  12.967  0.00  0.00    +0.000 A 
ATOM      6  C   UNL     1      48.237   7.275  12.271  0.00  0.00    +0.000 A 
ENDROOT
BRANCH   1   7
ATOM      7  C   UNL     1      45.798   7.929  12.041  0.00  0.00    +0.000 C 
BRANCH   7  10
ATOM      8  C   UNL     1      45.054   5.636  11.498  0.00  0.00    +0.000 C 
ATOM      9  O   UNL     1      44.535   5.456  12.595  0.00  0.00    +0.000 OA
ATOM     10  N   UNL     1      45.704   6.801  11.141  0.00  0.00    +0.000 N 
ATOM     11  H   UNL     1      45.879   6.977  10.161  0.00  0.00    +0.000 HD
BRANCH   8  16
ATOM     12  C   UNL     1      45.554   3.838   8.193  0.00  0.00    +0.000 A 
ATOM     13  C   UNL     1      44.932   2.615   8.457  0.00  0.00    +0.000 A 
ATOM     14  C   UNL     1      44.317   2.390   9.690  0.00  0.00    +0.000 A 
ATOM     15  C   UNL     1      44.337   3.377  10.675  0.00  0.00    +0.000 A 
ATOM     16  C   UNL     1      44.981   4.595  10.433  0.00  0.00    +0.000 A 
ATOM     17  C   UNL     1      45.564   4.833   9.180  0.00  0.00    +0.000 A 
BRANCH  12  19
ATOM     18  C   UNL     1      46.647   3.084   6.218  0.00  0.00    +0.000 C 
ATOM     19  O   UNL     1      46.185   4.165   7.022  0.00  0.00    +0.000 OA
ENDBRANCH  12  19
ENDBRANCH   8  16
ENDBRANCH   7  10
ENDBRANCH   1   7
BRANCH   4  20
ATOM     20  C   UNL     1      50.893   7.947  14.939  0.00  0.00    +0.000 C 
BRANCH  20  21
ATOM     21  N   UNL     1      50.693   7.902  16.366  0.00  0.00    +0.000 N 
ATOM     22  C   UNL     1      50.564   6.712  17.040  0.00  0.00    +0.000 C 
ATOM     23  O   UNL     1      50.651   5.627  16.472  0.00  0.00    +0.000 OA
ATOM     24  H   UNL     1      50.376   8.757  16.810  0.00  0.00    +0.000 HD
BRANCH  22  25
ATOM     25  C   UNL     1      50.379   6.801  18.496  0.00  0.00    +0.000 A 
ATOM     26  C   UNL     1      51.389   7.322  19.294  0.00  0.00    +0.000 A 
ATOM     27  S   UNL     1      50.986   7.398  20.951  0.00  0.00    +0.000 S 
ATOM     28  C   UNL     1      49.467   6.685  20.670  0.00  0.00    +0.000 A 
ATOM     29  N   UNL     1      48.611   6.431  21.696  0.00  0.00    +0.000 NA
ATOM     30  C   UNL     1      47.510   5.856  21.342  0.00  0.00    +0.000 A 
ATOM     31  N   UNL     1      47.185   5.517  20.055  0.00  0.00    +0.000 N 
ATOM     32  C   UNL     1      48.000   5.790  18.983  0.00  0.00    +0.000 A 
ATOM     33  O   UNL     1      47.651   5.529  17.835  0.00  0.00    +0.000 OA
ATOM     34  C   UNL     1      49.260   6.417  19.328  0.00  0.00    +0.000 A 
ATOM     35  H   UNL     1      46.300   5.082  19.841  0.00  0.00    +0.000 HD
ENDBRANCH  22  25
ENDBRANCH  20  21
ENDBRANCH   4  20
TORSDOF 7
ENDMDL
MODEL 8
REMARK VINA RESULT:    -6.738      2.677      4.160
REMARK INTER + INTRA:         -10.591
REMARK INTER:                  -9.700
REMARK INTRA:                  -0.891
REMARK UNBOUND:                -1.096
REMARK  Name = 
REMARK  8 active torsions:
REMARK  status: ('A' for Active; 'I' for Inactive)
REMARK    1  A    between atoms: C_1  and  O_2
REMARK    2  A    between atoms: O_2  and  C_3
REMARK    3  A    between atoms: C_7  and  C_8
REMARK    4  A    between atoms: N_10  and  C_11
REMARK    5  A    between atoms: C_11  and  C_12
REMARK    6  A    between atoms: C_15  and  C_16
REMARK    7  A    between atoms: C_16  and  N_17
REMARK    8  A    between atoms: C_18  and  C_20
REMARK                            x       y       z     vdW  Elec       q    Type
REMARK                         _______ _______ _______ _____ _____    ______ ____
ROOT
ATOM      1  C   UNL     1      48.224   7.663  13.809  0.00  0.00    +0.000 A 
ATOM      2  C   UNL     1      48.474   8.703  14.714  0.00  0.00    +0.000 A 
ATOM      3  C   UNL     1      48.659   8.443  16.079  0.00  0.00    +0.000 A 
ATOM      4  C   UNL     1      48.623   7.131  16.570  0.00  0.00    +0.000 A 
ATOM      5  C   UNL     1      48.372   6.089  15.666  0.00  0.00    +0.000 A 
ATOM      6  C   UNL     1      48.184   6.351  14.301  0.00  0.00    +0.000 A 
ENDROOT
BRANCH   1   7
ATOM      7  C   UNL     1      48.031   7.947  12.337  0.00  0.00    +0.000 C 
BRANCH   7  10
ATOM      8  C   UNL     1      45.979   6.733  11.688  0.00  0.00    +0.000 C 
ATOM      9  O   UNL     1      45.234   7.512  12.273  0.00  0.00    +0.000 OA
ATOM     10  N   UNL     1      47.355   6.855  11.674  0.00  0.00    +0.000 N 
ATOM     11  H   UNL     1      47.879   6.342  10.978  0.00  0.00    +0.000 HD
BRANCH   8  16
ATOM     12  C   UNL     1      45.345   4.327   8.823  0.00  0.00    +0.000 A 
ATOM     13  C   UNL     1      44.486   3.408   9.430  0.00  0.00    +0.000 A 
ATOM     14  C   UNL     1      44.081   3.591  10.754  0.00  0.00    +0.000 A 
ATOM     15  C   UNL     1      44.549   4.681  11.486  0.00  0.00    +0.000 A 
ATOM     16  C   UNL     1      45.433   5.593  10.898  0.00  0.00    +0.000 A 
ATOM     17  C   UNL     1      45.806   5.428   9.556  0.00  0.00    +0.000 A 
BRANCH  12  19
ATOM     18  C   UNL     1      46.816   3.277   7.273  0.00  0.00    +0.000 C 
ATOM     19  O   UNL     1      45.804   4.245   7.535  0.00  0.00    +0.000 OA
ENDBRANCH  12  19
ENDBRANCH   8  16
ENDBRANCH   7  10
ENDBRANCH   1   7
BRANCH   4  20
ATOM     20  C   UNL     1      48.819   6.842  18.040  0.00  0.00    +0.000 C 
BRANCH  20  21
ATOM     21  N   UNL     1      49.785   5.793  18.250  0.00  0.00    +0.000 N 
ATOM     22  C   UNL     1      51.132   6.007  18.084  0.00  0.00    +0.000 C 
ATOM     23  O   UNL     1      51.586   7.108  17.786  0.00  0.00    +0.000 OA
ATOM     24  H   UNL     1      49.434   4.842  18.251  0.00  0.00    +0.000 HD
BRANCH  22  25
ATOM     25  C   UNL     1      52.014   4.859  18.344  0.00  0.00    +0.000 A 
ATOM     26  C   UNL     1      53.229   5.049  18.988  0.00  0.00    +0.000 A 
ATOM     27  S   UNL     1      54.100   3.605  19.252  0.00  0.00    +0.000 S 
ATOM     28  C   UNL     1      52.910   2.680  18.464  0.00  0.00    +0.000 A 
ATOM     29  N   UNL     1      53.054   1.336  18.312  0.00  0.00    +0.000 NA
ATOM     30  C   UNL     1      52.093   0.766  17.664  0.00  0.00    +0.000 A 
ATOM     31  N   UNL     1      50.997   1.417  17.162  0.00  0.00    +0.000 N 
ATOM     32  C   UNL     1      50.789   2.765  17.327  0.00  0.00    +0.000 A 
ATOM     33  O   UNL     1      49.766   3.306  16.918  0.00  0.00    +0.000 OA
ATOM     34  C   UNL     1      51.851   3.458  18.029  0.00  0.00    +0.000 A 
ATOM     35  H   UNL     1      50.271   0.911  16.677  0.00  0.00    +0.000 HD
ENDBRANCH  22  25
ENDBRANCH  20  21
ENDBRANCH   4  20
TORSDOF 7
ENDMDL
MODEL 9
REMARK VINA RESULT:    -6.482      5.885      7.970
REMARK INTER + INTRA:         -10.231
REMARK INTER:                  -9.175
REMARK INTRA:                  -1.056
REMARK UNBOUND:                -1.096
REMARK  Name = 
REMARK  8 active torsions:
REMARK  status: ('A' for Active; 'I' for Inactive)
REMARK    1  A    between atoms: C_1  and  O_2
REMARK    2  A    between atoms: O_2  and  C_3
REMARK    3  A    between atoms: C_7  and  C_8
REMARK    4  A    between atoms: N_10  and  C_11
REMARK    5  A    between atoms: C_11  and  C_12
REMARK    6  A    between atoms: C_15  and  C_16
REMARK    7  A    between atoms: C_16  and  N_17
REMARK    8  A    between atoms: C_18  and  C_20
REMARK                            x       y       z     vdW  Elec       q    Type
REMARK                         _______ _______ _______ _____ _____    ______ ____
ROOT
ATOM      1  C   UNL     1      47.952   8.899  12.168  0.00  0.00    +0.000 A 
ATOM      2  C   UNL     1      48.594   7.711  11.792  0.00  0.00    +0.000 A 
ATOM      3  C   UNL     1      49.962   7.697  11.486  0.00  0.00    +0.000 A 
ATOM      4  C   UNL     1      50.728   8.868  11.570  0.00  0.00    +0.000 A 
ATOM      5  C   UNL     1      50.086  10.057  11.945  0.00  0.00    +0.000 A 
ATOM      6  C   UNL     1      48.717  10.071  12.249  0.00  0.00    +0.000 A 
ENDROOT
BRANCH   1   7
ATOM      7  C   UNL     1      46.478   8.909  12.504  0.00  0.00    +0.000 C 
BRANCH   7  10
ATOM      8  C   UNL     1      44.789   7.271  11.752  0.00  0.00    +0.000 C 
ATOM      9  O   UNL     1      44.156   8.097  11.102  0.00  0.00    +0.000 OA
ATOM     10  N   UNL     1      45.924   7.574  12.478  0.00  0.00    +0.000 N 
ATOM     11  H   UNL     1      46.526   6.817  12.772  0.00  0.00    +0.000 HD
BRANCH   8  16
ATOM     12  C   UNL     1      44.325   3.657  10.688  0.00  0.00    +0.000 A 
ATOM     13  C   UNL     1      43.717   3.119  11.825  0.00  0.00    +0.000 A 
ATOM     14  C   UNL     1      43.421   3.936  12.919  0.00  0.00    +0.000 A 
ATOM     15  C   UNL     1      43.750   5.290  12.891  0.00  0.00    +0.000 A 
ATOM     16  C   UNL     1      44.386   5.835  11.770  0.00  0.00    +0.000 A 
ATOM     17  C   UNL     1      44.646   5.020  10.658  0.00  0.00    +0.000 A 
BRANCH  12  19
ATOM     18  C   UNL     1      44.704   3.676   8.338  0.00  0.00    +0.000 C 
ATOM     19  O   UNL     1      44.658   2.950   9.563  0.00  0.00    +0.000 OA
ENDBRANCH  12  19
ENDBRANCH   8  16
ENDBRANCH   7  10
ENDBRANCH   1   7
BRANCH   4  20
ATOM     20  C   UNL     1      52.202   8.862  11.240  0.00  0.00    +0.000 C 
BRANCH  20  21
ATOM     21  N   UNL     1      52.449   8.316   9.928  0.00  0.00    +0.000 N 
ATOM     22  C   UNL     1      53.562   8.660   9.201  0.00  0.00    +0.000 C 
ATOM     23  O   UNL     1      54.422   9.419   9.642  0.00  0.00    +0.000 OA
ATOM     24  H   UNL     1      51.659   7.897   9.451  0.00  0.00    +0.000 HD
BRANCH  22  25
ATOM     25  C   UNL     1      53.706   8.023   7.883  0.00  0.00    +0.000 A 
ATOM     26  C   UNL     1      53.765   8.804   6.736  0.00  0.00    +0.000 A 
ATOM     27  S   UNL     1      53.984   7.903   5.303  0.00  0.00    +0.000 S 
ATOM     28  C   UNL     1      53.949   6.432   6.157  0.00  0.00    +0.000 A 
ATOM     29  N   UNL     1      54.056   5.242   5.508  0.00  0.00    +0.000 NA
ATOM     30  C   UNL     1      53.978   4.206   6.275  0.00  0.00    +0.000 A 
ATOM     31  N   UNL     1      53.812   4.254   7.635  0.00  0.00    +0.000 N 
ATOM     32  C   UNL     1      53.741   5.432   8.338  0.00  0.00    +0.000 A 
ATOM     33  O   UNL     1      53.654   5.439   9.562  0.00  0.00    +0.000 OA
ATOM     34  C   UNL     1      53.800   6.627   7.519  0.00  0.00    +0.000 A 
ATOM     35  H   UNL     1      53.774   3.407   8.182  0.00  0.00    +0.000 HD
ENDBRANCH  22  25
ENDBRANCH  20  21
ENDBRANCH   4  20
TORSDOF 7
ENDMDL
