MODEL 1
REMARK VINA RESULT:    -8.478      0.000      0.000
REMARK INTER + INTRA:         -13.231
REMARK INTER:                 -11.947
REMARK INTRA:                  -1.284
REMARK UNBOUND:                -1.284
REMARK  Name = 
REMARK  8 active torsions:
REMARK  status: ('A' for Active; 'I' for Inactive)
REMARK    1  A    between atoms: C_1  and  C_2
REMARK    2  A    between atoms: C_2  and  N_3
REMARK    3  A    between atoms: C_2  and  C_25
REMARK    4  A    between atoms: N_3  and  C_4
REMARK    5  A    between atoms: C_4  and  C_5
REMARK    6  A    between atoms: C_8  and  C_9
REMARK    7  A    between atoms: C_9  and  N_10
REMARK    8  A    between atoms: C_11  and  C_13
REMARK                            x       y       z     vdW  Elec       q    Type
REMARK                         _______ _______ _______ _____ _____    ______ ____
ROOT
ATOM      1  C   UNL     1      44.583   5.372  10.872  0.00  0.00    +0.000 A 
ATOM      2  C   UNL     1      45.850   5.785  10.426  0.00  0.00    +0.000 A 
ATOM      3  C   UNL     1      46.629   6.658  11.190  0.00  0.00    +0.000 A 
ATOM      4  C   UNL     1      46.164   7.130  12.423  0.00  0.00    +0.000 A 
ATOM      5  C   UNL     1      44.880   6.755  12.846  0.00  0.00    +0.000 A 
ATOM      6  C   UNL     1      44.101   5.879  12.084  0.00  0.00    +0.000 A 
ENDROOT
BRANCH   1   7
ATOM      7  C   UNL     1      43.773   4.381  10.062  0.00  0.00    +0.000 C 
BRANCH   7   8
ATOM      8  N   UNL     1      44.538   3.959   8.894  0.00  0.00    +0.000 NA
ATOM      9  H   UNL     1      45.224   4.684   8.681  0.00  0.00    +0.000 HD
BRANCH   8  11
ATOM     10  C   UNL     1      44.293   1.476   9.158  0.00  0.00    +0.000 C 
ATOM     11  C   UNL     1      45.238   2.677   9.020  0.00  0.00    +0.000 C 
BRANCH  11  12
ATOM     12  C   UNL     1      46.120   2.509   7.796  0.00  0.00    +0.000 A 
ATOM     13  C   UNL     1      46.186   3.492   6.798  0.00  0.00    +0.000 A 
ATOM     14  C   UNL     1      47.053   3.337   5.722  0.00  0.00    +0.000 A 
ATOM     15  C   UNL     1      47.832   2.194   5.673  0.00  0.00    +0.000 A 
ATOM     16  N   UNL     1      47.792   1.217   6.604  0.00  0.00    +0.000 NA
ATOM     17  C   UNL     1      46.942   1.398   7.642  0.00  0.00    +0.000 A 
ENDBRANCH  11  12
ENDBRANCH   8  11
ENDBRANCH   7   8
ENDBRANCH   1   7
BRANCH   4  18
ATOM     18  C   UNL     1      47.006   8.045  13.275  0.00  0.00    +0.000 C 
BRANCH  18  19
ATOM     19  N   UNL     1      47.441   7.381  14.474  0.00  0.00    +0.000 N 
ATOM     20  C   UNL     1      48.685   6.807  14.568  0.00  0.00    +0.000 C 
ATOM     21  O   UNL     1      49.498   6.852  13.650  0.00  0.00    +0.000 OA
ATOM     22  H   UNL     1      46.721   7.116  15.136  0.00  0.00    +0.000 HD
BRANCH  20  23
ATOM     23  C   UNL     1      49.014   6.190  15.860  0.00  0.00    +0.000 A 
ATOM     24  C   UNL     1      50.047   6.709  16.629  0.00  0.00    +0.000 A 
ATOM     25  S   UNL     1      50.260   5.905  18.119  0.00  0.00    +0.000 S 
ATOM     26  C   UNL     1      49.014   4.801  17.765  0.00  0.00    +0.000 A 
ATOM     27  N   UNL     1      48.694   3.804  18.632  0.00  0.00    +0.000 NA
ATOM     28  C   UNL     1      47.750   3.023  18.223  0.00  0.00    +0.000 A 
ATOM     29  N   UNL     1      47.089   3.155  17.029  0.00  0.00    +0.000 N 
ATOM     30  C   UNL     1      47.355   4.166  16.140  0.00  0.00    +0.000 A 
ATOM     31  O   UNL     1      46.708   4.286  15.105  0.00  0.00    +0.000 OA
ATOM     32  C   UNL     1      48.427   5.060  16.540  0.00  0.00    +0.000 A 
ATOM     33  H   UNL     1      46.348   2.519  16.773  0.00  0.00    +0.000 HD
ENDBRANCH  20  23
ENDBRANCH  18  19
ENDBRANCH   4  18
TORSDOF 7
ENDMDL
MODEL 2
REMARK VINA RESULT:    -7.998      2.007      2.312
REMARK INTER + INTRA:         -12.554
REMARK INTER:                 -11.637
REMARK INTRA:                  -0.917
REMARK UNBOUND:                -1.284
REMARK  Name = 
REMARK  8 active torsions:
REMARK  status: ('A' for Active; 'I' for Inactive)
REMARK    1  A    between atoms: C_1  and  C_2
REMARK    2  A    between atoms: C_2  and  N_3
REMARK    3  A    between atoms: C_2  and  C_25
REMARK    4  A    between atoms: N_3  and  C_4
REMARK    5  A    between atoms: C_4  and  C_5
REMARK    6  A    between atoms: C_8  and  C_9
REMARK    7  A    between atoms: C_9  and  N_10
REMARK    8  A    between atoms: C_11  and  C_13
REMARK                            x       y       z     vdW  Elec       q    Type
REMARK                         _______ _______ _______ _____ _____    ______ ____
ROOT
ATOM      1  C   UNL     1      45.408   4.326  12.165  0.00  0.00    +0.000 A 
ATOM      2  C   UNL     1      45.701   5.571  11.584  0.00  0.00    +0.000 A 
ATOM      3  C   UNL     1      46.631   6.435  12.168  0.00  0.00    +0.000 A 
ATOM      4  C   UNL     1      47.298   6.069  13.344  0.00  0.00    +0.000 A 
ATOM      5  C   UNL     1      46.971   4.847  13.950  0.00  0.00    +0.000 A 
ATOM      6  C   UNL     1      46.042   3.981  13.364  0.00  0.00    +0.000 A 
ENDROOT
BRANCH   1   7
ATOM      7  C   UNL     1      44.440   3.375  11.490  0.00  0.00    +0.000 C 
BRANCH   7   8
ATOM      8  N   UNL     1      45.130   2.638  10.438  0.00  0.00    +0.000 NA
ATOM      9  H   UNL     1      45.091   1.643  10.666  0.00  0.00    +0.000 HD
BRANCH   8  11
ATOM     10  C   UNL     1      44.092   4.246   8.817  0.00  0.00    +0.000 C 
ATOM     11  C   UNL     1      44.609   2.825   9.081  0.00  0.00    +0.000 C 
BRANCH  11  12
ATOM     12  C   UNL     1      45.722   2.486   8.107  0.00  0.00    +0.000 A 
ATOM     13  C   UNL     1      46.260   3.450   7.242  0.00  0.00    +0.000 A 
ATOM     14  C   UNL     1      47.324   3.123   6.409  0.00  0.00    +0.000 A 
ATOM     15  C   UNL     1      47.820   1.833   6.462  0.00  0.00    +0.000 A 
ATOM     16  N   UNL     1      47.326   0.870   7.269  0.00  0.00    +0.000 NA
ATOM     17  C   UNL     1      46.293   1.219   8.072  0.00  0.00    +0.000 A 
ENDBRANCH  11  12
ENDBRANCH   8  11
ENDBRANCH   7   8
ENDBRANCH   1   7
BRANCH   4  18
ATOM     18  C   UNL     1      48.328   6.974  13.969  0.00  0.00    +0.000 C 
BRANCH  18  19
ATOM     19  N   UNL     1      48.114   7.101  15.385  0.00  0.00    +0.000 N 
ATOM     20  C   UNL     1      49.041   6.654  16.296  0.00  0.00    +0.000 C 
ATOM     21  O   UNL     1      50.105   6.151  15.952  0.00  0.00    +0.000 OA
ATOM     22  H   UNL     1      47.164   7.276  15.691  0.00  0.00    +0.000 HD
BRANCH  20  23
ATOM     23  C   UNL     1      48.712   6.875  17.710  0.00  0.00    +0.000 A 
ATOM     24  C   UNL     1      48.423   8.157  18.159  0.00  0.00    +0.000 A 
ATOM     25  S   UNL     1      48.016   8.226  19.814  0.00  0.00    +0.000 S 
ATOM     26  C   UNL     1      48.264   6.553  20.002  0.00  0.00    +0.000 A 
ATOM     27  N   UNL     1      48.112   5.953  21.213  0.00  0.00    +0.000 NA
ATOM     28  C   UNL     1      48.360   4.686  21.216  0.00  0.00    +0.000 A 
ATOM     29  N   UNL     1      48.737   3.961  20.116  0.00  0.00    +0.000 N 
ATOM     30  C   UNL     1      48.870   4.517  18.869  0.00  0.00    +0.000 A 
ATOM     31  O   UNL     1      49.158   3.829  17.895  0.00  0.00    +0.000 OA
ATOM     32  C   UNL     1      48.627   5.947  18.813  0.00  0.00    +0.000 A 
ATOM     33  H   UNL     1      48.903   2.968  20.181  0.00  0.00    +0.000 HD
ENDBRANCH  20  23
ENDBRANCH  18  19
ENDBRANCH   4  18
TORSDOF 7
ENDMDL
MODEL 3
REMARK VINA RESULT:    -7.796      2.516      3.024
REMARK INTER + INTRA:         -12.270
REMARK INTER:                 -11.115
REMARK INTRA:                  -1.155
REMARK UNBOUND:                -1.284
REMARK  Name = 
REMARK  8 active torsions:
REMARK  status: ('A' for Active; 'I' for Inactive)
REMARK    1  A    between atoms: C_1  and  C_2
REMARK    2  A    between atoms: C_2  and  N_3
REMARK    3  A    between atoms: C_2  and  C_25
REMARK    4  A    between atoms: N_3  and  C_4
REMARK    5  A    between atoms: C_4  and  C_5
REMARK    6  A    between atoms: C_8  and  C_9
REMARK    7  A    between atoms: C_9  and  N_10
REMARK    8  A    between atoms: C_11  and  C_13
REMARK                            x       y       z     vdW  Elec       q    Type
REMARK                         _______ _______ _______ _____ _____    ______ ____
ROOT
ATOM      1  C   UNL     1      45.459   4.276  12.148  0.00  0.00    +0.000 A 
ATOM      2  C   UNL     1      46.163   3.800  13.267  0.00  0.00    +0.000 A 
ATOM      3  C   UNL     1      47.080   4.614  13.937  0.00  0.00    +0.000 A 
ATOM      4  C   UNL     1      47.308   5.928  13.509  0.00  0.00    +0.000 A 
ATOM      5  C   UNL     1      46.640   6.387  12.364  0.00  0.00    +0.000 A 
ATOM      6  C   UNL     1      45.720   5.574  11.695  0.00  0.00    +0.000 A 
ENDROOT
BRANCH   1   7
ATOM      7  C   UNL     1      44.425   3.403  11.466  0.00  0.00    +0.000 C 
BRANCH   7   8
ATOM      8  N   UNL     1      45.069   2.591  10.440  0.00  0.00    +0.000 NA
ATOM      9  H   UNL     1      44.932   1.607  10.677  0.00  0.00    +0.000 HD
BRANCH   8  11
ATOM     10  C   UNL     1      44.145   4.249   8.801  0.00  0.00    +0.000 C 
ATOM     11  C   UNL     1      44.602   2.809   9.068  0.00  0.00    +0.000 C 
BRANCH  11  12
ATOM     12  C   UNL     1      45.736   2.440   8.129  0.00  0.00    +0.000 A 
ATOM     13  C   UNL     1      46.352   3.396   7.310  0.00  0.00    +0.000 A 
ATOM     14  C   UNL     1      47.432   3.038   6.511  0.00  0.00    +0.000 A 
ATOM     15  C   UNL     1      47.864   1.725   6.549  0.00  0.00    +0.000 A 
ATOM     16  N   UNL     1      47.293   0.768   7.313  0.00  0.00    +0.000 NA
ATOM     17  C   UNL     1      46.247   1.147   8.084  0.00  0.00    +0.000 A 
ENDBRANCH  11  12
ENDBRANCH   8  11
ENDBRANCH   7   8
ENDBRANCH   1   7
BRANCH   4  18
ATOM     18  C   UNL     1      48.269   6.829  14.241  0.00  0.00    +0.000 C 
BRANCH  18  19
ATOM     19  N   UNL     1      48.119   6.697  15.665  0.00  0.00    +0.000 N 
ATOM     20  C   UNL     1      49.172   6.332  16.468  0.00  0.00    +0.000 C 
ATOM     21  O   UNL     1      50.296   6.127  16.021  0.00  0.00    +0.000 OA
ATOM     22  H   UNL     1      47.173   6.615  16.020  0.00  0.00    +0.000 HD
BRANCH  20  23
ATOM     23  C   UNL     1      48.891   6.266  17.908  0.00  0.00    +0.000 A 
ATOM     24  C   UNL     1      49.176   5.106  18.615  0.00  0.00    +0.000 A 
ATOM     25  S   UNL     1      48.833   5.219  20.283  0.00  0.00    +0.000 S 
ATOM     26  C   UNL     1      48.240   6.806  20.109  0.00  0.00    +0.000 A 
ATOM     27  N   UNL     1      47.748   7.490  21.176  0.00  0.00    +0.000 NA
ATOM     28  C   UNL     1      47.306   8.670  20.895  0.00  0.00    +0.000 A 
ATOM     29  N   UNL     1      47.320   9.233  19.646  0.00  0.00    +0.000 N 
ATOM     30  C   UNL     1      47.839   8.593  18.548  0.00  0.00    +0.000 A 
ATOM     31  O   UNL     1      47.885   9.146  17.454  0.00  0.00    +0.000 OA
ATOM     32  C   UNL     1      48.328   7.251  18.803  0.00  0.00    +0.000 A 
ATOM     33  H   UNL     1      46.973  10.168  19.493  0.00  0.00    +0.000 HD
ENDBRANCH  20  23
ENDBRANCH  18  19
ENDBRANCH   4  18
TORSDOF 7
ENDMDL
MODEL 4
REMARK VINA RESULT:    -7.345      2.811      8.535
REMARK INTER + INTRA:         -11.635
REMARK INTER:                  -9.961
REMARK INTRA:                  -1.674
REMARK UNBOUND:                -1.284
REMARK  Name = 
REMARK  8 active torsions:
REMARK  status: ('A' for Active; 'I' for Inactive)
REMARK    1  A    between atoms: C_1  and  C_2
REMARK    2  A    between atoms: C_2  and  N_3
REMARK    3  A    between atoms: C_2  and  C_25
REMARK    4  A    between atoms: N_3  and  C_4
REMARK    5  A    between atoms: C_4  and  C_5
REMARK    6  A    between atoms: C_8  and  C_9
REMARK    7  A    between atoms: C_9  and  N_10
REMARK    8  A    between atoms: C_11  and  C_13
REMARK                            x       y       z     vdW  Elec       q    Type
REMARK                         _______ _______ _______ _____ _____    ______ ____
ROOT
ATOM      1  C   UNL     1      48.924   7.962  16.086  0.00  0.00    +0.000 A 
ATOM      2  C   UNL     1      48.276   9.056  15.489  0.00  0.00    +0.000 A 
ATOM      3  C   UNL     1      47.864   9.004  14.154  0.00  0.00    +0.000 A 
ATOM      4  C   UNL     1      48.082   7.852  13.389  0.00  0.00    +0.000 A 
ATOM      5  C   UNL     1      48.771   6.778  13.971  0.00  0.00    +0.000 A 
ATOM      6  C   UNL     1      49.181   6.828  15.307  0.00  0.00    +0.000 A 
ENDROOT
BRANCH   1   7
ATOM      7  C   UNL     1      49.314   8.009  17.549  0.00  0.00    +0.000 C 
BRANCH   7   8
ATOM      8  N   UNL     1      48.217   7.505  18.367  0.00  0.00    +0.000 NA
ATOM      9  H   UNL     1      47.442   7.262  17.748  0.00  0.00    +0.000 HD
BRANCH   8  11
ATOM     10  C   UNL     1      47.661   6.250  20.467  0.00  0.00    +0.000 C 
ATOM     11  C   UNL     1      48.528   6.342  19.203  0.00  0.00    +0.000 C 
BRANCH  11  12
ATOM     12  C   UNL     1      48.343   5.098  18.354  0.00  0.00    +0.000 A 
ATOM     13  C   UNL     1      49.408   4.226  18.086  0.00  0.00    +0.000 A 
ATOM     14  C   UNL     1      49.190   3.061  17.361  0.00  0.00    +0.000 A 
ATOM     15  C   UNL     1      47.906   2.800  16.917  0.00  0.00    +0.000 A 
ATOM     16  N   UNL     1      46.854   3.616  17.141  0.00  0.00    +0.000 NA
ATOM     17  C   UNL     1      47.095   4.741  17.854  0.00  0.00    +0.000 A 
ENDBRANCH  11  12
ENDBRANCH   8  11
ENDBRANCH   7   8
ENDBRANCH   1   7
BRANCH   4  18
ATOM     18  C   UNL     1      47.614   7.769  11.959  0.00  0.00    +0.000 C 
BRANCH  18  19
ATOM     19  N   UNL     1      46.908   6.539  11.717  0.00  0.00    +0.000 N 
ATOM     20  C   UNL     1      45.556   6.430  11.940  0.00  0.00    +0.000 C 
ATOM     21  O   UNL     1      44.878   7.376  12.328  0.00  0.00    +0.000 OA
ATOM     22  H   UNL     1      47.467   5.698  11.641  0.00  0.00    +0.000 HD
BRANCH  20  23
ATOM     23  C   UNL     1      44.954   5.129  11.621  0.00  0.00    +0.000 A 
ATOM     24  C   UNL     1      44.248   4.438  12.597  0.00  0.00    +0.000 A 
ATOM     25  S   UNL     1      43.576   2.970  12.043  0.00  0.00    +0.000 S 
ATOM     26  C   UNL     1      44.250   3.181  10.494  0.00  0.00    +0.000 A 
ATOM     27  N   UNL     1      44.078   2.246   9.522  0.00  0.00    +0.000 NA
ATOM     28  C   UNL     1      44.668   2.522   8.406  0.00  0.00    +0.000 A 
ATOM     29  N   UNL     1      45.407   3.652   8.171  0.00  0.00    +0.000 N 
ATOM     30  C   UNL     1      45.578   4.637   9.111  0.00  0.00    +0.000 A 
ATOM     31  O   UNL     1      46.201   5.661   8.850  0.00  0.00    +0.000 OA
ATOM     32  C   UNL     1      44.955   4.367  10.394  0.00  0.00    +0.000 A 
ATOM     33  H   UNL     1      45.831   3.817   7.271  0.00  0.00    +0.000 HD
ENDBRANCH  20  23
ENDBRANCH  18  19
ENDBRANCH   4  18
TORSDOF 7
ENDMDL
MODEL 5
REMARK VINA RESULT:    -7.160      3.179      4.674
REMARK INTER + INTRA:         -11.374
REMARK INTER:                 -10.236
REMARK INTRA:                  -1.138
REMARK UNBOUND:                -1.284
REMARK  Name = 
REMARK  8 active torsions:
REMARK  status: ('A' for Active; 'I' for Inactive)
REMARK    1  A    between atoms: C_1  and  C_2
REMARK    2  A    between atoms: C_2  and  N_3
REMARK    3  A    between atoms: C_2  and  C_25
REMARK    4  A    between atoms: N_3  and  C_4
REMARK    5  A    between atoms: C_4  and  C_5
REMARK    6  A    between atoms: C_8  and  C_9
REMARK    7  A    between atoms: C_9  and  N_10
REMARK    8  A    between atoms: C_11  and  C_13
REMARK                            x       y       z     vdW  Elec       q    Type
REMARK                         _______ _______ _______ _____ _____    ______ ____
ROOT
ATOM      1  C   UNL     1      46.984   4.670  14.382  0.00  0.00    +0.000 A 
ATOM      2  C   UNL     1      47.723   5.853  14.217  0.00  0.00    +0.000 A 
ATOM      3  C   UNL     1      48.487   6.374  15.265  0.00  0.00    +0.000 A 
ATOM      4  C   UNL     1      48.536   5.718  16.501  0.00  0.00    +0.000 A 
ATOM      5  C   UNL     1      47.761   4.563  16.681  0.00  0.00    +0.000 A 
ATOM      6  C   UNL     1      46.999   4.040  15.631  0.00  0.00    +0.000 A 
ENDROOT
BRANCH   1   7
ATOM      7  C   UNL     1      46.207   4.085  13.221  0.00  0.00    +0.000 C 
BRANCH   7   8
ATOM      8  N   UNL     1      45.143   5.003  12.830  0.00  0.00    +0.000 NA
ATOM      9  H   UNL     1      45.560   5.771  12.302  0.00  0.00    +0.000 HD
BRANCH   8  11
ATOM     10  C   UNL     1      42.816   5.316  11.945  0.00  0.00    +0.000 C 
ATOM     11  C   UNL     1      44.061   4.421  12.030  0.00  0.00    +0.000 C 
BRANCH  11  12
ATOM     12  C   UNL     1      44.605   4.152  10.639  0.00  0.00    +0.000 A 
ATOM     13  C   UNL     1      44.345   2.948   9.969  0.00  0.00    +0.000 A 
ATOM     14  C   UNL     1      44.803   2.760   8.670  0.00  0.00    +0.000 A 
ATOM     15  C   UNL     1      45.516   3.787   8.076  0.00  0.00    +0.000 A 
ATOM     16  N   UNL     1      45.799   4.957   8.687  0.00  0.00    +0.000 NA
ATOM     17  C   UNL     1      45.336   5.113   9.950  0.00  0.00    +0.000 A 
ENDBRANCH  11  12
ENDBRANCH   8  11
ENDBRANCH   7   8
ENDBRANCH   1   7
BRANCH   4  18
ATOM     18  C   UNL     1      49.381   6.249  17.631  0.00  0.00    +0.000 C 
BRANCH  18  19
ATOM     19  N   UNL     1      50.383   5.294  18.020  0.00  0.00    +0.000 N 
ATOM     20  C   UNL     1      51.629   5.281  17.440  0.00  0.00    +0.000 C 
ATOM     21  O   UNL     1      51.960   6.095  16.585  0.00  0.00    +0.000 OA
ATOM     22  H   UNL     1      50.063   4.476  18.526  0.00  0.00    +0.000 HD
BRANCH  20  23
ATOM     23  C   UNL     1      52.567   4.274  17.954  0.00  0.00    +0.000 A 
ATOM     24  C   UNL     1      53.740   4.680  18.576  0.00  0.00    +0.000 A 
ATOM     25  S   UNL     1      54.689   3.385  19.155  0.00  0.00    +0.000 S 
ATOM     26  C   UNL     1      53.591   2.235  18.546  0.00  0.00    +0.000 A 
ATOM     27  N   UNL     1      53.826   0.903  18.679  0.00  0.00    +0.000 NA
ATOM     28  C   UNL     1      52.926   0.146  18.146  0.00  0.00    +0.000 A 
ATOM     29  N   UNL     1      51.806   0.600  17.500  0.00  0.00    +0.000 N 
ATOM     30  C   UNL     1      51.510   1.934  17.373  0.00  0.00    +0.000 A 
ATOM     31  O   UNL     1      50.472   2.306  16.836  0.00  0.00    +0.000 OA
ATOM     32  C   UNL     1      52.504   2.832  17.934  0.00  0.00    +0.000 A 
ATOM     33  H   UNL     1      51.130  -0.044  17.117  0.00  0.00    +0.000 HD
ENDBRANCH  20  23
ENDBRANCH  18  19
ENDBRANCH   4  18
TORSDOF 7
ENDMDL
MODEL 6
REMARK VINA RESULT:    -6.893      3.785      8.099
REMARK INTER + INTRA:         -10.998
REMARK INTER:                  -8.761
REMARK INTRA:                  -2.236
REMARK UNBOUND:                -1.284
REMARK  Name = 
REMARK  8 active torsions:
REMARK  status: ('A' for Active; 'I' for Inactive)
REMARK    1  A    between atoms: C_1  and  C_2
REMARK    2  A    between atoms: C_2  and  N_3
REMARK    3  A    between atoms: C_2  and  C_25
REMARK    4  A    between atoms: N_3  and  C_4
REMARK    5  A    between atoms: C_4  and  C_5
REMARK    6  A    between atoms: C_8  and  C_9
REMARK    7  A    between atoms: C_9  and  N_10
REMARK    8  A    between atoms: C_11  and  C_13
REMARK                            x       y       z     vdW  Elec       q    Type
REMARK                         _______ _______ _______ _____ _____    ______ ____
ROOT
ATOM      1  C   UNL     1      51.218   7.054  17.269  0.00  0.00    +0.000 A 
ATOM      2  C   UNL     1      51.133   6.893  15.876  0.00  0.00    +0.000 A 
ATOM      3  C   UNL     1      50.150   7.554  15.135  0.00  0.00    +0.000 A 
ATOM      4  C   UNL     1      49.234   8.401  15.770  0.00  0.00    +0.000 A 
ATOM      5  C   UNL     1      49.288   8.526  17.166  0.00  0.00    +0.000 A 
ATOM      6  C   UNL     1      50.274   7.866  17.907  0.00  0.00    +0.000 A 
ENDROOT
BRANCH   1   7
ATOM      7  C   UNL     1      52.324   6.376  18.052  0.00  0.00    +0.000 C 
BRANCH   7   8
ATOM      8  N   UNL     1      52.405   4.971  17.671  0.00  0.00    +0.000 NA
ATOM      9  H   UNL     1      53.391   4.713  17.607  0.00  0.00    +0.000 HD
BRANCH   8  11
ATOM     10  C   UNL     1      51.257   4.666  19.881  0.00  0.00    +0.000 C 
ATOM     11  C   UNL     1      51.734   4.027  18.569  0.00  0.00    +0.000 C 
BRANCH  11  12
ATOM     12  C   UNL     1      50.554   3.435  17.820  0.00  0.00    +0.000 A 
ATOM     13  C   UNL     1      49.302   4.066  17.803  0.00  0.00    +0.000 A 
ATOM     14  C   UNL     1      48.262   3.531  17.053  0.00  0.00    +0.000 A 
ATOM     15  C   UNL     1      48.502   2.371  16.339  0.00  0.00    +0.000 A 
ATOM     16  N   UNL     1      49.687   1.723  16.335  0.00  0.00    +0.000 NA
ATOM     17  C   UNL     1      50.683   2.270  17.071  0.00  0.00    +0.000 A 
ENDBRANCH  11  12
ENDBRANCH   8  11
ENDBRANCH   7   8
ENDBRANCH   1   7
BRANCH   4  18
ATOM     18  C   UNL     1      48.189   9.148  14.982  0.00  0.00    +0.000 C 
BRANCH  18  19
ATOM     19  N   UNL     1      47.240   8.242  14.393  0.00  0.00    +0.000 N 
ATOM     20  C   UNL     1      47.091   8.142  13.030  0.00  0.00    +0.000 C 
ATOM     21  O   UNL     1      47.772   8.796  12.248  0.00  0.00    +0.000 OA
ATOM     22  H   UNL     1      46.510   7.886  14.998  0.00  0.00    +0.000 HD
BRANCH  20  23
ATOM     23  C   UNL     1      46.110   7.154  12.561  0.00  0.00    +0.000 A 
ATOM     24  C   UNL     1      45.006   7.572  11.831  0.00  0.00    +0.000 A 
ATOM     25  S   UNL     1      43.998   6.292  11.324  0.00  0.00    +0.000 S 
ATOM     26  C   UNL     1      44.974   5.139  12.109  0.00  0.00    +0.000 A 
ATOM     27  N   UNL     1      44.649   3.819  12.094  0.00  0.00    +0.000 NA
ATOM     28  C   UNL     1      45.461   3.061  12.753  0.00  0.00    +0.000 A 
ATOM     29  N   UNL     1      46.574   3.503  13.419  0.00  0.00    +0.000 N 
ATOM     30  C   UNL     1      46.960   4.820  13.432  0.00  0.00    +0.000 A 
ATOM     31  O   UNL     1      47.991   5.174  13.994  0.00  0.00    +0.000 OA
ATOM     32  C   UNL     1      46.067   5.721  12.726  0.00  0.00    +0.000 A 
ATOM     33  H   UNL     1      47.179   2.857  13.904  0.00  0.00    +0.000 HD
ENDBRANCH  20  23
ENDBRANCH  18  19
ENDBRANCH   4  18
TORSDOF 7
ENDMDL
MODEL 7
REMARK VINA RESULT:    -6.868      4.088     10.266
REMARK INTER + INTRA:         -10.962
REMARK INTER:                  -9.582
REMARK INTRA:                  -1.380
REMARK UNBOUND:                -1.284
REMARK  Name = 
REMARK  8 active torsions:
REMARK  status: ('A' for Active; 'I' for Inactive)
REMARK    1  A    between atoms: C_1  and  C_2
REMARK    2  A    between atoms: C_2  and  N_3
REMARK    3  A    between atoms: C_2  and  C_25
REMARK    4  A    between atoms: N_3  and  C_4
REMARK    5  A    between atoms: C_4  and  C_5
REMARK    6  A    between atoms: C_8  and  C_9
REMARK    7  A    between atoms: C_9  and  N_10
REMARK    8  A    between atoms: C_11  and  C_13
REMARK                            x       y       z     vdW  Elec       q    Type
REMARK                         _______ _______ _______ _____ _____    ______ ____
ROOT
ATOM      1  C   UNL     1      51.286   4.955  18.076  0.00  0.00    +0.000 A 
ATOM      2  C   UNL     1      50.298   5.864  17.664  0.00  0.00    +0.000 A 
ATOM      3  C   UNL     1      49.081   5.414  17.145  0.00  0.00    +0.000 A 
ATOM      4  C   UNL     1      48.820   4.043  17.035  0.00  0.00    +0.000 A 
ATOM      5  C   UNL     1      49.824   3.136  17.402  0.00  0.00    +0.000 A 
ATOM      6  C   UNL     1      51.041   3.585  17.924  0.00  0.00    +0.000 A 
ENDROOT
BRANCH   1   7
ATOM      7  C   UNL     1      52.578   5.455  18.690  0.00  0.00    +0.000 C 
BRANCH   7   8
ATOM      8  N   UNL     1      52.334   5.890  20.060  0.00  0.00    +0.000 NA
ATOM      9  H   UNL     1      51.782   6.749  20.030  0.00  0.00    +0.000 HD
BRANCH   8  11
ATOM     10  C   UNL     1      52.432   4.578  22.197  0.00  0.00    +0.000 C 
ATOM     11  C   UNL     1      51.648   4.924  20.924  0.00  0.00    +0.000 C 
BRANCH  11  12
ATOM     12  C   UNL     1      50.295   5.509  21.288  0.00  0.00    +0.000 A 
ATOM     13  C   UNL     1      49.114   4.765  21.157  0.00  0.00    +0.000 A 
ATOM     14  C   UNL     1      47.900   5.306  21.562  0.00  0.00    +0.000 A 
ATOM     15  C   UNL     1      47.900   6.586  22.087  0.00  0.00    +0.000 A 
ATOM     16  N   UNL     1      49.010   7.343  22.221  0.00  0.00    +0.000 NA
ATOM     17  C   UNL     1      50.179   6.787  21.823  0.00  0.00    +0.000 A 
ENDBRANCH  11  12
ENDBRANCH   8  11
ENDBRANCH   7   8
ENDBRANCH   1   7
BRANCH   4  18
ATOM     18  C   UNL     1      47.500   3.542  16.509  0.00  0.00    +0.000 C 
BRANCH  18  19
ATOM     19  N   UNL     1      46.908   4.492  15.607  0.00  0.00    +0.000 N 
ATOM     20  C   UNL     1      46.797   4.235  14.261  0.00  0.00    +0.000 C 
ATOM     21  O   UNL     1      47.169   3.178  13.764  0.00  0.00    +0.000 OA
ATOM     22  H   UNL     1      46.826   5.447  15.937  0.00  0.00    +0.000 HD
BRANCH  20  23
ATOM     23  C   UNL     1      46.143   5.277  13.458  0.00  0.00    +0.000 A 
ATOM     24  C   UNL     1      46.776   6.499  13.267  0.00  0.00    +0.000 A 
ATOM     25  S   UNL     1      45.900   7.572  12.271  0.00  0.00    +0.000 S 
ATOM     26  C   UNL     1      44.619   6.463  12.105  0.00  0.00    +0.000 A 
ATOM     27  N   UNL     1      43.510   6.776  11.385  0.00  0.00    +0.000 NA
ATOM     28  C   UNL     1      42.607   5.853  11.368  0.00  0.00    +0.000 A 
ATOM     29  N   UNL     1      42.716   4.641  11.997  0.00  0.00    +0.000 N 
ATOM     30  C   UNL     1      43.831   4.269  12.705  0.00  0.00    +0.000 A 
ATOM     31  O   UNL     1      43.919   3.155  13.212  0.00  0.00    +0.000 OA
ATOM     32  C   UNL     1      44.870   5.281  12.778  0.00  0.00    +0.000 A 
ATOM     33  H   UNL     1      41.980   3.954  11.933  0.00  0.00    +0.000 HD
ENDBRANCH  20  23
ENDBRANCH  18  19
ENDBRANCH   4  18
TORSDOF 7
ENDMDL
MODEL 8
REMARK VINA RESULT:    -6.812      2.881      8.485
REMARK INTER + INTRA:         -10.884
REMARK INTER:                  -9.209
REMARK INTRA:                  -1.675
REMARK UNBOUND:                -1.284
REMARK  Name = 
REMARK  8 active torsions:
REMARK  status: ('A' for Active; 'I' for Inactive)
REMARK    1  A    between atoms: C_1  and  C_2
REMARK    2  A    between atoms: C_2  and  N_3
REMARK    3  A    between atoms: C_2  and  C_25
REMARK    4  A    between atoms: N_3  and  C_4
REMARK    5  A    between atoms: C_4  and  C_5
REMARK    6  A    between atoms: C_8  and  C_9
REMARK    7  A    between atoms: C_9  and  N_10
REMARK    8  A    between atoms: C_11  and  C_13
REMARK                            x       y       z     vdW  Elec       q    Type
REMARK                         _______ _______ _______ _____ _____    ______ ____
ROOT
ATOM      1  C   UNL     1      50.175   7.863  15.595  0.00  0.00    +0.000 A 
ATOM      2  C   UNL     1      50.824   7.984  14.355  0.00  0.00    +0.000 A 
ATOM      3  C   UNL     1      50.100   7.954  13.160  0.00  0.00    +0.000 A 
ATOM      4  C   UNL     1      48.707   7.812  13.178  0.00  0.00    +0.000 A 
ATOM      5  C   UNL     1      48.064   7.644  14.413  0.00  0.00    +0.000 A 
ATOM      6  C   UNL     1      48.788   7.677  15.609  0.00  0.00    +0.000 A 
ENDROOT
BRANCH   1   7
ATOM      7  C   UNL     1      50.964   7.955  16.885  0.00  0.00    +0.000 C 
BRANCH   7   8
ATOM      8  N   UNL     1      51.401   6.623  17.289  0.00  0.00    +0.000 NA
ATOM      9  H   UNL     1      52.394   6.669  17.522  0.00  0.00    +0.000 HD
BRANCH   8  11
ATOM     10  C   UNL     1      49.766   7.027  19.148  0.00  0.00    +0.000 C 
ATOM     11  C   UNL     1      50.682   6.033  18.422  0.00  0.00    +0.000 C 
BRANCH  11  12
ATOM     12  C   UNL     1      49.869   4.864  17.896  0.00  0.00    +0.000 A 
ATOM     13  C   UNL     1      48.470   4.911  17.833  0.00  0.00    +0.000 A 
ATOM     14  C   UNL     1      47.759   3.850  17.284  0.00  0.00    +0.000 A 
ATOM     15  C   UNL     1      48.473   2.762  16.815  0.00  0.00    +0.000 A 
ATOM     16  N   UNL     1      49.819   2.668  16.866  0.00  0.00    +0.000 NA
ATOM     17  C   UNL     1      50.484   3.719  17.401  0.00  0.00    +0.000 A 
ENDBRANCH  11  12
ENDBRANCH   8  11
ENDBRANCH   7   8
ENDBRANCH   1   7
BRANCH   4  18
ATOM     18  C   UNL     1      47.909   7.812  11.900  0.00  0.00    +0.000 C 
BRANCH  18  19
ATOM     19  N   UNL     1      47.123   6.614  11.781  0.00  0.00    +0.000 N 
ATOM     20  C   UNL     1      45.749   6.650  11.792  0.00  0.00    +0.000 C 
ATOM     21  O   UNL     1      45.123   7.702  11.876  0.00  0.00    +0.000 OA
ATOM     22  H   UNL     1      47.597   5.736  11.961  0.00  0.00    +0.000 HD
BRANCH  20  23
ATOM     23  C   UNL     1      45.070   5.358  11.630  0.00  0.00    +0.000 A 
ATOM     24  C   UNL     1      44.370   4.808  12.696  0.00  0.00    +0.000 A 
ATOM     25  S   UNL     1      43.603   3.331  12.320  0.00  0.00    +0.000 S 
ATOM     26  C   UNL     1      44.224   3.348  10.735  0.00  0.00    +0.000 A 
ATOM     27  N   UNL     1      43.965   2.330   9.871  0.00  0.00    +0.000 NA
ATOM     28  C   UNL     1      44.523   2.459   8.713  0.00  0.00    +0.000 A 
ATOM     29  N   UNL     1      45.307   3.518   8.337  0.00  0.00    +0.000 N 
ATOM     30  C   UNL     1      45.566   4.582   9.164  0.00  0.00    +0.000 A 
ATOM     31  O   UNL     1      46.229   5.539   8.778  0.00  0.00    +0.000 OA
ATOM     32  C   UNL     1      44.983   4.477  10.489  0.00  0.00    +0.000 A 
ATOM     33  H   UNL     1      45.703   3.567   7.411  0.00  0.00    +0.000 HD
ENDBRANCH  20  23
ENDBRANCH  18  19
ENDBRANCH   4  18
TORSDOF 7
ENDMDL
MODEL 9
REMARK VINA RESULT:    -6.758      4.117      9.726
REMARK INTER + INTRA:         -10.807
REMARK INTER:                  -9.320
REMARK INTRA:                  -1.487
REMARK UNBOUND:                -1.284
REMARK  Name = 
REMARK  8 active torsions:
REMARK  status: ('A' for Active; 'I' for Inactive)
REMARK    1  A    between atoms: C_1  and  C_2
REMARK    2  A    between atoms: C_2  and  N_3
REMARK    3  A    between atoms: C_2  and  C_25
REMARK    4  A    between atoms: N_3  and  C_4
REMARK    5  A    between atoms: C_4  and  C_5
REMARK    6  A    between atoms: C_8  and  C_9
REMARK    7  A    between atoms: C_9  and  N_10
REMARK    8  A    between atoms: C_11  and  C_13
REMARK                            x       y       z     vdW  Elec       q    Type
REMARK                         _______ _______ _______ _____ _____    ______ ____
ROOT
ATOM      1  C   UNL     1      49.451   5.570  19.708  0.00  0.00    +0.000 A 
ATOM      2  C   UNL     1      49.077   4.222  19.834  0.00  0.00    +0.000 A 
ATOM      3  C   UNL     1      48.410   3.562  18.799  0.00  0.00    +0.000 A 
ATOM      4  C   UNL     1      48.108   4.234  17.608  0.00  0.00    +0.000 A 
ATOM      5  C   UNL     1      48.439   5.592  17.499  0.00  0.00    +0.000 A 
ATOM      6  C   UNL     1      49.110   6.252  18.534  0.00  0.00    +0.000 A 
ENDROOT
BRANCH   1   7
ATOM      7  C   UNL     1      50.225   6.257  20.814  0.00  0.00    +0.000 C 
BRANCH   7   8
ATOM      8  N   UNL     1      51.536   5.637  20.955  0.00  0.00    +0.000 NA
ATOM      9  H   UNL     1      51.401   4.652  21.190  0.00  0.00    +0.000 HD
BRANCH   8  11
ATOM     10  C   UNL     1      53.676   6.555  20.021  0.00  0.00    +0.000 C 
ATOM     11  C   UNL     1      52.411   5.720  19.781  0.00  0.00    +0.000 C 
BRANCH  11  12
ATOM     12  C   UNL     1      52.788   4.304  19.384  0.00  0.00    +0.000 A 
ATOM     13  C   UNL     1      52.328   3.729  18.191  0.00  0.00    +0.000 A 
ATOM     14  C   UNL     1      52.746   2.455  17.824  0.00  0.00    +0.000 A 
ATOM     15  C   UNL     1      53.615   1.787  18.668  0.00  0.00    +0.000 A 
ATOM     16  N   UNL     1      54.074   2.296  19.831  0.00  0.00    +0.000 NA
ATOM     17  C   UNL     1      53.653   3.540  20.160  0.00  0.00    +0.000 A 
ENDBRANCH  11  12
ENDBRANCH   8  11
ENDBRANCH   7   8
ENDBRANCH   1   7
BRANCH   4  18
ATOM     18  C   UNL     1      47.419   3.527  16.469  0.00  0.00    +0.000 C 
BRANCH  18  19
ATOM     19  N   UNL     1      46.843   4.470  15.548  0.00  0.00    +0.000 N 
ATOM     20  C   UNL     1      46.791   4.217  14.198  0.00  0.00    +0.000 C 
ATOM     21  O   UNL     1      47.205   3.169  13.712  0.00  0.00    +0.000 OA
ATOM     22  H   UNL     1      46.728   5.420  15.879  0.00  0.00    +0.000 HD
BRANCH  20  23
ATOM     23  C   UNL     1      46.147   5.249  13.375  0.00  0.00    +0.000 A 
ATOM     24  C   UNL     1      46.818   6.435  13.107  0.00  0.00    +0.000 A 
ATOM     25  S   UNL     1      45.947   7.499  12.097  0.00  0.00    +0.000 S 
ATOM     26  C   UNL     1      44.620   6.435  12.027  0.00  0.00    +0.000 A 
ATOM     27  N   UNL     1      43.496   6.761  11.334  0.00  0.00    +0.000 NA
ATOM     28  C   UNL     1      42.559   5.875  11.389  0.00  0.00    +0.000 A 
ATOM     29  N   UNL     1      42.646   4.687  12.067  0.00  0.00    +0.000 N 
ATOM     30  C   UNL     1      43.772   4.301  12.750  0.00  0.00    +0.000 A 
ATOM     31  O   UNL     1      43.836   3.208  13.303  0.00  0.00    +0.000 OA
ATOM     32  C   UNL     1      44.850   5.274  12.741  0.00  0.00    +0.000 A 
ATOM     33  H   UNL     1      41.882   4.028  12.060  0.00  0.00    +0.000 HD
ENDBRANCH  20  23
ENDBRANCH  18  19
ENDBRANCH   4  18
TORSDOF 7
ENDMDL
