MODEL 1
REMARK VINA RESULT:    -7.982      0.000      0.000
REMARK INTER + INTRA:         -11.913
REMARK INTER:                 -10.781
REMARK INTRA:                  -1.132
REMARK UNBOUND:                -1.132
REMARK  Name = 
REMARK  7 active torsions:
REMARK  status: ('A' for Active; 'I' for Inactive)
REMARK    1  A    between atoms: C_1  and  O_2
REMARK    2  A    between atoms: O_2  and  C_3
REMARK    3  A    between atoms: C_7  and  C_8
REMARK    4  A    between atoms: C_8  and  C_9
REMARK    5  A    between atoms: C_12  and  C_13
REMARK    6  A    between atoms: C_13  and  N_14
REMARK    7  A    between atoms: C_15  and  C_17
REMARK                            x       y       z     vdW  Elec       q    Type
REMARK                         _______ _______ _______ _____ _____    ______ ____
ROOT
ATOM      1  C   UNL     1      47.304   8.089  13.441  0.00  0.00    +0.000 C 
ENDROOT
BRANCH   1   5
ATOM      2  C   UNL     1      44.549   5.657  11.129  0.00  0.00    +0.000 A 
ATOM      3  C   UNL     1      44.278   7.012  11.368  0.00  0.00    +0.000 A 
ATOM      4  C   UNL     1      45.154   7.796  12.130  0.00  0.00    +0.000 A 
ATOM      5  C   UNL     1      46.327   7.244  12.661  0.00  0.00    +0.000 A 
ATOM      6  C   UNL     1      46.573   5.880  12.462  0.00  0.00    +0.000 A 
ATOM      7  C   UNL     1      45.703   5.097  11.694  0.00  0.00    +0.000 A 
BRANCH   2   8
ATOM      8  C   UNL     1      43.640   4.832  10.238  0.00  0.00    +0.000 C 
BRANCH   8  13
ATOM      9  C   UNL     1      45.990   3.383   7.598  0.00  0.00    +0.000 A 
ATOM     10  C   UNL     1      45.996   2.032   7.943  0.00  0.00    +0.000 A 
ATOM     11  C   UNL     1      45.186   1.573   8.982  0.00  0.00    +0.000 A 
ATOM     12  C   UNL     1      44.385   2.464   9.702  0.00  0.00    +0.000 A 
ATOM     13  C   UNL     1      44.394   3.829   9.390  0.00  0.00    +0.000 A 
ATOM     14  C   UNL     1      45.179   4.269   8.313  0.00  0.00    +0.000 A 
BRANCH   9  16
ATOM     15  C   UNL     1      47.031   3.158   5.474  0.00  0.00    +0.000 C 
ATOM     16  O   UNL     1      46.734   3.965   6.607  0.00  0.00    +0.000 OA
ENDBRANCH   9  16
ENDBRANCH   8  13
ENDBRANCH   2   8
ENDBRANCH   1   5
BRANCH   1  17
ATOM     17  N   UNL     1      47.659   7.470  14.692  0.00  0.00    +0.000 N 
ATOM     18  C   UNL     1      48.892   6.890  14.880  0.00  0.00    +0.000 C 
ATOM     19  O   UNL     1      49.770   6.917  14.023  0.00  0.00    +0.000 OA
ATOM     20  H   UNL     1      46.892   7.213  15.301  0.00  0.00    +0.000 HD
BRANCH  18  21
ATOM     21  C   UNL     1      49.124   6.304  16.208  0.00  0.00    +0.000 A 
ATOM     22  C   UNL     1      50.048   6.881  17.069  0.00  0.00    +0.000 A 
ATOM     23  S   UNL     1      50.136   6.109  18.588  0.00  0.00    +0.000 S 
ATOM     24  C   UNL     1      48.985   4.945  18.127  0.00  0.00    +0.000 A 
ATOM     25  N   UNL     1      48.610   3.952  18.979  0.00  0.00    +0.000 NA
ATOM     26  C   UNL     1      47.746   3.128  18.489  0.00  0.00    +0.000 A 
ATOM     27  N   UNL     1      47.221   3.204  17.224  0.00  0.00    +0.000 N 
ATOM     28  C   UNL     1      47.554   4.195  16.341  0.00  0.00    +0.000 A 
ATOM     29  O   UNL     1      47.043   4.254  15.223  0.00  0.00    +0.000 OA
ATOM     30  C   UNL     1      48.527   5.151  16.838  0.00  0.00    +0.000 A 
ATOM     31  H   UNL     1      46.542   2.530  16.903  0.00  0.00    +0.000 HD
ENDBRANCH  18  21
ENDBRANCH   1  17
TORSDOF 6
ENDMDL
MODEL 2
REMARK VINA RESULT:    -7.593      1.389      1.595
REMARK INTER + INTRA:         -11.389
REMARK INTER:                 -10.327
REMARK INTRA:                  -1.062
REMARK UNBOUND:                -1.132
REMARK  Name = 
REMARK  7 active torsions:
REMARK  status: ('A' for Active; 'I' for Inactive)
REMARK    1  A    between atoms: C_1  and  O_2
REMARK    2  A    between atoms: O_2  and  C_3
REMARK    3  A    between atoms: C_7  and  C_8
REMARK    4  A    between atoms: C_8  and  C_9
REMARK    5  A    between atoms: C_12  and  C_13
REMARK    6  A    between atoms: C_13  and  N_14
REMARK    7  A    between atoms: C_15  and  C_17
REMARK                            x       y       z     vdW  Elec       q    Type
REMARK                         _______ _______ _______ _____ _____    ______ ____
ROOT
ATOM      1  C   UNL     1      48.375   7.360  13.741  0.00  0.00    +0.000 C 
ENDROOT
BRANCH   1   5
ATOM      2  C   UNL     1      45.036   5.567  11.623  0.00  0.00    +0.000 A 
ATOM      3  C   UNL     1      45.388   6.906  11.400  0.00  0.00    +0.000 A 
ATOM      4  C   UNL     1      46.452   7.495  12.095  0.00  0.00    +0.000 A 
ATOM      5  C   UNL     1      47.195   6.754  13.023  0.00  0.00    +0.000 A 
ATOM      6  C   UNL     1      46.814   5.431  13.280  0.00  0.00    +0.000 A 
ATOM      7  C   UNL     1      45.756   4.839  12.580  0.00  0.00    +0.000 A 
BRANCH   2   8
ATOM      8  C   UNL     1      43.935   4.911  10.811  0.00  0.00    +0.000 C 
BRANCH   8  13
ATOM      9  C   UNL     1      45.784   3.436   7.812  0.00  0.00    +0.000 A 
ATOM     10  C   UNL     1      45.654   2.069   8.051  0.00  0.00    +0.000 A 
ATOM     11  C   UNL     1      44.908   1.617   9.141  0.00  0.00    +0.000 A 
ATOM     12  C   UNL     1      44.310   2.529  10.015  0.00  0.00    +0.000 A 
ATOM     13  C   UNL     1      44.459   3.906   9.808  0.00  0.00    +0.000 A 
ATOM     14  C   UNL     1      45.174   4.344   8.682  0.00  0.00    +0.000 A 
BRANCH   9  16
ATOM     15  C   UNL     1      46.894   3.153   5.731  0.00  0.00    +0.000 C 
ATOM     16  O   UNL     1      46.486   4.012   6.787  0.00  0.00    +0.000 OA
ENDBRANCH   9  16
ENDBRANCH   8  13
ENDBRANCH   2   8
ENDBRANCH   1   5
BRANCH   1  17
ATOM     17  N   UNL     1      48.207   7.311  15.171  0.00  0.00    +0.000 N 
ATOM     18  C   UNL     1      49.239   6.939  16.001  0.00  0.00    +0.000 C 
ATOM     19  O   UNL     1      50.364   6.687  15.580  0.00  0.00    +0.000 OA
ATOM     20  H   UNL     1      47.255   7.262  15.511  0.00  0.00    +0.000 HD
BRANCH  18  21
ATOM     21  C   UNL     1      48.932   6.942  17.438  0.00  0.00    +0.000 A 
ATOM     22  C   UNL     1      48.599   8.130  18.075  0.00  0.00    +0.000 A 
ATOM     23  S   UNL     1      48.210   7.932  19.724  0.00  0.00    +0.000 S 
ATOM     24  C   UNL     1      48.526   6.263  19.658  0.00  0.00    +0.000 A 
ATOM     25  N   UNL     1      48.402   5.480  20.764  0.00  0.00    +0.000 NA
ATOM     26  C   UNL     1      48.695   4.237  20.572  0.00  0.00    +0.000 A 
ATOM     27  N   UNL     1      49.104   3.704  19.376  0.00  0.00    +0.000 N 
ATOM     28  C   UNL     1      49.223   4.449  18.234  0.00  0.00    +0.000 A 
ATOM     29  O   UNL     1      49.563   3.936  17.169  0.00  0.00    +0.000 OA
ATOM     30  C   UNL     1      48.908   5.858  18.391  0.00  0.00    +0.000 A 
ATOM     31  H   UNL     1      49.312   2.720  19.290  0.00  0.00    +0.000 HD
ENDBRANCH  18  21
ENDBRANCH   1  17
TORSDOF 6
ENDMDL
MODEL 3
REMARK VINA RESULT:    -7.488      2.122      2.764
REMARK INTER + INTRA:         -11.247
REMARK INTER:                 -10.049
REMARK INTRA:                  -1.198
REMARK UNBOUND:                -1.132
REMARK  Name = 
REMARK  7 active torsions:
REMARK  status: ('A' for Active; 'I' for Inactive)
REMARK    1  A    between atoms: C_1  and  O_2
REMARK    2  A    between atoms: O_2  and  C_3
REMARK    3  A    between atoms: C_7  and  C_8
REMARK    4  A    between atoms: C_8  and  C_9
REMARK    5  A    between atoms: C_12  and  C_13
REMARK    6  A    between atoms: C_13  and  N_14
REMARK    7  A    between atoms: C_15  and  C_17
REMARK                            x       y       z     vdW  Elec       q    Type
REMARK                         _______ _______ _______ _____ _____    ______ ____
ROOT
ATOM      1  C   UNL     1      48.865   6.876  14.389  0.00  0.00    +0.000 C 
ENDROOT
BRANCH   1   5
ATOM      2  C   UNL     1      45.609   5.678  11.778  0.00  0.00    +0.000 A 
ATOM      3  C   UNL     1      45.892   4.955  12.946  0.00  0.00    +0.000 A 
ATOM      4  C   UNL     1      46.953   5.326  13.782  0.00  0.00    +0.000 A 
ATOM      5  C   UNL     1      47.750   6.436  13.472  0.00  0.00    +0.000 A 
ATOM      6  C   UNL     1      47.497   7.129  12.282  0.00  0.00    +0.000 A 
ATOM      7  C   UNL     1      46.431   6.764  11.451  0.00  0.00    +0.000 A 
BRANCH   2   8
ATOM      8  C   UNL     1      44.411   5.322  10.919  0.00  0.00    +0.000 C 
BRANCH   8  13
ATOM      9  C   UNL     1      45.805   3.544   7.840  0.00  0.00    +0.000 A 
ATOM     10  C   UNL     1      45.494   2.215   8.122  0.00  0.00    +0.000 A 
ATOM     11  C   UNL     1      44.770   1.896   9.271  0.00  0.00    +0.000 A 
ATOM     12  C   UNL     1      44.375   2.899  10.160  0.00  0.00    +0.000 A 
ATOM     13  C   UNL     1      44.709   4.235   9.908  0.00  0.00    +0.000 A 
ATOM     14  C   UNL     1      45.398   4.546   8.725  0.00  0.00    +0.000 A 
BRANCH   9  16
ATOM     15  C   UNL     1      46.918   3.017   5.808  0.00  0.00    +0.000 C 
ATOM     16  O   UNL     1      46.509   3.995   6.755  0.00  0.00    +0.000 OA
ENDBRANCH   9  16
ENDBRANCH   8  13
ENDBRANCH   2   8
ENDBRANCH   1   5
BRANCH   1  17
ATOM     17  N   UNL     1      48.565   6.580  15.767  0.00  0.00    +0.000 N 
ATOM     18  C   UNL     1      49.538   6.137  16.632  0.00  0.00    +0.000 C 
ATOM     19  O   UNL     1      50.714   6.024  16.299  0.00  0.00    +0.000 OA
ATOM     20  H   UNL     1      47.591   6.421  15.991  0.00  0.00    +0.000 HD
BRANCH  18  21
ATOM     21  C   UNL     1      49.096   5.884  18.010  0.00  0.00    +0.000 A 
ATOM     22  C   UNL     1      49.219   4.613  18.557  0.00  0.00    +0.000 A 
ATOM     23  S   UNL     1      48.718   4.521  20.185  0.00  0.00    +0.000 S 
ATOM     24  C   UNL     1      48.267   6.161  20.199  0.00  0.00    +0.000 A 
ATOM     25  N   UNL     1      47.730   6.732  21.311  0.00  0.00    +0.000 NA
ATOM     26  C   UNL     1      47.414   7.976  21.171  0.00  0.00    +0.000 A 
ATOM     27  N   UNL     1      47.584   8.702  20.019  0.00  0.00    +0.000 N 
ATOM     28  C   UNL     1      48.137   8.175  18.884  0.00  0.00    +0.000 A 
ATOM     29  O   UNL     1      48.304   8.860  17.877  0.00  0.00    +0.000 OA
ATOM     30  C   UNL     1      48.509   6.775  18.983  0.00  0.00    +0.000 A 
ATOM     31  H   UNL     1      47.322   9.676  19.977  0.00  0.00    +0.000 HD
ENDBRANCH  18  21
ENDBRANCH   1  17
TORSDOF 6
ENDMDL
MODEL 4
REMARK VINA RESULT:    -7.111      2.500      3.763
REMARK INTER + INTRA:         -10.738
REMARK INTER:                  -9.959
REMARK INTRA:                  -0.779
REMARK UNBOUND:                -1.132
REMARK  Name = 
REMARK  7 active torsions:
REMARK  status: ('A' for Active; 'I' for Inactive)
REMARK    1  A    between atoms: C_1  and  O_2
REMARK    2  A    between atoms: O_2  and  C_3
REMARK    3  A    between atoms: C_7  and  C_8
REMARK    4  A    between atoms: C_8  and  C_9
REMARK    5  A    between atoms: C_12  and  C_13
REMARK    6  A    between atoms: C_13  and  N_14
REMARK    7  A    between atoms: C_15  and  C_17
REMARK                            x       y       z     vdW  Elec       q    Type
REMARK                         _______ _______ _______ _____ _____    ______ ____
ROOT
ATOM      1  C   UNL     1      46.035   5.031  14.001  0.00  0.00    +0.000 C 
ENDROOT
BRANCH   1   5
ATOM      2  C   UNL     1      44.968   4.302   9.856  0.00  0.00    +0.000 A 
ATOM      3  C   UNL     1      45.622   5.486  10.228  0.00  0.00    +0.000 A 
ATOM      4  C   UNL     1      45.951   5.734  11.566  0.00  0.00    +0.000 A 
ATOM      5  C   UNL     1      45.642   4.799  12.563  0.00  0.00    +0.000 A 
ATOM      6  C   UNL     1      44.948   3.639  12.198  0.00  0.00    +0.000 A 
ATOM      7  C   UNL     1      44.626   3.385  10.859  0.00  0.00    +0.000 A 
BRANCH   2   8
ATOM      8  C   UNL     1      44.686   4.000   8.396  0.00  0.00    +0.000 C 
BRANCH   8  13
ATOM      9  C   UNL     1      46.916   1.031   7.504  0.00  0.00    +0.000 A 
ATOM     10  C   UNL     1      47.608   1.525   6.399  0.00  0.00    +0.000 A 
ATOM     11  C   UNL     1      47.410   2.842   5.983  0.00  0.00    +0.000 A 
ATOM     12  C   UNL     1      46.499   3.666   6.650  0.00  0.00    +0.000 A 
ATOM     13  C   UNL     1      45.772   3.174   7.741  0.00  0.00    +0.000 A 
ATOM     14  C   UNL     1      46.016   1.861   8.176  0.00  0.00    +0.000 A 
BRANCH   9  16
ATOM     15  C   UNL     1      46.499  -1.290   7.212  0.00  0.00    +0.000 C 
ATOM     16  O   UNL     1      47.013  -0.236   8.016  0.00  0.00    +0.000 OA
ENDBRANCH   9  16
ENDBRANCH   8  13
ENDBRANCH   2   8
ENDBRANCH   1   5
BRANCH   1  17
ATOM     17  N   UNL     1      47.019   6.077  14.118  0.00  0.00    +0.000 N 
ATOM     18  C   UNL     1      48.083   5.966  14.982  0.00  0.00    +0.000 C 
ATOM     19  O   UNL     1      48.285   4.957  15.651  0.00  0.00    +0.000 OA
ATOM     20  H   UNL     1      46.744   6.993  13.785  0.00  0.00    +0.000 HD
BRANCH  18  21
ATOM     21  C   UNL     1      49.015   7.103  14.993  0.00  0.00    +0.000 A 
ATOM     22  C   UNL     1      49.660   7.483  13.824  0.00  0.00    +0.000 A 
ATOM     23  S   UNL     1      50.651   8.860  14.010  0.00  0.00    +0.000 S 
ATOM     24  C   UNL     1      50.294   8.962  15.670  0.00  0.00    +0.000 A 
ATOM     25  N   UNL     1      50.847   9.931  16.449  0.00  0.00    +0.000 NA
ATOM     26  C   UNL     1      50.506   9.875  17.692  0.00  0.00    +0.000 A 
ATOM     27  N   UNL     1      49.663   8.936  18.231  0.00  0.00    +0.000 N 
ATOM     28  C   UNL     1      49.069   7.955  17.483  0.00  0.00    +0.000 A 
ATOM     29  O   UNL     1      48.293   7.147  17.990  0.00  0.00    +0.000 OA
ATOM     30  C   UNL     1      49.420   7.969  16.074  0.00  0.00    +0.000 A 
ATOM     31  H   UNL     1      49.429   8.951  19.213  0.00  0.00    +0.000 HD
ENDBRANCH  18  21
ENDBRANCH   1  17
TORSDOF 6
ENDMDL
MODEL 5
REMARK VINA RESULT:    -6.951      1.714      2.771
REMARK INTER + INTRA:         -10.522
REMARK INTER:                  -9.097
REMARK INTRA:                  -1.425
REMARK UNBOUND:                -1.132
REMARK  Name = 
REMARK  7 active torsions:
REMARK  status: ('A' for Active; 'I' for Inactive)
REMARK    1  A    between atoms: C_1  and  O_2
REMARK    2  A    between atoms: O_2  and  C_3
REMARK    3  A    between atoms: C_7  and  C_8
REMARK    4  A    between atoms: C_8  and  C_9
REMARK    5  A    between atoms: C_12  and  C_13
REMARK    6  A    between atoms: C_13  and  N_14
REMARK    7  A    between atoms: C_15  and  C_17
REMARK                            x       y       z     vdW  Elec       q    Type
REMARK                         _______ _______ _______ _____ _____    ______ ____
ROOT
ATOM      1  C   UNL     1      49.410   8.311  14.056  0.00  0.00    +0.000 C 
ENDROOT
BRANCH   1   5
ATOM      2  C   UNL     1      45.741   7.414  11.916  0.00  0.00    +0.000 A 
ATOM      3  C   UNL     1      46.883   6.618  11.742  0.00  0.00    +0.000 A 
ATOM      4  C   UNL     1      48.074   6.915  12.415  0.00  0.00    +0.000 A 
ATOM      5  C   UNL     1      48.148   8.010  13.286  0.00  0.00    +0.000 A 
ATOM      6  C   UNL     1      47.022   8.831  13.423  0.00  0.00    +0.000 A 
ATOM      7  C   UNL     1      45.828   8.531  12.757  0.00  0.00    +0.000 A 
BRANCH   2   8
ATOM      8  C   UNL     1      44.431   7.043  11.247  0.00  0.00    +0.000 C 
BRANCH   8  13
ATOM      9  C   UNL     1      43.852   3.315  10.645  0.00  0.00    +0.000 A 
ATOM     10  C   UNL     1      43.538   2.872  11.929  0.00  0.00    +0.000 A 
ATOM     11  C   UNL     1      43.441   3.786  12.979  0.00  0.00    +0.000 A 
ATOM     12  C   UNL     1      43.684   5.145  12.760  0.00  0.00    +0.000 A 
ATOM     13  C   UNL     1      44.033   5.601  11.483  0.00  0.00    +0.000 A 
ATOM     14  C   UNL     1      44.082   4.677  10.428  0.00  0.00    +0.000 A 
BRANCH   9  16
ATOM     15  C   UNL     1      45.304   2.166   9.157  0.00  0.00    +0.000 C 
ATOM     16  O   UNL     1      43.981   2.531   9.530  0.00  0.00    +0.000 OA
ENDBRANCH   9  16
ENDBRANCH   8  13
ENDBRANCH   2   8
ENDBRANCH   1   5
BRANCH   1  17
ATOM     17  N   UNL     1      49.491   7.535  15.266  0.00  0.00    +0.000 N 
ATOM     18  C   UNL     1      49.011   8.018  16.461  0.00  0.00    +0.000 C 
ATOM     19  O   UNL     1      48.443   9.102  16.553  0.00  0.00    +0.000 OA
ATOM     20  H   UNL     1      50.163   6.777  15.271  0.00  0.00    +0.000 HD
BRANCH  18  21
ATOM     21  C   UNL     1      49.149   7.116  17.614  0.00  0.00    +0.000 A 
ATOM     22  C   UNL     1      49.654   7.596  18.814  0.00  0.00    +0.000 A 
ATOM     23  S   UNL     1      49.680   6.428  20.058  0.00  0.00    +0.000 S 
ATOM     24  C   UNL     1      49.070   5.227  19.019  0.00  0.00    +0.000 A 
ATOM     25  N   UNL     1      48.868   3.955  19.459  0.00  0.00    +0.000 NA
ATOM     26  C   UNL     1      48.423   3.144  18.558  0.00  0.00    +0.000 A 
ATOM     27  N   UNL     1      48.163   3.488  17.256  0.00  0.00    +0.000 N 
ATOM     28  C   UNL     1      48.332   4.758  16.775  0.00  0.00    +0.000 A 
ATOM     29  O   UNL     1      48.061   5.042  15.609  0.00  0.00    +0.000 OA
ATOM     30  C   UNL     1      48.834   5.713  17.746  0.00  0.00    +0.000 A 
ATOM     31  H   UNL     1      47.808   2.806  16.600  0.00  0.00    +0.000 HD
ENDBRANCH  18  21
ENDBRANCH   1  17
TORSDOF 6
ENDMDL
MODEL 6
REMARK VINA RESULT:    -6.845      2.734      3.811
REMARK INTER + INTRA:         -10.379
REMARK INTER:                  -9.641
REMARK INTRA:                  -0.738
REMARK UNBOUND:                -1.132
REMARK  Name = 
REMARK  7 active torsions:
REMARK  status: ('A' for Active; 'I' for Inactive)
REMARK    1  A    between atoms: C_1  and  O_2
REMARK    2  A    between atoms: O_2  and  C_3
REMARK    3  A    between atoms: C_7  and  C_8
REMARK    4  A    between atoms: C_8  and  C_9
REMARK    5  A    between atoms: C_12  and  C_13
REMARK    6  A    between atoms: C_13  and  N_14
REMARK    7  A    between atoms: C_15  and  C_17
REMARK                            x       y       z     vdW  Elec       q    Type
REMARK                         _______ _______ _______ _____ _____    ______ ____
ROOT
ATOM      1  C   UNL     1      47.985   4.812  16.000  0.00  0.00    +0.000 C 
ENDROOT
BRANCH   1   5
ATOM      2  C   UNL     1      46.034   5.699  12.224  0.00  0.00    +0.000 A 
ATOM      3  C   UNL     1      45.686   4.555  12.957  0.00  0.00    +0.000 A 
ATOM      4  C   UNL     1      46.326   4.254  14.165  0.00  0.00    +0.000 A 
ATOM      5  C   UNL     1      47.323   5.097  14.674  0.00  0.00    +0.000 A 
ATOM      6  C   UNL     1      47.703   6.214  13.919  0.00  0.00    +0.000 A 
ATOM      7  C   UNL     1      47.058   6.520  12.715  0.00  0.00    +0.000 A 
BRANCH   2   8
ATOM      8  C   UNL     1      45.284   6.064  10.957  0.00  0.00    +0.000 C 
BRANCH   8  13
ATOM      9  C   UNL     1      45.793   3.780   7.939  0.00  0.00    +0.000 A 
ATOM     10  C   UNL     1      45.062   2.654   8.316  0.00  0.00    +0.000 A 
ATOM     11  C   UNL     1      44.344   2.656   9.512  0.00  0.00    +0.000 A 
ATOM     12  C   UNL     1      44.373   3.772  10.353  0.00  0.00    +0.000 A 
ATOM     13  C   UNL     1      45.129   4.898  10.004  0.00  0.00    +0.000 A 
ATOM     14  C   UNL     1      45.809   4.898   8.776  0.00  0.00    +0.000 A 
BRANCH   9  16
ATOM     15  C   UNL     1      47.138   2.726   6.287  0.00  0.00    +0.000 C 
ATOM     16  O   UNL     1      46.540   3.911   6.799  0.00  0.00    +0.000 OA
ENDBRANCH   9  16
ENDBRANCH   8  13
ENDBRANCH   2   8
ENDBRANCH   1   5
BRANCH   1  17
ATOM     17  N   UNL     1      47.711   5.848  16.963  0.00  0.00    +0.000 N 
ATOM     18  C   UNL     1      48.553   6.080  18.024  0.00  0.00    +0.000 C 
ATOM     19  O   UNL     1      49.604   5.464  18.179  0.00  0.00    +0.000 OA
ATOM     20  H   UNL     1      46.756   6.182  17.004  0.00  0.00    +0.000 HD
BRANCH  18  21
ATOM     21  C   UNL     1      48.158   7.174  18.923  0.00  0.00    +0.000 A 
ATOM     22  C   UNL     1      47.940   6.921  20.271  0.00  0.00    +0.000 A 
ATOM     23  S   UNL     1      47.553   8.317  21.172  0.00  0.00    +0.000 S 
ATOM     24  C   UNL     1      47.610   9.298  19.783  0.00  0.00    +0.000 A 
ATOM     25  N   UNL     1      47.348  10.631  19.855  0.00  0.00    +0.000 NA
ATOM     26  C   UNL     1      47.405  11.246  18.721  0.00  0.00    +0.000 A 
ATOM     27  N   UNL     1      47.697  10.650  17.520  0.00  0.00    +0.000 N 
ATOM     28  C   UNL     1      47.985   9.317  17.404  0.00  0.00    +0.000 A 
ATOM     29  O   UNL     1      48.273   8.818  16.318  0.00  0.00    +0.000 OA
ATOM     30  C   UNL     1      47.934   8.573  18.650  0.00  0.00    +0.000 A 
ATOM     31  H   UNL     1      47.733  11.190  16.668  0.00  0.00    +0.000 HD
ENDBRANCH  18  21
ENDBRANCH   1  17
TORSDOF 6
ENDMDL
MODEL 7
REMARK VINA RESULT:    -6.753      3.762      8.048
REMARK INTER + INTRA:         -10.254
REMARK INTER:                  -8.829
REMARK INTRA:                  -1.425
REMARK UNBOUND:                -1.132
REMARK  Name = 
REMARK  7 active torsions:
REMARK  status: ('A' for Active; 'I' for Inactive)
REMARK    1  A    between atoms: C_1  and  O_2
REMARK    2  A    between atoms: O_2  and  C_3
REMARK    3  A    between atoms: C_7  and  C_8
REMARK    4  A    between atoms: C_8  and  C_9
REMARK    5  A    between atoms: C_12  and  C_13
REMARK    6  A    between atoms: C_13  and  N_14
REMARK    7  A    between atoms: C_15  and  C_17
REMARK                            x       y       z     vdW  Elec       q    Type
REMARK                         _______ _______ _______ _____ _____    ______ ____
ROOT
ATOM      1  C   UNL     1      50.071   8.534  14.301  0.00  0.00    +0.000 C 
ENDROOT
BRANCH   1   5
ATOM      2  C   UNL     1      51.578   6.116  17.577  0.00  0.00    +0.000 A 
ATOM      3  C   UNL     1      50.252   6.573  17.577  0.00  0.00    +0.000 A 
ATOM      4  C   UNL     1      49.767   7.370  16.533  0.00  0.00    +0.000 A 
ATOM      5  C   UNL     1      50.595   7.719  15.458  0.00  0.00    +0.000 A 
ATOM      6  C   UNL     1      51.931   7.301  15.481  0.00  0.00    +0.000 A 
ATOM      7  C   UNL     1      52.415   6.498  16.521  0.00  0.00    +0.000 A 
BRANCH   2   8
ATOM      8  C   UNL     1      52.076   5.188  18.669  0.00  0.00    +0.000 C 
BRANCH   8  13
ATOM      9  C   UNL     1      50.870   1.940  17.061  0.00  0.00    +0.000 A 
ATOM     10  C   UNL     1      51.929   1.080  17.345  0.00  0.00    +0.000 A 
ATOM     11  C   UNL     1      53.003   1.524  18.118  0.00  0.00    +0.000 A 
ATOM     12  C   UNL     1      53.038   2.839  18.590  0.00  0.00    +0.000 A 
ATOM     13  C   UNL     1      51.998   3.726  18.285  0.00  0.00    +0.000 A 
ATOM     14  C   UNL     1      50.904   3.251  17.544  0.00  0.00    +0.000 A 
BRANCH   9  16
ATOM     15  C   UNL     1      48.579   2.372  16.602  0.00  0.00    +0.000 C 
ATOM     16  O   UNL     1      49.762   1.637  16.316  0.00  0.00    +0.000 OA
ENDBRANCH   9  16
ENDBRANCH   8  13
ENDBRANCH   2   8
ENDBRANCH   1   5
BRANCH   1  17
ATOM     17  N   UNL     1      48.981   7.868  13.634  0.00  0.00    +0.000 N 
ATOM     18  C   UNL     1      47.674   8.214  13.879  0.00  0.00    +0.000 C 
ATOM     19  O   UNL     1      47.365   9.137  14.628  0.00  0.00    +0.000 OA
ATOM     20  H   UNL     1      49.188   6.965  13.227  0.00  0.00    +0.000 HD
BRANCH  18  21
ATOM     21  C   UNL     1      46.664   7.460  13.123  0.00  0.00    +0.000 A 
ATOM     22  C   UNL     1      45.788   8.128  12.277  0.00  0.00    +0.000 A 
ATOM     23  S   UNL     1      44.731   7.088  11.433  0.00  0.00    +0.000 S 
ATOM     24  C   UNL     1      45.370   5.716  12.208  0.00  0.00    +0.000 A 
ATOM     25  N   UNL     1      44.884   4.472  11.948  0.00  0.00    +0.000 NA
ATOM     26  C   UNL     1      45.446   3.528  12.625  0.00  0.00    +0.000 A 
ATOM     27  N   UNL     1      46.451   3.713  13.541  0.00  0.00    +0.000 N 
ATOM     28  C   UNL     1      46.984   4.942  13.820  0.00  0.00    +0.000 A 
ATOM     29  O   UNL     1      47.905   5.071  14.624  0.00  0.00    +0.000 OA
ATOM     30  C   UNL     1      46.386   6.044  13.088  0.00  0.00    +0.000 A 
ATOM     31  H   UNL     1      46.855   2.929  14.033  0.00  0.00    +0.000 HD
ENDBRANCH  18  21
ENDBRANCH   1  17
TORSDOF 6
ENDMDL
MODEL 8
REMARK VINA RESULT:    -6.636      3.389      8.381
REMARK INTER + INTRA:         -10.096
REMARK INTER:                  -8.724
REMARK INTRA:                  -1.372
REMARK UNBOUND:                -1.132
REMARK  Name = 
REMARK  7 active torsions:
REMARK  status: ('A' for Active; 'I' for Inactive)
REMARK    1  A    between atoms: C_1  and  O_2
REMARK    2  A    between atoms: O_2  and  C_3
REMARK    3  A    between atoms: C_7  and  C_8
REMARK    4  A    between atoms: C_8  and  C_9
REMARK    5  A    between atoms: C_12  and  C_13
REMARK    6  A    between atoms: C_13  and  N_14
REMARK    7  A    between atoms: C_15  and  C_17
REMARK                            x       y       z     vdW  Elec       q    Type
REMARK                         _______ _______ _______ _____ _____    ______ ____
ROOT
ATOM      1  C   UNL     1      47.512   7.988  11.862  0.00  0.00    +0.000 C 
ENDROOT
BRANCH   1   5
ATOM      2  C   UNL     1      49.831   7.934  15.532  0.00  0.00    +0.000 A 
ATOM      3  C   UNL     1      48.519   8.430  15.523  0.00  0.00    +0.000 A 
ATOM      4  C   UNL     1      47.774   8.468  14.338  0.00  0.00    +0.000 A 
ATOM      5  C   UNL     1      48.321   8.000  13.136  0.00  0.00    +0.000 A 
ATOM      6  C   UNL     1      49.647   7.549  13.136  0.00  0.00    +0.000 A 
ATOM      7  C   UNL     1      50.390   7.504  14.322  0.00  0.00    +0.000 A 
BRANCH   2   8
ATOM      8  C   UNL     1      50.606   7.821  16.831  0.00  0.00    +0.000 C 
BRANCH   8  13
ATOM      9  C   UNL     1      49.980   4.141  17.640  0.00  0.00    +0.000 A 
ATOM     10  C   UNL     1      51.281   3.665  17.790  0.00  0.00    +0.000 A 
ATOM     11  C   UNL     1      52.362   4.543  17.703  0.00  0.00    +0.000 A 
ATOM     12  C   UNL     1      52.152   5.899  17.437  0.00  0.00    +0.000 A 
ATOM     13  C   UNL     1      50.852   6.387  17.251  0.00  0.00    +0.000 A 
ATOM     14  C   UNL     1      49.773   5.500  17.387  0.00  0.00    +0.000 A 
BRANCH   9  16
ATOM     15  C   UNL     1      47.784   3.761  16.815  0.00  0.00    +0.000 C 
ATOM     16  O   UNL     1      48.835   3.392  17.699  0.00  0.00    +0.000 OA
ENDBRANCH   9  16
ENDBRANCH   8  13
ENDBRANCH   2   8
ENDBRANCH   1   5
BRANCH   1  17
ATOM     17  N   UNL     1      46.827   6.734  11.682  0.00  0.00    +0.000 N 
ATOM     18  C   UNL     1      45.461   6.640  11.801  0.00  0.00    +0.000 C 
ATOM     19  O   UNL     1      44.749   7.618  12.008  0.00  0.00    +0.000 OA
ATOM     20  H   UNL     1      47.391   5.897  11.765  0.00  0.00    +0.000 HD
BRANCH  18  21
ATOM     21  C   UNL     1      44.893   5.302  11.581  0.00  0.00    +0.000 A 
ATOM     22  C   UNL     1      44.194   4.669  12.600  0.00  0.00    +0.000 A 
ATOM     23  S   UNL     1      43.552   3.154  12.145  0.00  0.00    +0.000 S 
ATOM     24  C   UNL     1      44.232   3.269  10.591  0.00  0.00    +0.000 A 
ATOM     25  N   UNL     1      44.075   2.270   9.681  0.00  0.00    +0.000 NA
ATOM     26  C   UNL     1      44.663   2.480   8.551  0.00  0.00    +0.000 A 
ATOM     27  N   UNL     1      45.398   3.599   8.248  0.00  0.00    +0.000 N 
ATOM     28  C   UNL     1      45.566   4.637   9.124  0.00  0.00    +0.000 A 
ATOM     29  O   UNL     1      46.205   5.640   8.812  0.00  0.00    +0.000 OA
ATOM     30  C   UNL     1      44.927   4.452  10.415  0.00  0.00    +0.000 A 
ATOM     31  H   UNL     1      45.828   3.706   7.341  0.00  0.00    +0.000 HD
ENDBRANCH  18  21
ENDBRANCH   1  17
TORSDOF 6
ENDMDL
MODEL 9
REMARK VINA RESULT:    -6.440      3.919      8.597
REMARK INTER + INTRA:          -9.831
REMARK INTER:                  -8.844
REMARK INTRA:                  -0.988
REMARK UNBOUND:                -1.132
REMARK  Name = 
REMARK  7 active torsions:
REMARK  status: ('A' for Active; 'I' for Inactive)
REMARK    1  A    between atoms: C_1  and  O_2
REMARK    2  A    between atoms: O_2  and  C_3
REMARK    3  A    between atoms: C_7  and  C_8
REMARK    4  A    between atoms: C_8  and  C_9
REMARK    5  A    between atoms: C_12  and  C_13
REMARK    6  A    between atoms: C_13  and  N_14
REMARK    7  A    between atoms: C_15  and  C_17
REMARK                            x       y       z     vdW  Elec       q    Type
REMARK                         _______ _______ _______ _____ _____    ______ ____
ROOT
ATOM      1  C   UNL     1      48.226   7.713  12.930  0.00  0.00    +0.000 C 
ENDROOT
BRANCH   1   5
ATOM      2  C   UNL     1      49.729   5.936  16.596  0.00  0.00    +0.000 A 
ATOM      3  C   UNL     1      50.492   6.881  15.894  0.00  0.00    +0.000 A 
ATOM      4  C   UNL     1      50.020   7.443  14.701  0.00  0.00    +0.000 A 
ATOM      5  C   UNL     1      48.769   7.079  14.187  0.00  0.00    +0.000 A 
ATOM      6  C   UNL     1      48.028   6.101  14.863  0.00  0.00    +0.000 A 
ATOM      7  C   UNL     1      48.495   5.545  16.059  0.00  0.00    +0.000 A 
BRANCH   2   8
ATOM      8  C   UNL     1      50.207   5.390  17.927  0.00  0.00    +0.000 C 
BRANCH   8  13
ATOM      9  C   UNL     1      53.017   2.813  18.153  0.00  0.00    +0.000 A 
ATOM     10  C   UNL     1      52.350   1.642  17.795  0.00  0.00    +0.000 A 
ATOM     11  C   UNL     1      51.010   1.692  17.410  0.00  0.00    +0.000 A 
ATOM     12  C   UNL     1      50.319   2.907  17.406  0.00  0.00    +0.000 A 
ATOM     13  C   UNL     1      50.966   4.086  17.795  0.00  0.00    +0.000 A 
ATOM     14  C   UNL     1      52.327   4.027  18.136  0.00  0.00    +0.000 A 
BRANCH   9  16
ATOM     15  C   UNL     1      54.688   4.072  19.279  0.00  0.00    +0.000 C 
ATOM     16  O   UNL     1      54.324   2.906  18.551  0.00  0.00    +0.000 OA
ENDBRANCH   9  16
ENDBRANCH   8  13
ENDBRANCH   2   8
ENDBRANCH   1   5
BRANCH   1  17
ATOM     17  N   UNL     1      47.572   6.745  12.088  0.00  0.00    +0.000 N 
ATOM     18  C   UNL     1      46.202   6.687  11.993  0.00  0.00    +0.000 C 
ATOM     19  O   UNL     1      45.468   7.485  12.568  0.00  0.00    +0.000 OA
ATOM     20  H   UNL     1      48.123   5.939  11.817  0.00  0.00    +0.000 HD
BRANCH  18  21
ATOM     21  C   UNL     1      45.669   5.658  11.089  0.00  0.00    +0.000 A 
ATOM     22  C   UNL     1      45.846   5.778   9.718  0.00  0.00    +0.000 A 
ATOM     23  S   UNL     1      45.222   4.460   8.832  0.00  0.00    +0.000 S 
ATOM     24  C   UNL     1      44.646   3.710  10.245  0.00  0.00    +0.000 A 
ATOM     25  N   UNL     1      43.977   2.526  10.189  0.00  0.00    +0.000 NA
ATOM     26  C   UNL     1      43.578   2.085  11.335  0.00  0.00    +0.000 A 
ATOM     27  N   UNL     1      43.785   2.720  12.533  0.00  0.00    +0.000 N 
ATOM     28  C   UNL     1      44.468   3.901  12.640  0.00  0.00    +0.000 A 
ATOM     29  O   UNL     1      44.663   4.431  13.732  0.00  0.00    +0.000 OA
ATOM     30  C   UNL     1      44.938   4.447  11.379  0.00  0.00    +0.000 A 
ATOM     31  H   UNL     1      43.453   2.318  13.397  0.00  0.00    +0.000 HD
ENDBRANCH  18  21
ENDBRANCH   1  17
TORSDOF 6
ENDMDL
