MODEL 1
REMARK VINA RESULT:    -8.487      0.000      0.000
REMARK INTER + INTRA:         -13.505
REMARK INTER:                 -12.208
REMARK INTRA:                  -1.298
REMARK UNBOUND:                -1.298
REMARK  Name = 
REMARK  9 active torsions:
REMARK  status: ('A' for Active; 'I' for Inactive)
REMARK    1  A    between atoms: C_1  and  N_2
REMARK    2  A    between atoms: C_4  and  C_5
REMARK    3  A    between atoms: N_7  and  C_8
REMARK    4  A    between atoms: C_8  and  C_9
REMARK    5  A    between atoms: C_12  and  N_13
REMARK    6  A    between atoms: N_13  and  C_14
REMARK    7  A    between atoms: C_14  and  C_15
REMARK    8  A    between atoms: C_15  and  C_16
REMARK    9  A    between atoms: C_25  and  O_26
REMARK                            x       y       z     vdW  Elec       q    Type
REMARK                         _______ _______ _______ _____ _____    ______ ____
ROOT
ATOM      1  C   UNL     1      47.175   8.168  13.413  0.00  0.00    +0.000 C 
ENDROOT
BRANCH   1   2
ATOM      2  C   UNL     1      46.255   7.349  12.552  0.00  0.00    +0.000 A 
ATOM      3  C   UNL     1      46.765   6.617  11.477  0.00  0.00    +0.000 A 
ATOM      4  C   UNL     1      45.922   5.826  10.688  0.00  0.00    +0.000 A 
ATOM      5  C   UNL     1      44.544   5.776  10.916  0.00  0.00    +0.000 A 
ATOM      6  C   UNL     1      44.037   6.528  11.982  0.00  0.00    +0.000 A 
ATOM      7  C   UNL     1      44.877   7.304  12.794  0.00  0.00    +0.000 A 
BRANCH   5   8
ATOM      8  N   UNL     1      43.684   4.946  10.213  0.00  0.00    +0.000 N 
ATOM      9  H   UNL     1      42.699   4.984  10.451  0.00  0.00    +0.000 HD
BRANCH   8  10
ATOM     10  C   UNL     1      44.104   4.232   9.013  0.00  0.00    +0.000 C 
BRANCH  10  11
ATOM     11  C   UNL     1      44.586   2.819   9.337  0.00  0.00    +0.000 C 
BRANCH  11  12
ATOM     12  C   UNL     1      45.683   2.391   8.392  0.00  0.00    +0.000 A 
ATOM     13  C   UNL     1      46.307   3.311   7.549  0.00  0.00    +0.000 A 
ATOM     14  C   UNL     1      47.308   2.865   6.690  0.00  0.00    +0.000 A 
ATOM     15  C   UNL     1      47.657   1.520   6.687  0.00  0.00    +0.000 A 
ATOM     16  C   UNL     1      46.982   0.672   7.547  0.00  0.00    +0.000 A 
ATOM     17  N   UNL     1      46.004   1.075   8.389  0.00  0.00    +0.000 NA
ENDBRANCH  11  12
ENDBRANCH  10  11
ENDBRANCH   8  10
ENDBRANCH   5   8
ENDBRANCH   1   2
BRANCH   1  20
ATOM     18  C   UNL     1      48.790   6.852  14.708  0.00  0.00    +0.000 C 
ATOM     19  O   UNL     1      49.619   6.878  13.806  0.00  0.00    +0.000 OA
ATOM     20  N   UNL     1      47.559   7.454  14.608  0.00  0.00    +0.000 N 
ATOM     21  H   UNL     1      46.904   7.419  15.375  0.00  0.00    +0.000 HD
BRANCH  18  25
ATOM     22  C   UNL     1      50.819   5.489  19.077  0.00  0.00    +0.000 C 
ATOM     23  N   UNL     1      49.957   5.540  17.921  0.00  0.00    +0.000 N 
ATOM     24  C   UNL     1      50.073   6.423  16.876  0.00  0.00    +0.000 A 
ATOM     25  C   UNL     1      49.061   6.164  15.966  0.00  0.00    +0.000 A 
ATOM     26  C   UNL     1      48.307   5.063  16.496  0.00  0.00    +0.000 A 
ATOM     27  C   UNL     1      47.191   4.303  16.125  0.00  0.00    +0.000 A 
ATOM     28  N   UNL     1      46.749   3.310  16.911  0.00  0.00    +0.000 NA
ATOM     29  C   UNL     1      47.412   3.080  18.056  0.00  0.00    +0.000 A 
ATOM     30  N   UNL     1      48.493   3.726  18.533  0.00  0.00    +0.000 NA
ATOM     31  C   UNL     1      48.891   4.708  17.708  0.00  0.00    +0.000 A 
BRANCH  27  32
ATOM     32  O   UNL     1      46.475   4.496  14.968  0.00  0.00    +0.000 OA
ATOM     33  H   UNL     1      47.106   4.743  14.263  0.00  0.00    +0.000 HD
ENDBRANCH  27  32
ENDBRANCH  18  25
ENDBRANCH   1  20
TORSDOF 8
ENDMDL
MODEL 2
REMARK VINA RESULT:    -7.865      2.213      2.705
REMARK INTER + INTRA:         -12.611
REMARK INTER:                 -11.464
REMARK INTRA:                  -1.147
REMARK UNBOUND:                -1.298
REMARK  Name = 
REMARK  9 active torsions:
REMARK  status: ('A' for Active; 'I' for Inactive)
REMARK    1  A    between atoms: C_1  and  N_2
REMARK    2  A    between atoms: C_4  and  C_5
REMARK    3  A    between atoms: N_7  and  C_8
REMARK    4  A    between atoms: C_8  and  C_9
REMARK    5  A    between atoms: C_12  and  N_13
REMARK    6  A    between atoms: N_13  and  C_14
REMARK    7  A    between atoms: C_14  and  C_15
REMARK    8  A    between atoms: C_15  and  C_16
REMARK    9  A    between atoms: C_25  and  O_26
REMARK                            x       y       z     vdW  Elec       q    Type
REMARK                         _______ _______ _______ _____ _____    ______ ____
ROOT
ATOM      1  C   UNL     1      48.229   6.903  13.754  0.00  0.00    +0.000 C 
ENDROOT
BRANCH   1   2
ATOM      2  C   UNL     1      47.117   6.226  13.004  0.00  0.00    +0.000 A 
ATOM      3  C   UNL     1      46.528   5.066  13.516  0.00  0.00    +0.000 A 
ATOM      4  C   UNL     1      45.470   4.445  12.842  0.00  0.00    +0.000 A 
ATOM      5  C   UNL     1      44.998   4.931  11.620  0.00  0.00    +0.000 A 
ATOM      6  C   UNL     1      45.606   6.081  11.103  0.00  0.00    +0.000 A 
ATOM      7  C   UNL     1      46.650   6.725  11.782  0.00  0.00    +0.000 A 
BRANCH   5   8
ATOM      8  N   UNL     1      43.903   4.397  10.959  0.00  0.00    +0.000 N 
ATOM      9  H   UNL     1      42.991   4.526  11.384  0.00  0.00    +0.000 HD
BRANCH   8  10
ATOM     10  C   UNL     1      43.991   3.893   9.593  0.00  0.00    +0.000 C 
BRANCH  10  11
ATOM     11  C   UNL     1      44.594   2.490   9.548  0.00  0.00    +0.000 C 
BRANCH  11  12
ATOM     12  C   UNL     1      45.601   2.370   8.430  0.00  0.00    +0.000 A 
ATOM     13  C   UNL     1      45.858   3.440   7.574  0.00  0.00    +0.000 A 
ATOM     14  C   UNL     1      46.792   3.276   6.554  0.00  0.00    +0.000 A 
ATOM     15  C   UNL     1      47.438   2.055   6.408  0.00  0.00    +0.000 A 
ATOM     16  C   UNL     1      47.118   1.041   7.294  0.00  0.00    +0.000 A 
ATOM     17  N   UNL     1      46.215   1.170   8.291  0.00  0.00    +0.000 NA
ENDBRANCH  11  12
ENDBRANCH  10  11
ENDBRANCH   8  10
ENDBRANCH   5   8
ENDBRANCH   1   2
BRANCH   1  20
ATOM     18  C   UNL     1      49.198   6.565  15.982  0.00  0.00    +0.000 C 
ATOM     19  O   UNL     1      50.343   6.558  15.544  0.00  0.00    +0.000 OA
ATOM     20  N   UNL     1      48.093   6.725  15.181  0.00  0.00    +0.000 N 
ATOM     21  H   UNL     1      47.165   6.733  15.577  0.00  0.00    +0.000 HD
BRANCH  18  25
ATOM     22  C   UNL     1      48.911   4.666  20.605  0.00  0.00    +0.000 C 
ATOM     23  N   UNL     1      48.793   5.562  19.479  0.00  0.00    +0.000 N 
ATOM     24  C   UNL     1      49.207   5.293  18.199  0.00  0.00    +0.000 A 
ATOM     25  C   UNL     1      48.931   6.396  17.406  0.00  0.00    +0.000 A 
ATOM     26  C   UNL     1      48.312   7.369  18.262  0.00  0.00    +0.000 A 
ATOM     27  C   UNL     1      47.793   8.665  18.145  0.00  0.00    +0.000 A 
ATOM     28  N   UNL     1      47.278   9.293  19.213  0.00  0.00    +0.000 NA
ATOM     29  C   UNL     1      47.283   8.636  20.384  0.00  0.00    +0.000 A 
ATOM     30  N   UNL     1      47.745   7.397  20.639  0.00  0.00    +0.000 NA
ATOM     31  C   UNL     1      48.248   6.817  19.537  0.00  0.00    +0.000 A 
BRANCH  27  32
ATOM     32  O   UNL     1      47.764   9.382  16.974  0.00  0.00    +0.000 OA
ATOM     33  H   UNL     1      48.216   8.852  16.287  0.00  0.00    +0.000 HD
ENDBRANCH  27  32
ENDBRANCH  18  25
ENDBRANCH   1  20
TORSDOF 8
ENDMDL
MODEL 3
REMARK VINA RESULT:    -7.770      2.359      2.679
REMARK INTER + INTRA:         -12.474
REMARK INTER:                 -11.464
REMARK INTRA:                  -1.010
REMARK UNBOUND:                -1.298
REMARK  Name = 
REMARK  9 active torsions:
REMARK  status: ('A' for Active; 'I' for Inactive)
REMARK    1  A    between atoms: C_1  and  N_2
REMARK    2  A    between atoms: C_4  and  C_5
REMARK    3  A    between atoms: N_7  and  C_8
REMARK    4  A    between atoms: C_8  and  C_9
REMARK    5  A    between atoms: C_12  and  N_13
REMARK    6  A    between atoms: N_13  and  C_14
REMARK    7  A    between atoms: C_14  and  C_15
REMARK    8  A    between atoms: C_15  and  C_16
REMARK    9  A    between atoms: C_25  and  O_26
REMARK                            x       y       z     vdW  Elec       q    Type
REMARK                         _______ _______ _______ _____ _____    ______ ____
ROOT
ATOM      1  C   UNL     1      48.584   6.528  14.159  0.00  0.00    +0.000 C 
ENDROOT
BRANCH   1   2
ATOM      2  C   UNL     1      47.380   5.997  13.432  0.00  0.00    +0.000 A 
ATOM      3  C   UNL     1      46.897   6.655  12.298  0.00  0.00    +0.000 A 
ATOM      4  C   UNL     1      45.796   6.152  11.595  0.00  0.00    +0.000 A 
ATOM      5  C   UNL     1      45.117   5.009  12.025  0.00  0.00    +0.000 A 
ATOM      6  C   UNL     1      45.593   4.367  13.174  0.00  0.00    +0.000 A 
ATOM      7  C   UNL     1      46.710   4.848  13.871  0.00  0.00    +0.000 A 
BRANCH   5   8
ATOM      8  N   UNL     1      44.074   4.430  11.317  0.00  0.00    +0.000 N 
ATOM      9  H   UNL     1      43.161   4.416  11.758  0.00  0.00    +0.000 HD
BRANCH   8  10
ATOM     10  C   UNL     1      44.193   4.080   9.907  0.00  0.00    +0.000 C 
BRANCH  10  11
ATOM     11  C   UNL     1      44.618   2.624   9.721  0.00  0.00    +0.000 C 
BRANCH  11  12
ATOM     12  C   UNL     1      45.552   2.479   8.544  0.00  0.00    +0.000 A 
ATOM     13  C   UNL     1      45.746   3.527   7.644  0.00  0.00    +0.000 A 
ATOM     14  C   UNL     1      46.612   3.341   6.570  0.00  0.00    +0.000 A 
ATOM     15  C   UNL     1      47.256   2.119   6.415  0.00  0.00    +0.000 A 
ATOM     16  C   UNL     1      47.001   1.128   7.346  0.00  0.00    +0.000 A 
ATOM     17  N   UNL     1      46.163   1.279   8.397  0.00  0.00    +0.000 NA
ENDBRANCH  11  12
ENDBRANCH  10  11
ENDBRANCH   8  10
ENDBRANCH   5   8
ENDBRANCH   1   2
BRANCH   1  20
ATOM     18  C   UNL     1      48.889   6.322  16.583  0.00  0.00    +0.000 C 
ATOM     19  O   UNL     1      49.741   5.449  16.458  0.00  0.00    +0.000 OA
ATOM     20  N   UNL     1      48.261   6.911  15.513  0.00  0.00    +0.000 N 
ATOM     21  H   UNL     1      47.569   7.632  15.653  0.00  0.00    +0.000 HD
BRANCH  18  25
ATOM     22  C   UNL     1      47.246   9.198  20.337  0.00  0.00    +0.000 C 
ATOM     23  N   UNL     1      47.748   8.068  19.591  0.00  0.00    +0.000 N 
ATOM     24  C   UNL     1      48.026   8.059  18.248  0.00  0.00    +0.000 A 
ATOM     25  C   UNL     1      48.479   6.795  17.900  0.00  0.00    +0.000 A 
ATOM     26  C   UNL     1      48.475   6.015  19.106  0.00  0.00    +0.000 A 
ATOM     27  C   UNL     1      48.795   4.707  19.490  0.00  0.00    +0.000 A 
ATOM     28  N   UNL     1      48.653   4.315  20.765  0.00  0.00    +0.000 NA
ATOM     29  C   UNL     1      48.194   5.218  21.646  0.00  0.00    +0.000 A 
ATOM     30  N   UNL     1      47.851   6.500  21.419  0.00  0.00    +0.000 NA
ATOM     31  C   UNL     1      48.014   6.838  20.129  0.00  0.00    +0.000 A 
BRANCH  27  32
ATOM     32  O   UNL     1      49.266   3.744  18.630  0.00  0.00    +0.000 OA
ATOM     33  H   UNL     1      49.707   3.054  19.165  0.00  0.00    +0.000 HD
ENDBRANCH  27  32
ENDBRANCH  18  25
ENDBRANCH   1  20
TORSDOF 8
ENDMDL
MODEL 4
REMARK VINA RESULT:    -7.264      2.501      3.153
REMARK INTER + INTRA:         -11.747
REMARK INTER:                 -10.694
REMARK INTRA:                  -1.054
REMARK UNBOUND:                -1.298
REMARK  Name = 
REMARK  9 active torsions:
REMARK  status: ('A' for Active; 'I' for Inactive)
REMARK    1  A    between atoms: C_1  and  N_2
REMARK    2  A    between atoms: C_4  and  C_5
REMARK    3  A    between atoms: N_7  and  C_8
REMARK    4  A    between atoms: C_8  and  C_9
REMARK    5  A    between atoms: C_12  and  N_13
REMARK    6  A    between atoms: N_13  and  C_14
REMARK    7  A    between atoms: C_14  and  C_15
REMARK    8  A    between atoms: C_15  and  C_16
REMARK    9  A    between atoms: C_25  and  O_26
REMARK                            x       y       z     vdW  Elec       q    Type
REMARK                         _______ _______ _______ _____ _____    ______ ____
ROOT
ATOM      1  C   UNL     1      47.315   4.069  14.882  0.00  0.00    +0.000 C 
ENDROOT
BRANCH   1   2
ATOM      2  C   UNL     1      46.474   4.301  13.658  0.00  0.00    +0.000 A 
ATOM      3  C   UNL     1      45.903   3.219  12.983  0.00  0.00    +0.000 A 
ATOM      4  C   UNL     1      45.092   3.425  11.861  0.00  0.00    +0.000 A 
ATOM      5  C   UNL     1      44.864   4.707  11.351  0.00  0.00    +0.000 A 
ATOM      6  C   UNL     1      45.457   5.784  12.020  0.00  0.00    +0.000 A 
ATOM      7  C   UNL     1      46.250   5.590  13.160  0.00  0.00    +0.000 A 
BRANCH   5   8
ATOM      8  N   UNL     1      44.006   4.965  10.293  0.00  0.00    +0.000 N 
ATOM      9  H   UNL     1      43.380   5.758  10.382  0.00  0.00    +0.000 HD
BRANCH   8  10
ATOM     10  C   UNL     1      44.146   4.305   9.001  0.00  0.00    +0.000 C 
BRANCH  10  11
ATOM     11  C   UNL     1      45.521   4.559   8.384  0.00  0.00    +0.000 C 
BRANCH  11  12
ATOM     12  C   UNL     1      46.148   3.271   7.910  0.00  0.00    +0.000 A 
ATOM     13  C   UNL     1      47.120   3.267   6.910  0.00  0.00    +0.000 A 
ATOM     14  C   UNL     1      47.663   2.051   6.502  0.00  0.00    +0.000 A 
ATOM     15  C   UNL     1      47.221   0.874   7.092  0.00  0.00    +0.000 A 
ATOM     16  C   UNL     1      46.247   0.963   8.071  0.00  0.00    +0.000 A 
ATOM     17  N   UNL     1      45.700   2.129   8.485  0.00  0.00    +0.000 NA
ENDBRANCH  11  12
ENDBRANCH  10  11
ENDBRANCH   8  10
ENDBRANCH   5   8
ENDBRANCH   1   2
BRANCH   1  20
ATOM     18  C   UNL     1      48.520   5.358  16.585  0.00  0.00    +0.000 C 
ATOM     19  O   UNL     1      49.179   4.386  16.935  0.00  0.00    +0.000 OA
ATOM     20  N   UNL     1      47.577   5.302  15.588  0.00  0.00    +0.000 N 
ATOM     21  H   UNL     1      47.058   6.124  15.321  0.00  0.00    +0.000 HD
BRANCH  18  25
ATOM     22  C   UNL     1      49.684  10.153  17.433  0.00  0.00    +0.000 C 
ATOM     23  N   UNL     1      49.211   8.802  17.618  0.00  0.00    +0.000 N 
ATOM     24  C   UNL     1      49.244   7.808  16.673  0.00  0.00    +0.000 A 
ATOM     25  C   UNL     1      48.695   6.659  17.221  0.00  0.00    +0.000 A 
ATOM     26  C   UNL     1      48.321   6.989  18.568  0.00  0.00    +0.000 A 
ATOM     27  C   UNL     1      47.734   6.344  19.664  0.00  0.00    +0.000 A 
ATOM     28  N   UNL     1      47.525   7.003  20.813  0.00  0.00    +0.000 NA
ATOM     29  C   UNL     1      47.896   8.292  20.868  0.00  0.00    +0.000 A 
ATOM     30  N   UNL     1      48.468   9.033  19.900  0.00  0.00    +0.000 NA
ATOM     31  C   UNL     1      48.654   8.324  18.774  0.00  0.00    +0.000 A 
BRANCH  27  32
ATOM     32  O   UNL     1      47.334   5.029  19.662  0.00  0.00    +0.000 OA
ATOM     33  H   UNL     1      46.356   5.014  19.647  0.00  0.00    +0.000 HD
ENDBRANCH  27  32
ENDBRANCH  18  25
ENDBRANCH   1  20
TORSDOF 8
ENDMDL
MODEL 5
REMARK VINA RESULT:    -7.198      1.376      1.755
REMARK INTER + INTRA:         -11.652
REMARK INTER:                 -10.532
REMARK INTRA:                  -1.120
REMARK UNBOUND:                -1.298
REMARK  Name = 
REMARK  9 active torsions:
REMARK  status: ('A' for Active; 'I' for Inactive)
REMARK    1  A    between atoms: C_1  and  N_2
REMARK    2  A    between atoms: C_4  and  C_5
REMARK    3  A    between atoms: N_7  and  C_8
REMARK    4  A    between atoms: C_8  and  C_9
REMARK    5  A    between atoms: C_12  and  N_13
REMARK    6  A    between atoms: N_13  and  C_14
REMARK    7  A    between atoms: C_14  and  C_15
REMARK    8  A    between atoms: C_15  and  C_16
REMARK    9  A    between atoms: C_25  and  O_26
REMARK                            x       y       z     vdW  Elec       q    Type
REMARK                         _______ _______ _______ _____ _____    ______ ____
ROOT
ATOM      1  C   UNL     1      48.105   8.905  13.790  0.00  0.00    +0.000 C 
ENDROOT
BRANCH   1   2
ATOM      2  C   UNL     1      47.146   8.093  12.966  0.00  0.00    +0.000 A 
ATOM      3  C   UNL     1      45.817   8.504  12.828  0.00  0.00    +0.000 A 
ATOM      4  C   UNL     1      44.923   7.773  12.037  0.00  0.00    +0.000 A 
ATOM      5  C   UNL     1      45.310   6.591  11.400  0.00  0.00    +0.000 A 
ATOM      6  C   UNL     1      46.636   6.174  11.561  0.00  0.00    +0.000 A 
ATOM      7  C   UNL     1      47.547   6.912  12.330  0.00  0.00    +0.000 A 
BRANCH   5   8
ATOM      8  N   UNL     1      44.482   5.879  10.545  0.00  0.00    +0.000 N 
ATOM      9  H   UNL     1      43.777   6.401  10.036  0.00  0.00    +0.000 HD
BRANCH   8  10
ATOM     10  C   UNL     1      44.752   4.494  10.179  0.00  0.00    +0.000 C 
BRANCH  10  11
ATOM     11  C   UNL     1      44.529   4.251   8.687  0.00  0.00    +0.000 C 
BRANCH  11  12
ATOM     12  C   UNL     1      45.556   3.292   8.136  0.00  0.00    +0.000 A 
ATOM     13  C   UNL     1      46.551   3.726   7.261  0.00  0.00    +0.000 A 
ATOM     14  C   UNL     1      47.471   2.800   6.774  0.00  0.00    +0.000 A 
ATOM     15  C   UNL     1      47.373   1.470   7.164  0.00  0.00    +0.000 A 
ATOM     16  C   UNL     1      46.350   1.120   8.028  0.00  0.00    +0.000 A 
ATOM     17  N   UNL     1      45.441   1.996   8.513  0.00  0.00    +0.000 NA
ENDBRANCH  11  12
ENDBRANCH  10  11
ENDBRANCH   8  10
ENDBRANCH   5   8
ENDBRANCH   1   2
BRANCH   1  20
ATOM     18  C   UNL     1      48.599   8.308  16.117  0.00  0.00    +0.000 C 
ATOM     19  O   UNL     1      47.870   9.189  16.557  0.00  0.00    +0.000 OA
ATOM     20  N   UNL     1      48.782   8.091  14.772  0.00  0.00    +0.000 N 
ATOM     21  H   UNL     1      49.384   7.351  14.446  0.00  0.00    +0.000 HD
BRANCH  18  25
ATOM     22  C   UNL     1      51.747   6.545  19.588  0.00  0.00    +0.000 C 
ATOM     23  N   UNL     1      50.738   6.613  18.557  0.00  0.00    +0.000 N 
ATOM     24  C   UNL     1      50.316   7.757  17.928  0.00  0.00    +0.000 A 
ATOM     25  C   UNL     1      49.335   7.419  17.009  0.00  0.00    +0.000 A 
ATOM     26  C   UNL     1      49.173   5.994  17.092  0.00  0.00    +0.000 A 
ATOM     27  C   UNL     1      48.388   5.008  16.482  0.00  0.00    +0.000 A 
ATOM     28  N   UNL     1      48.512   3.720  16.836  0.00  0.00    +0.000 NA
ATOM     29  C   UNL     1      49.407   3.421  17.791  0.00  0.00    +0.000 A 
ATOM     30  N   UNL     1      50.222   4.261  18.458  0.00  0.00    +0.000 NA
ATOM     31  C   UNL     1      50.056   5.534  18.063  0.00  0.00    +0.000 A 
BRANCH  27  32
ATOM     32  O   UNL     1      47.458   5.258  15.502  0.00  0.00    +0.000 OA
ATOM     33  H   UNL     1      46.570   5.140  15.895  0.00  0.00    +0.000 HD
ENDBRANCH  27  32
ENDBRANCH  18  25
ENDBRANCH   1  20
TORSDOF 8
ENDMDL
MODEL 6
REMARK VINA RESULT:    -7.087      2.228      3.503
REMARK INTER + INTRA:         -11.492
REMARK INTER:                 -10.388
REMARK INTRA:                  -1.103
REMARK UNBOUND:                -1.298
REMARK  Name = 
REMARK  9 active torsions:
REMARK  status: ('A' for Active; 'I' for Inactive)
REMARK    1  A    between atoms: C_1  and  N_2
REMARK    2  A    between atoms: C_4  and  C_5
REMARK    3  A    between atoms: N_7  and  C_8
REMARK    4  A    between atoms: C_8  and  C_9
REMARK    5  A    between atoms: C_12  and  N_13
REMARK    6  A    between atoms: N_13  and  C_14
REMARK    7  A    between atoms: C_14  and  C_15
REMARK    8  A    between atoms: C_15  and  C_16
REMARK    9  A    between atoms: C_25  and  O_26
REMARK                            x       y       z     vdW  Elec       q    Type
REMARK                         _______ _______ _______ _____ _____    ______ ____
ROOT
ATOM      1  C   UNL     1      47.313   3.830  14.873  0.00  0.00    +0.000 C 
ENDROOT
BRANCH   1   2
ATOM      2  C   UNL     1      46.479   4.199  13.679  0.00  0.00    +0.000 A 
ATOM      3  C   UNL     1      46.331   5.540  13.313  0.00  0.00    +0.000 A 
ATOM      4  C   UNL     1      45.582   5.893  12.184  0.00  0.00    +0.000 A 
ATOM      5  C   UNL     1      44.922   4.930  11.415  0.00  0.00    +0.000 A 
ATOM      6  C   UNL     1      45.058   3.591  11.800  0.00  0.00    +0.000 A 
ATOM      7  C   UNL     1      45.826   3.225  12.915  0.00  0.00    +0.000 A 
BRANCH   5   8
ATOM      8  N   UNL     1      44.238   5.225  10.247  0.00  0.00    +0.000 N 
ATOM      9  H   UNL     1      43.828   6.149  10.166  0.00  0.00    +0.000 HD
BRANCH   8  10
ATOM     10  C   UNL     1      44.303   4.366   9.071  0.00  0.00    +0.000 C 
BRANCH  10  11
ATOM     11  C   UNL     1      45.601   4.572   8.292  0.00  0.00    +0.000 C 
BRANCH  11  12
ATOM     12  C   UNL     1      46.202   3.249   7.882  0.00  0.00    +0.000 A 
ATOM     13  C   UNL     1      45.723   2.048   8.403  0.00  0.00    +0.000 A 
ATOM     14  C   UNL     1      46.316   0.855   7.999  0.00  0.00    +0.000 A 
ATOM     15  C   UNL     1      47.371   0.888   7.095  0.00  0.00    +0.000 A 
ATOM     16  C   UNL     1      47.791   2.122   6.632  0.00  0.00    +0.000 A 
ATOM     17  N   UNL     1      47.237   3.297   7.010  0.00  0.00    +0.000 NA
ENDBRANCH  11  12
ENDBRANCH  10  11
ENDBRANCH   8  10
ENDBRANCH   5   8
ENDBRANCH   1   2
BRANCH   1  20
ATOM     18  C   UNL     1      48.507   4.941  16.705  0.00  0.00    +0.000 C 
ATOM     19  O   UNL     1      49.244   3.978  16.884  0.00  0.00    +0.000 OA
ATOM     20  N   UNL     1      47.526   4.962  15.743  0.00  0.00    +0.000 N 
ATOM     21  H   UNL     1      46.942   5.776  15.619  0.00  0.00    +0.000 HD
BRANCH  18  25
ATOM     22  C   UNL     1      47.948   8.327  20.350  0.00  0.00    +0.000 C 
ATOM     23  N   UNL     1      48.385   7.672  19.140  0.00  0.00    +0.000 N 
ATOM     24  C   UNL     1      47.984   6.430  18.715  0.00  0.00    +0.000 A 
ATOM     25  C   UNL     1      48.624   6.146  17.519  0.00  0.00    +0.000 A 
ATOM     26  C   UNL     1      49.445   7.285  17.215  0.00  0.00    +0.000 A 
ATOM     27  C   UNL     1      50.331   7.677  16.204  0.00  0.00    +0.000 A 
ATOM     28  N   UNL     1      50.948   8.867  16.262  0.00  0.00    +0.000 NA
ATOM     29  C   UNL     1      50.685   9.655  17.316  0.00  0.00    +0.000 A 
ATOM     30  N   UNL     1      49.861   9.407  18.352  0.00  0.00    +0.000 NA
ATOM     31  C   UNL     1      49.271   8.205  18.243  0.00  0.00    +0.000 A 
BRANCH  27  32
ATOM     32  O   UNL     1      50.638   6.911  15.106  0.00  0.00    +0.000 OA
ATOM     33  H   UNL     1      50.275   7.361  14.316  0.00  0.00    +0.000 HD
ENDBRANCH  27  32
ENDBRANCH  18  25
ENDBRANCH   1  20
TORSDOF 8
ENDMDL
MODEL 7
REMARK VINA RESULT:    -7.054      1.757      2.448
REMARK INTER + INTRA:         -11.445
REMARK INTER:                 -10.329
REMARK INTRA:                  -1.116
REMARK UNBOUND:                -1.298
REMARK  Name = 
REMARK  9 active torsions:
REMARK  status: ('A' for Active; 'I' for Inactive)
REMARK    1  A    between atoms: C_1  and  N_2
REMARK    2  A    between atoms: C_4  and  C_5
REMARK    3  A    between atoms: N_7  and  C_8
REMARK    4  A    between atoms: C_8  and  C_9
REMARK    5  A    between atoms: C_12  and  N_13
REMARK    6  A    between atoms: N_13  and  C_14
REMARK    7  A    between atoms: C_14  and  C_15
REMARK    8  A    between atoms: C_15  and  C_16
REMARK    9  A    between atoms: C_25  and  O_26
REMARK                            x       y       z     vdW  Elec       q    Type
REMARK                         _______ _______ _______ _____ _____    ______ ____
ROOT
ATOM      1  C   UNL     1      47.208   8.990  12.667  0.00  0.00    +0.000 C 
ENDROOT
BRANCH   1   2
ATOM      2  C   UNL     1      46.363   7.858  12.153  0.00  0.00    +0.000 A 
ATOM      3  C   UNL     1      46.932   6.600  11.934  0.00  0.00    +0.000 A 
ATOM      4  C   UNL     1      46.148   5.531  11.486  0.00  0.00    +0.000 A 
ATOM      5  C   UNL     1      44.790   5.691  11.199  0.00  0.00    +0.000 A 
ATOM      6  C   UNL     1      44.232   6.959  11.401  0.00  0.00    +0.000 A 
ATOM      7  C   UNL     1      45.003   8.031  11.873  0.00  0.00    +0.000 A 
BRANCH   5   8
ATOM      8  N   UNL     1      43.959   4.644  10.831  0.00  0.00    +0.000 N 
ATOM      9  H   UNL     1      43.167   4.442  11.432  0.00  0.00    +0.000 HD
BRANCH   8  10
ATOM     10  C   UNL     1      44.044   4.009   9.521  0.00  0.00    +0.000 C 
BRANCH  10  11
ATOM     11  C   UNL     1      44.694   2.628   9.605  0.00  0.00    +0.000 C 
BRANCH  11  12
ATOM     12  C   UNL     1      45.638   2.404   8.449  0.00  0.00    +0.000 A 
ATOM     13  C   UNL     1      45.899   3.416   7.525  0.00  0.00    +0.000 A 
ATOM     14  C   UNL     1      46.773   3.156   6.472  0.00  0.00    +0.000 A 
ATOM     15  C   UNL     1      47.356   1.900   6.361  0.00  0.00    +0.000 A 
ATOM     16  C   UNL     1      47.037   0.950   7.315  0.00  0.00    +0.000 A 
ATOM     17  N   UNL     1      46.191   1.172   8.346  0.00  0.00    +0.000 NA
ENDBRANCH  11  12
ENDBRANCH  10  11
ENDBRANCH   8  10
ENDBRANCH   5   8
ENDBRANCH   1   2
BRANCH   1  20
ATOM     18  C   UNL     1      48.698   8.529  14.560  0.00  0.00    +0.000 C 
ATOM     19  O   UNL     1      47.881   8.942  15.375  0.00  0.00    +0.000 OA
ATOM     20  N   UNL     1      48.460   8.515  13.206  0.00  0.00    +0.000 N 
ATOM     21  H   UNL     1      49.153   8.161  12.565  0.00  0.00    +0.000 HD
BRANCH  18  25
ATOM     22  C   UNL     1      53.631   7.867  15.099  0.00  0.00    +0.000 C 
ATOM     23  N   UNL     1      52.202   7.710  15.233  0.00  0.00    +0.000 N 
ATOM     24  C   UNL     1      51.253   8.466  14.592  0.00  0.00    +0.000 A 
ATOM     25  C   UNL     1      49.999   8.022  14.982  0.00  0.00    +0.000 A 
ATOM     26  C   UNL     1      50.217   6.938  15.898  0.00  0.00    +0.000 A 
ATOM     27  C   UNL     1      49.438   6.055  16.656  0.00  0.00    +0.000 A 
ATOM     28  N   UNL     1      50.017   5.134  17.440  0.00  0.00    +0.000 NA
ATOM     29  C   UNL     1      51.359   5.095  17.469  0.00  0.00    +0.000 A 
ATOM     30  N   UNL     1      52.226   5.877  16.797  0.00  0.00    +0.000 NA
ATOM     31  C   UNL     1      51.593   6.778  16.030  0.00  0.00    +0.000 A 
BRANCH  27  32
ATOM     32  O   UNL     1      48.064   6.051  16.665  0.00  0.00    +0.000 OA
ATOM     33  H   UNL     1      47.767   5.119  16.660  0.00  0.00    +0.000 HD
ENDBRANCH  27  32
ENDBRANCH  18  25
ENDBRANCH   1  20
TORSDOF 8
ENDMDL
MODEL 8
REMARK VINA RESULT:    -7.012      1.722      2.720
REMARK INTER + INTRA:         -11.384
REMARK INTER:                 -10.559
REMARK INTRA:                  -0.824
REMARK UNBOUND:                -1.298
REMARK  Name = 
REMARK  9 active torsions:
REMARK  status: ('A' for Active; 'I' for Inactive)
REMARK    1  A    between atoms: C_1  and  N_2
REMARK    2  A    between atoms: C_4  and  C_5
REMARK    3  A    between atoms: N_7  and  C_8
REMARK    4  A    between atoms: C_8  and  C_9
REMARK    5  A    between atoms: C_12  and  N_13
REMARK    6  A    between atoms: N_13  and  C_14
REMARK    7  A    between atoms: C_14  and  C_15
REMARK    8  A    between atoms: C_15  and  C_16
REMARK    9  A    between atoms: C_25  and  O_26
REMARK                            x       y       z     vdW  Elec       q    Type
REMARK                         _______ _______ _______ _____ _____    ______ ____
ROOT
ATOM      1  C   UNL     1      48.170   6.945  13.593  0.00  0.00    +0.000 C 
ENDROOT
BRANCH   1   2
ATOM      2  C   UNL     1      47.090   6.200  12.860  0.00  0.00    +0.000 A 
ATOM      3  C   UNL     1      46.680   4.941  13.305  0.00  0.00    +0.000 A 
ATOM      4  C   UNL     1      45.653   4.251  12.649  0.00  0.00    +0.000 A 
ATOM      5  C   UNL     1      45.037   4.773  11.508  0.00  0.00    +0.000 A 
ATOM      6  C   UNL     1      45.468   6.026  11.056  0.00  0.00    +0.000 A 
ATOM      7  C   UNL     1      46.479   6.735  11.721  0.00  0.00    +0.000 A 
BRANCH   5   8
ATOM      8  N   UNL     1      43.965   4.164  10.875  0.00  0.00    +0.000 N 
ATOM      9  H   UNL     1      43.038   4.520  11.081  0.00  0.00    +0.000 HD
BRANCH   8  10
ATOM     10  C   UNL     1      44.144   3.229   9.771  0.00  0.00    +0.000 C 
BRANCH  10  11
ATOM     11  C   UNL     1      44.704   3.922   8.530  0.00  0.00    +0.000 C 
BRANCH  11  12
ATOM     12  C   UNL     1      45.731   3.054   7.843  0.00  0.00    +0.000 A 
ATOM     13  C   UNL     1      46.463   3.528   6.754  0.00  0.00    +0.000 A 
ATOM     14  C   UNL     1      47.393   2.685   6.151  0.00  0.00    +0.000 A 
ATOM     15  C   UNL     1      47.566   1.396   6.639  0.00  0.00    +0.000 A 
ATOM     16  C   UNL     1      46.793   1.001   7.717  0.00  0.00    +0.000 A 
ATOM     17  N   UNL     1      45.881   1.795   8.321  0.00  0.00    +0.000 NA
ENDBRANCH  11  12
ENDBRANCH  10  11
ENDBRANCH   8  10
ENDBRANCH   5   8
ENDBRANCH   1   2
BRANCH   1  20
ATOM     18  C   UNL     1      49.234   6.962  15.803  0.00  0.00    +0.000 C 
ATOM     19  O   UNL     1      49.647   8.107  15.658  0.00  0.00    +0.000 OA
ATOM     20  N   UNL     1      48.502   6.305  14.844  0.00  0.00    +0.000 N 
ATOM     21  H   UNL     1      48.172   5.365  15.002  0.00  0.00    +0.000 HD
BRANCH  18  25
ATOM     22  C   UNL     1      48.683   4.526  20.142  0.00  0.00    +0.000 C 
ATOM     23  N   UNL     1      49.274   5.120  18.966  0.00  0.00    +0.000 N 
ATOM     24  C   UNL     1      48.594   5.802  17.989  0.00  0.00    +0.000 A 
ATOM     25  C   UNL     1      49.502   6.211  17.024  0.00  0.00    +0.000 A 
ATOM     26  C   UNL     1      50.792   5.753  17.458  0.00  0.00    +0.000 A 
ATOM     27  C   UNL     1      52.114   5.804  16.998  0.00  0.00    +0.000 A 
ATOM     28  N   UNL     1      53.104   5.232  17.699  0.00  0.00    +0.000 NA
ATOM     29  C   UNL     1      52.778   4.614  18.846  0.00  0.00    +0.000 A 
ATOM     30  N   UNL     1      51.559   4.489  19.404  0.00  0.00    +0.000 NA
ATOM     31  C   UNL     1      50.608   5.080  18.662  0.00  0.00    +0.000 A 
BRANCH  27  32
ATOM     32  O   UNL     1      52.502   6.420  15.833  0.00  0.00    +0.000 OA
ATOM     33  H   UNL     1      52.340   7.379  15.932  0.00  0.00    +0.000 HD
ENDBRANCH  27  32
ENDBRANCH  18  25
ENDBRANCH   1  20
TORSDOF 8
ENDMDL
MODEL 9
REMARK VINA RESULT:    -6.941      3.607      5.658
REMARK INTER + INTRA:         -11.283
REMARK INTER:                 -10.035
REMARK INTRA:                  -1.248
REMARK UNBOUND:                -1.298
REMARK  Name = 
REMARK  9 active torsions:
REMARK  status: ('A' for Active; 'I' for Inactive)
REMARK    1  A    between atoms: C_1  and  N_2
REMARK    2  A    between atoms: C_4  and  C_5
REMARK    3  A    between atoms: N_7  and  C_8
REMARK    4  A    between atoms: C_8  and  C_9
REMARK    5  A    between atoms: C_12  and  N_13
REMARK    6  A    between atoms: N_13  and  C_14
REMARK    7  A    between atoms: C_14  and  C_15
REMARK    8  A    between atoms: C_15  and  C_16
REMARK    9  A    between atoms: C_25  and  O_26
REMARK                            x       y       z     vdW  Elec       q    Type
REMARK                         _______ _______ _______ _____ _____    ______ ____
ROOT
ATOM      1  C   UNL     1      48.442   6.604  13.614  0.00  0.00    +0.000 C 
ENDROOT
BRANCH   1   2
ATOM      2  C   UNL     1      47.264   6.044  12.868  0.00  0.00    +0.000 A 
ATOM      3  C   UNL     1      46.566   4.947  13.380  0.00  0.00    +0.000 A 
ATOM      4  C   UNL     1      45.447   4.437  12.710  0.00  0.00    +0.000 A 
ATOM      5  C   UNL     1      45.019   4.973  11.492  0.00  0.00    +0.000 A 
ATOM      6  C   UNL     1      45.736   6.058  10.975  0.00  0.00    +0.000 A 
ATOM      7  C   UNL     1      46.843   6.592  11.651  0.00  0.00    +0.000 A 
BRANCH   5   8
ATOM      8  N   UNL     1      43.873   4.553  10.835  0.00  0.00    +0.000 N 
ATOM      9  H   UNL     1      42.981   4.850  11.216  0.00  0.00    +0.000 HD
BRANCH   8  10
ATOM     10  C   UNL     1      43.917   3.930   9.518  0.00  0.00    +0.000 C 
BRANCH  10  11
ATOM     11  C   UNL     1      44.590   2.559   9.564  0.00  0.00    +0.000 C 
BRANCH  11  12
ATOM     12  C   UNL     1      45.600   2.414   8.452  0.00  0.00    +0.000 A 
ATOM     13  C   UNL     1      45.908   3.486   7.614  0.00  0.00    +0.000 A 
ATOM     14  C   UNL     1      46.842   3.299   6.598  0.00  0.00    +0.000 A 
ATOM     15  C   UNL     1      47.438   2.054   6.438  0.00  0.00    +0.000 A 
ATOM     16  C   UNL     1      47.070   1.041   7.306  0.00  0.00    +0.000 A 
ATOM     17  N   UNL     1      46.165   1.192   8.299  0.00  0.00    +0.000 NA
ENDBRANCH  11  12
ENDBRANCH  10  11
ENDBRANCH   8  10
ENDBRANCH   5   8
ENDBRANCH   1   2
BRANCH   1  20
ATOM     18  C   UNL     1      50.350   8.104  13.264  0.00  0.00    +0.000 C 
ATOM     19  O   UNL     1      50.646   8.097  14.454  0.00  0.00    +0.000 OA
ATOM     20  N   UNL     1      49.283   7.405  12.756  0.00  0.00    +0.000 N 
ATOM     21  H   UNL     1      49.073   7.428  11.769  0.00  0.00    +0.000 HD
BRANCH  18  25
ATOM     22  C   UNL     1      54.101   9.894  10.474  0.00  0.00    +0.000 C 
ATOM     23  N   UNL     1      52.791   9.688  11.042  0.00  0.00    +0.000 N 
ATOM     24  C   UNL     1      52.480   8.781  12.024  0.00  0.00    +0.000 A 
ATOM     25  C   UNL     1      51.124   8.874  12.297  0.00  0.00    +0.000 A 
ATOM     26  C   UNL     1      50.604   9.898  11.434  0.00  0.00    +0.000 A 
ATOM     27  C   UNL     1      49.366  10.499  11.177  0.00  0.00    +0.000 A 
ATOM     28  N   UNL     1      49.254  11.464  10.252  0.00  0.00    +0.000 NA
ATOM     29  C   UNL     1      50.366  11.824   9.590  0.00  0.00    +0.000 A 
ATOM     30  N   UNL     1      51.612  11.335   9.734  0.00  0.00    +0.000 NA
ATOM     31  C   UNL     1      51.665  10.374  10.671  0.00  0.00    +0.000 A 
BRANCH  27  32
ATOM     32  O   UNL     1      48.198  10.170  11.822  0.00  0.00    +0.000 OA
ATOM     33  H   UNL     1      47.908  10.951  12.335  0.00  0.00    +0.000 HD
ENDBRANCH  27  32
ENDBRANCH  18  25
ENDBRANCH   1  20
TORSDOF 8
ENDMDL
