MODEL 1
REMARK VINA RESULT:    -7.753      0.000      0.000
REMARK INTER + INTRA:          -9.062
REMARK INTER:                  -9.113
REMARK INTRA:                   0.051
REMARK UNBOUND:                 0.051
REMARK  Name = 
REMARK  3 active torsions:
REMARK  status: ('A' for Active; 'I' for Inactive)
REMARK    1  A    between atoms: N_5  and  C_6
REMARK    2  A    between atoms: C_6  and  C_7
REMARK    3  A    between atoms: C_11  and  C_12
REMARK                            x       y       z     vdW  Elec       q    Type
REMARK                         _______ _______ _______ _____ _____    ______ ____
ROOT
ATOM      1  C   UNL     1      45.459   5.316  12.034  0.00  0.00    +0.000 A 
ATOM      2  C   UNL     1      46.171   6.234  11.263  0.00  0.00    +0.000 A 
ATOM      3  C   UNL     1      47.309   6.831  11.789  0.00  0.00    +0.000 A 
ATOM      4  C   UNL     1      47.736   6.473  13.064  0.00  0.00    +0.000 A 
ATOM      5  C   UNL     1      47.035   5.499  13.768  0.00  0.00    +0.000 A 
ATOM      6  N   UNL     1      45.908   4.941  13.261  0.00  0.00    +0.000 NA
ENDROOT
BRANCH   5   7
ATOM      7  C   UNL     1      47.433   5.003  15.098  0.00  0.00    +0.000 A 
ATOM      8  C   UNL     1      48.335   5.674  15.935  0.00  0.00    +0.000 A 
ATOM      9  C   UNL     1      48.681   5.140  17.177  0.00  0.00    +0.000 A 
ATOM     10  C   UNL     1      48.119   3.937  17.562  0.00  0.00    +0.000 A 
ATOM     11  N   UNL     1      47.250   3.247  16.800  0.00  0.00    +0.000 NA
ATOM     12  C   UNL     1      46.936   3.792  15.595  0.00  0.00    +0.000 A 
ENDBRANCH   5   7
BRANCH   1  13
ATOM     13  C   UNL     1      44.091   4.804  11.561  0.00  0.00    +0.000 C 
ATOM     14  C   UNL     1      42.842   5.144  12.355  0.00  0.00    +0.000 C 
ATOM     15  C   UNL     1      43.162   5.945  11.137  0.00  0.00    +0.000 C 
BRANCH  13  20
ATOM     16  C   UNL     1      46.380   2.701   7.385  0.00  0.00    +0.000 A 
ATOM     17  C   UNL     1      46.036   4.025   7.610  0.00  0.00    +0.000 A 
ATOM     18  C   UNL     1      45.299   4.357   8.751  0.00  0.00    +0.000 A 
ATOM     19  C   UNL     1      44.917   3.357   9.638  0.00  0.00    +0.000 A 
ATOM     20  N   UNL     1      44.090   3.567  10.750  0.00  0.00    +0.000 N 
ATOM     21  N   UNL     1      45.259   2.065   9.428  0.00  0.00    +0.000 NA
ATOM     22  C   UNL     1      45.978   1.768   8.321  0.00  0.00    +0.000 A 
ATOM     23  H   UNL     1      44.096   2.681  11.250  0.00  0.00    +0.000 HD
ENDBRANCH  13  20
ENDBRANCH   1  13
TORSDOF 3
ENDMDL
MODEL 2
REMARK VINA RESULT:    -7.747      2.033      3.724
REMARK INTER + INTRA:          -9.055
REMARK INTER:                  -8.937
REMARK INTRA:                  -0.117
REMARK UNBOUND:                 0.051
REMARK  Name = 
REMARK  3 active torsions:
REMARK  status: ('A' for Active; 'I' for Inactive)
REMARK    1  A    between atoms: N_5  and  C_6
REMARK    2  A    between atoms: C_6  and  C_7
REMARK    3  A    between atoms: C_11  and  C_12
REMARK                            x       y       z     vdW  Elec       q    Type
REMARK                         _______ _______ _______ _____ _____    ______ ____
ROOT
ATOM      1  C   UNL     1      45.073   5.125  12.265  0.00  0.00    +0.000 A 
ATOM      2  C   UNL     1      45.640   4.192  13.133  0.00  0.00    +0.000 A 
ATOM      3  C   UNL     1      46.906   4.424  13.654  0.00  0.00    +0.000 A 
ATOM      4  C   UNL     1      47.569   5.603  13.328  0.00  0.00    +0.000 A 
ATOM      5  C   UNL     1      46.934   6.539  12.517  0.00  0.00    +0.000 A 
ATOM      6  N   UNL     1      45.710   6.294  11.987  0.00  0.00    +0.000 NA
ENDROOT
BRANCH   5   7
ATOM      7  C   UNL     1      47.518   7.844  12.157  0.00  0.00    +0.000 A 
ATOM      8  C   UNL     1      48.856   8.011  11.770  0.00  0.00    +0.000 A 
ATOM      9  C   UNL     1      49.350   9.278  11.457  0.00  0.00    +0.000 A 
ATOM     10  C   UNL     1      48.496  10.362  11.539  0.00  0.00    +0.000 A 
ATOM     11  N   UNL     1      47.205  10.263  11.907  0.00  0.00    +0.000 NA
ATOM     12  C   UNL     1      46.755   9.016  12.209  0.00  0.00    +0.000 A 
ENDBRANCH   5   7
BRANCH   1  13
ATOM     13  C   UNL     1      43.774   4.797  11.516  0.00  0.00    +0.000 C 
ATOM     14  C   UNL     1      42.439   5.236  12.092  0.00  0.00    +0.000 C 
ATOM     15  C   UNL     1      43.063   6.056  11.013  0.00  0.00    +0.000 C 
BRANCH  13  20
ATOM     16  C   UNL     1      46.449   2.776   7.533  0.00  0.00    +0.000 A 
ATOM     17  C   UNL     1      46.164   4.106   7.800  0.00  0.00    +0.000 A 
ATOM     18  C   UNL     1      45.307   4.425   8.858  0.00  0.00    +0.000 A 
ATOM     19  C   UNL     1      44.749   3.406   9.622  0.00  0.00    +0.000 A 
ATOM     20  N   UNL     1      43.800   3.611  10.632  0.00  0.00    +0.000 N 
ATOM     21  N   UNL     1      45.032   2.107   9.372  0.00  0.00    +0.000 NA
ATOM     22  C   UNL     1      45.869   1.822   8.348  0.00  0.00    +0.000 A 
ATOM     23  H   UNL     1      43.683   2.701  11.070  0.00  0.00    +0.000 HD
ENDBRANCH  13  20
ENDBRANCH   1  13
TORSDOF 3
ENDMDL
MODEL 3
REMARK VINA RESULT:    -7.212      2.613      7.596
REMARK INTER + INTRA:          -8.426
REMARK INTER:                  -7.898
REMARK INTRA:                  -0.528
REMARK UNBOUND:                 0.051
REMARK  Name = 
REMARK  3 active torsions:
REMARK  status: ('A' for Active; 'I' for Inactive)
REMARK    1  A    between atoms: N_5  and  C_6
REMARK    2  A    between atoms: C_6  and  C_7
REMARK    3  A    between atoms: C_11  and  C_12
REMARK                            x       y       z     vdW  Elec       q    Type
REMARK                         _______ _______ _______ _____ _____    ______ ____
ROOT
ATOM      1  C   UNL     1      48.198   4.589  16.231  0.00  0.00    +0.000 A 
ATOM      2  C   UNL     1      48.863   5.792  16.468  0.00  0.00    +0.000 A 
ATOM      3  C   UNL     1      48.821   6.796  15.511  0.00  0.00    +0.000 A 
ATOM      4  C   UNL     1      48.086   6.595  14.347  0.00  0.00    +0.000 A 
ATOM      5  C   UNL     1      47.380   5.407  14.185  0.00  0.00    +0.000 A 
ATOM      6  N   UNL     1      47.448   4.418  15.111  0.00  0.00    +0.000 NA
ENDROOT
BRANCH   5   7
ATOM      7  C   UNL     1      46.524   5.114  13.022  0.00  0.00    +0.000 A 
ATOM      8  C   UNL     1      46.302   6.022  11.977  0.00  0.00    +0.000 A 
ATOM      9  C   UNL     1      45.466   5.687  10.911  0.00  0.00    +0.000 A 
ATOM     10  C   UNL     1      44.861   4.443  10.908  0.00  0.00    +0.000 A 
ATOM     11  N   UNL     1      45.034   3.532  11.884  0.00  0.00    +0.000 NA
ATOM     12  C   UNL     1      45.851   3.891  12.910  0.00  0.00    +0.000 A 
ENDBRANCH   5   7
BRANCH   1  13
ATOM     13  C   UNL     1      48.400   3.394  17.173  0.00  0.00    +0.000 C 
ATOM     14  C   UNL     1      48.103   3.544  18.655  0.00  0.00    +0.000 C 
ATOM     15  C   UNL     1      47.080   2.904  17.777  0.00  0.00    +0.000 C 
BRANCH  13  20
ATOM     16  C   UNL     1      53.299   1.905  18.113  0.00  0.00    +0.000 A 
ATOM     17  C   UNL     1      52.770   3.187  18.101  0.00  0.00    +0.000 A 
ATOM     18  C   UNL     1      51.448   3.379  17.687  0.00  0.00    +0.000 A 
ATOM     19  C   UNL     1      50.687   2.286  17.288  0.00  0.00    +0.000 A 
ATOM     20  N   UNL     1      49.393   2.381  16.757  0.00  0.00    +0.000 N 
ATOM     21  N   UNL     1      51.196   1.033  17.307  0.00  0.00    +0.000 NA
ATOM     22  C   UNL     1      52.475   0.870  17.718  0.00  0.00    +0.000 A 
ATOM     23  H   UNL     1      49.073   1.419  16.677  0.00  0.00    +0.000 HD
ENDBRANCH  13  20
ENDBRANCH   1  13
TORSDOF 3
ENDMDL
MODEL 4
REMARK VINA RESULT:    -6.966      2.427      4.063
REMARK INTER + INTRA:          -8.136
REMARK INTER:                  -7.967
REMARK INTRA:                  -0.169
REMARK UNBOUND:                 0.051
REMARK  Name = 
REMARK  3 active torsions:
REMARK  status: ('A' for Active; 'I' for Inactive)
REMARK    1  A    between atoms: N_5  and  C_6
REMARK    2  A    between atoms: C_6  and  C_7
REMARK    3  A    between atoms: C_11  and  C_12
REMARK                            x       y       z     vdW  Elec       q    Type
REMARK                         _______ _______ _______ _____ _____    ______ ____
ROOT
ATOM      1  C   UNL     1      45.680   4.949  11.378  0.00  0.00    +0.000 A 
ATOM      2  C   UNL     1      45.666   4.199  12.554  0.00  0.00    +0.000 A 
ATOM      3  C   UNL     1      46.409   4.627  13.647  0.00  0.00    +0.000 A 
ATOM      4  C   UNL     1      47.125   5.817  13.557  0.00  0.00    +0.000 A 
ATOM      5  C   UNL     1      47.052   6.569  12.389  0.00  0.00    +0.000 A 
ATOM      6  N   UNL     1      46.348   6.131  11.315  0.00  0.00    +0.000 NA
ENDROOT
BRANCH   5   7
ATOM      7  C   UNL     1      47.720   7.870  12.207  0.00  0.00    +0.000 A 
ATOM      8  C   UNL     1      47.040   9.096  12.219  0.00  0.00    +0.000 A 
ATOM      9  C   UNL     1      47.731  10.293  12.024  0.00  0.00    +0.000 A 
ATOM     10  C   UNL     1      49.098  10.243  11.819  0.00  0.00    +0.000 A 
ATOM     11  N   UNL     1      49.803   9.097  11.796  0.00  0.00    +0.000 NA
ATOM     12  C   UNL     1      49.100   7.949  11.984  0.00  0.00    +0.000 A 
ENDBRANCH   5   7
BRANCH   1  13
ATOM     13  C   UNL     1      45.041   4.393  10.098  0.00  0.00    +0.000 C 
ATOM     14  C   UNL     1      44.075   3.225  10.184  0.00  0.00    +0.000 C 
ATOM     15  C   UNL     1      43.524   4.607  10.070  0.00  0.00    +0.000 C 
BRANCH  13  20
ATOM     16  C   UNL     1      47.029   1.696   6.114  0.00  0.00    +0.000 A 
ATOM     17  C   UNL     1      46.934   1.329   7.448  0.00  0.00    +0.000 A 
ATOM     18  C   UNL     1      46.487   2.264   8.386  0.00  0.00    +0.000 A 
ATOM     19  C   UNL     1      46.151   3.548   7.971  0.00  0.00    +0.000 A 
ATOM     20  N   UNL     1      45.795   4.588   8.841  0.00  0.00    +0.000 N 
ATOM     21  N   UNL     1      46.232   3.908   6.669  0.00  0.00    +0.000 NA
ATOM     22  C   UNL     1      46.661   2.985   5.778  0.00  0.00    +0.000 A 
ATOM     23  H   UNL     1      45.500   5.347   8.233  0.00  0.00    +0.000 HD
ENDBRANCH  13  20
ENDBRANCH   1  13
TORSDOF 3
ENDMDL
MODEL 5
REMARK VINA RESULT:    -6.934      2.335      6.829
REMARK INTER + INTRA:          -8.099
REMARK INTER:                  -8.240
REMARK INTRA:                   0.141
REMARK UNBOUND:                 0.051
REMARK  Name = 
REMARK  3 active torsions:
REMARK  status: ('A' for Active; 'I' for Inactive)
REMARK    1  A    between atoms: N_5  and  C_6
REMARK    2  A    between atoms: C_6  and  C_7
REMARK    3  A    between atoms: C_11  and  C_12
REMARK                            x       y       z     vdW  Elec       q    Type
REMARK                         _______ _______ _______ _____ _____    ______ ____
ROOT
ATOM      1  C   UNL     1      45.042   4.426  11.664  0.00  0.00    +0.000 A 
ATOM      2  C   UNL     1      44.001   3.670  12.203  0.00  0.00    +0.000 A 
ATOM      3  C   UNL     1      43.464   2.623  11.466  0.00  0.00    +0.000 A 
ATOM      4  C   UNL     1      44.000   2.326  10.217  0.00  0.00    +0.000 A 
ATOM      5  C   UNL     1      45.086   3.060   9.751  0.00  0.00    +0.000 A 
ATOM      6  N   UNL     1      45.588   4.101  10.462  0.00  0.00    +0.000 NA
ENDROOT
BRANCH   5   7
ATOM      7  C   UNL     1      45.768   2.793   8.472  0.00  0.00    +0.000 A 
ATOM      8  C   UNL     1      46.303   1.543   8.128  0.00  0.00    +0.000 A 
ATOM      9  C   UNL     1      46.952   1.362   6.906  0.00  0.00    +0.000 A 
ATOM     10  C   UNL     1      47.058   2.439   6.045  0.00  0.00    +0.000 A 
ATOM     11  N   UNL     1      46.567   3.661   6.322  0.00  0.00    +0.000 NA
ATOM     12  C   UNL     1      45.945   3.806   7.522  0.00  0.00    +0.000 A 
ENDBRANCH   5   7
BRANCH   1  13
ATOM     13  C   UNL     1      45.509   5.710  12.363  0.00  0.00    +0.000 C 
ATOM     14  C   UNL     1      45.120   7.063  11.794  0.00  0.00    +0.000 C 
ATOM     15  C   UNL     1      44.339   6.512  12.940  0.00  0.00    +0.000 C 
BRANCH  13  20
ATOM     16  C   UNL     1      50.167   7.978  12.882  0.00  0.00    +0.000 A 
ATOM     17  C   UNL     1      49.428   7.769  11.727  0.00  0.00    +0.000 A 
ATOM     18  C   UNL     1      48.254   7.012  11.792  0.00  0.00    +0.000 A 
ATOM     19  C   UNL     1      47.848   6.475  13.008  0.00  0.00    +0.000 A 
ATOM     20  N   UNL     1      46.750   5.617  13.162  0.00  0.00    +0.000 N 
ATOM     21  N   UNL     1      48.560   6.684  14.140  0.00  0.00    +0.000 NA
ATOM     22  C   UNL     1      49.689   7.425  14.055  0.00  0.00    +0.000 A 
ATOM     23  H   UNL     1      46.650   5.499  14.167  0.00  0.00    +0.000 HD
ENDBRANCH  13  20
ENDBRANCH   1  13
TORSDOF 3
ENDMDL
MODEL 6
REMARK VINA RESULT:    -6.909      1.661      6.760
REMARK INTER + INTRA:          -8.070
REMARK INTER:                  -7.581
REMARK INTRA:                  -0.489
REMARK UNBOUND:                 0.051
REMARK  Name = 
REMARK  3 active torsions:
REMARK  status: ('A' for Active; 'I' for Inactive)
REMARK    1  A    between atoms: N_5  and  C_6
REMARK    2  A    between atoms: C_6  and  C_7
REMARK    3  A    between atoms: C_11  and  C_12
REMARK                            x       y       z     vdW  Elec       q    Type
REMARK                         _______ _______ _______ _____ _____    ______ ____
ROOT
ATOM      1  C   UNL     1      46.761   7.258  12.792  0.00  0.00    +0.000 A 
ATOM      2  C   UNL     1      45.904   8.353  12.892  0.00  0.00    +0.000 A 
ATOM      3  C   UNL     1      44.758   8.399  12.109  0.00  0.00    +0.000 A 
ATOM      4  C   UNL     1      44.470   7.333  11.264  0.00  0.00    +0.000 A 
ATOM      5  C   UNL     1      45.316   6.228  11.249  0.00  0.00    +0.000 A 
ATOM      6  N   UNL     1      46.449   6.201  11.995  0.00  0.00    +0.000 NA
ENDROOT
BRANCH   5   7
ATOM      7  C   UNL     1      45.076   5.021  10.439  0.00  0.00    +0.000 A 
ATOM      8  C   UNL     1      45.570   4.853   9.137  0.00  0.00    +0.000 A 
ATOM      9  C   UNL     1      45.292   3.691   8.417  0.00  0.00    +0.000 A 
ATOM     10  C   UNL     1      44.519   2.710   9.013  0.00  0.00    +0.000 A 
ATOM     11  N   UNL     1      44.016   2.817  10.257  0.00  0.00    +0.000 NA
ATOM     12  C   UNL     1      44.302   3.963  10.930  0.00  0.00    +0.000 A 
ENDBRANCH   5   7
BRANCH   1  13
ATOM     13  C   UNL     1      48.130   7.279  13.486  0.00  0.00    +0.000 C 
ATOM     14  C   UNL     1      49.373   6.867  12.715  0.00  0.00    +0.000 C 
ATOM     15  C   UNL     1      49.072   8.320  12.873  0.00  0.00    +0.000 C 
BRANCH  13  20
ATOM     16  C   UNL     1      48.081   3.583  17.151  0.00  0.00    +0.000 A 
ATOM     17  C   UNL     1      47.454   3.586  15.914  0.00  0.00    +0.000 A 
ATOM     18  C   UNL     1      47.484   4.746  15.133  0.00  0.00    +0.000 A 
ATOM     19  C   UNL     1      48.134   5.878  15.609  0.00  0.00    +0.000 A 
ATOM     20  N   UNL     1      48.132   7.118  14.955  0.00  0.00    +0.000 N 
ATOM     21  N   UNL     1      48.756   5.878  16.810  0.00  0.00    +0.000 NA
ATOM     22  C   UNL     1      48.720   4.743  17.546  0.00  0.00    +0.000 A 
ATOM     23  H   UNL     1      48.781   7.694  15.487  0.00  0.00    +0.000 HD
ENDBRANCH  13  20
ENDBRANCH   1  13
TORSDOF 3
ENDMDL
MODEL 7
REMARK VINA RESULT:    -6.685      2.531      8.236
REMARK INTER + INTRA:          -7.806
REMARK INTER:                  -7.419
REMARK INTRA:                  -0.388
REMARK UNBOUND:                 0.051
REMARK  Name = 
REMARK  3 active torsions:
REMARK  status: ('A' for Active; 'I' for Inactive)
REMARK    1  A    between atoms: N_5  and  C_6
REMARK    2  A    between atoms: C_6  and  C_7
REMARK    3  A    between atoms: C_11  and  C_12
REMARK                            x       y       z     vdW  Elec       q    Type
REMARK                         _______ _______ _______ _____ _____    ______ ____
ROOT
ATOM      1  C   UNL     1      47.860   4.853  15.926  0.00  0.00    +0.000 A 
ATOM      2  C   UNL     1      48.623   5.986  15.646  0.00  0.00    +0.000 A 
ATOM      3  C   UNL     1      48.381   6.703  14.482  0.00  0.00    +0.000 A 
ATOM      4  C   UNL     1      47.356   6.296  13.634  0.00  0.00    +0.000 A 
ATOM      5  C   UNL     1      46.573   5.202  13.989  0.00  0.00    +0.000 A 
ATOM      6  N   UNL     1      46.833   4.488  15.113  0.00  0.00    +0.000 NA
ENDROOT
BRANCH   5   7
ATOM      7  C   UNL     1      45.427   4.721  13.197  0.00  0.00    +0.000 A 
ATOM      8  C   UNL     1      45.419   3.496  12.514  0.00  0.00    +0.000 A 
ATOM      9  C   UNL     1      44.306   3.108  11.768  0.00  0.00    +0.000 A 
ATOM     10  C   UNL     1      43.214   3.954  11.715  0.00  0.00    +0.000 A 
ATOM     11  N   UNL     1      43.165   5.142  12.348  0.00  0.00    +0.000 NA
ATOM     12  C   UNL     1      44.267   5.493  13.063  0.00  0.00    +0.000 A 
ENDBRANCH   5   7
BRANCH   1  13
ATOM     13  C   UNL     1      48.242   3.930  17.091  0.00  0.00    +0.000 C 
ATOM     14  C   UNL     1      47.299   2.816  17.512  0.00  0.00    +0.000 C 
ATOM     15  C   UNL     1      48.460   2.484  16.635  0.00  0.00    +0.000 C 
BRANCH  13  20
ATOM     16  C   UNL     1      48.212   6.237  21.758  0.00  0.00    +0.000 A 
ATOM     17  C   UNL     1      47.300   6.365  20.721  0.00  0.00    +0.000 A 
ATOM     18  C   UNL     1      47.570   5.758  19.491  0.00  0.00    +0.000 A 
ATOM     19  C   UNL     1      48.750   5.041  19.323  0.00  0.00    +0.000 A 
ATOM     20  N   UNL     1      49.165   4.487  18.104  0.00  0.00    +0.000 N 
ATOM     21  N   UNL     1      49.638   4.905  20.333  0.00  0.00    +0.000 NA
ATOM     22  C   UNL     1      49.352   5.495  21.517  0.00  0.00    +0.000 A 
ATOM     23  H   UNL     1      49.990   3.939  18.334  0.00  0.00    +0.000 HD
ENDBRANCH  13  20
ENDBRANCH   1  13
TORSDOF 3
ENDMDL
MODEL 8
REMARK VINA RESULT:    -6.605      3.064      6.770
REMARK INTER + INTRA:          -7.711
REMARK INTER:                  -7.065
REMARK INTRA:                  -0.647
REMARK UNBOUND:                 0.051
REMARK  Name = 
REMARK  3 active torsions:
REMARK  status: ('A' for Active; 'I' for Inactive)
REMARK    1  A    between atoms: N_5  and  C_6
REMARK    2  A    between atoms: C_6  and  C_7
REMARK    3  A    between atoms: C_11  and  C_12
REMARK                            x       y       z     vdW  Elec       q    Type
REMARK                         _______ _______ _______ _____ _____    ______ ____
ROOT
ATOM      1  C   UNL     1      47.075   7.262  12.848  0.00  0.00    +0.000 A 
ATOM      2  C   UNL     1      46.225   8.355  13.009  0.00  0.00    +0.000 A 
ATOM      3  C   UNL     1      45.064   8.437  12.252  0.00  0.00    +0.000 A 
ATOM      4  C   UNL     1      44.754   7.406  11.371  0.00  0.00    +0.000 A 
ATOM      5  C   UNL     1      45.595   6.299  11.295  0.00  0.00    +0.000 A 
ATOM      6  N   UNL     1      46.743   6.239  12.016  0.00  0.00    +0.000 NA
ENDROOT
BRANCH   5   7
ATOM      7  C   UNL     1      45.333   5.127  10.442  0.00  0.00    +0.000 A 
ATOM      8  C   UNL     1      45.693   5.060   9.088  0.00  0.00    +0.000 A 
ATOM      9  C   UNL     1      45.401   3.924   8.332  0.00  0.00    +0.000 A 
ATOM     10  C   UNL     1      44.749   2.869   8.944  0.00  0.00    +0.000 A 
ATOM     11  N   UNL     1      44.378   2.877  10.238  0.00  0.00    +0.000 NA
ATOM     12  C   UNL     1      44.673   4.000  10.946  0.00  0.00    +0.000 A 
ENDBRANCH   5   7
BRANCH   1  13
ATOM     13  C   UNL     1      48.458   7.251  13.514  0.00  0.00    +0.000 C 
ATOM     14  C   UNL     1      48.642   7.890  14.879  0.00  0.00    +0.000 C 
ATOM     15  C   UNL     1      48.475   6.410  14.794  0.00  0.00    +0.000 C 
BRANCH  13  20
ATOM     16  C   UNL     1      51.596  10.291  10.683  0.00  0.00    +0.000 A 
ATOM     17  C   UNL     1      50.238  10.434  10.927  0.00  0.00    +0.000 A 
ATOM     18  C   UNL     1      49.553   9.423  11.607  0.00  0.00    +0.000 A 
ATOM     19  C   UNL     1      50.239   8.287  12.022  0.00  0.00    +0.000 A 
ATOM     20  N   UNL     1      49.628   7.173  12.614  0.00  0.00    +0.000 N 
ATOM     21  N   UNL     1      51.565   8.146  11.796  0.00  0.00    +0.000 NA
ATOM     22  C   UNL     1      52.209   9.141  11.142  0.00  0.00    +0.000 A 
ATOM     23  H   UNL     1      50.399   6.575  12.902  0.00  0.00    +0.000 HD
ENDBRANCH  13  20
ENDBRANCH   1  13
TORSDOF 3
ENDMDL
MODEL 9
REMARK VINA RESULT:    -6.529      2.727      6.642
REMARK INTER + INTRA:          -7.622
REMARK INTER:                  -7.120
REMARK INTRA:                  -0.502
REMARK UNBOUND:                 0.051
REMARK  Name = 
REMARK  3 active torsions:
REMARK  status: ('A' for Active; 'I' for Inactive)
REMARK    1  A    between atoms: N_5  and  C_6
REMARK    2  A    between atoms: C_6  and  C_7
REMARK    3  A    between atoms: C_11  and  C_12
REMARK                            x       y       z     vdW  Elec       q    Type
REMARK                         _______ _______ _______ _____ _____    ______ ____
ROOT
ATOM      1  C   UNL     1      44.489   6.373  11.729  0.00  0.00    +0.000 A 
ATOM      2  C   UNL     1      43.403   5.867  12.443  0.00  0.00    +0.000 A 
ATOM      3  C   UNL     1      42.852   4.647  12.075  0.00  0.00    +0.000 A 
ATOM      4  C   UNL     1      43.418   3.935  11.022  0.00  0.00    +0.000 A 
ATOM      5  C   UNL     1      44.545   4.444  10.385  0.00  0.00    +0.000 A 
ATOM      6  N   UNL     1      45.062   5.650  10.729  0.00  0.00    +0.000 NA
ENDROOT
BRANCH   5   7
ATOM      7  C   UNL     1      45.259   3.748   9.300  0.00  0.00    +0.000 A 
ATOM      8  C   UNL     1      45.883   4.413   8.234  0.00  0.00    +0.000 A 
ATOM      9  C   UNL     1      46.529   3.692   7.230  0.00  0.00    +0.000 A 
ATOM     10  C   UNL     1      46.540   2.311   7.306  0.00  0.00    +0.000 A 
ATOM     11  N   UNL     1      45.957   1.619   8.303  0.00  0.00    +0.000 NA
ATOM     12  C   UNL     1      45.332   2.351   9.264  0.00  0.00    +0.000 A 
ENDBRANCH   5   7
BRANCH   1  13
ATOM     13  C   UNL     1      44.981   7.805  11.979  0.00  0.00    +0.000 C 
ATOM     14  C   UNL     1      45.241   8.729  10.802  0.00  0.00    +0.000 C 
ATOM     15  C   UNL     1      43.952   8.853  11.544  0.00  0.00    +0.000 C 
BRANCH  13  20
ATOM     16  C   UNL     1      49.836   7.811  13.858  0.00  0.00    +0.000 A 
ATOM     17  C   UNL     1      49.280   6.984  12.894  0.00  0.00    +0.000 A 
ATOM     18  C   UNL     1      47.909   7.061  12.631  0.00  0.00    +0.000 A 
ATOM     19  C   UNL     1      47.123   7.960  13.343  0.00  0.00    +0.000 A 
ATOM     20  N   UNL     1      45.728   8.041  13.233  0.00  0.00    +0.000 N 
ATOM     21  N   UNL     1      47.661   8.776  14.278  0.00  0.00    +0.000 NA
ATOM     22  C   UNL     1      48.991   8.689  14.510  0.00  0.00    +0.000 A 
ATOM     23  H   UNL     1      45.470   8.858  13.782  0.00  0.00    +0.000 HD
ENDBRANCH  13  20
ENDBRANCH   1  13
TORSDOF 3
ENDMDL
