MODEL 1
REMARK VINA RESULT:    -7.772      0.000      0.000
REMARK INTER + INTRA:         -10.246
REMARK INTER:                 -10.044
REMARK INTRA:                  -0.202
REMARK UNBOUND:                -0.202
REMARK  Name = 
REMARK  5 active torsions:
REMARK  status: ('A' for Active; 'I' for Inactive)
REMARK    1  A    between atoms: C_2  and  C_18
REMARK    2  A    between atoms: N_3  and  C_4
REMARK    3  A    between atoms: C_4  and  C_5
REMARK    4  A    between atoms: C_8  and  C_9
REMARK    5  A    between atoms: C_9  and  N_10
REMARK                            x       y       z     vdW  Elec       q    Type
REMARK                         _______ _______ _______ _____ _____    ______ ____
ROOT
ATOM      1  O   UNL     1      46.593   3.247  13.866  0.00  0.00    +0.000 OA
ATOM      2  C   UNL     1      46.407   4.404  14.235  0.00  0.00    +0.000 C 
ATOM      3  N   UNL     1      45.248   5.081  13.936  0.00  0.00    +0.000 N 
ATOM      4  H   UNL     1      45.197   6.085  14.082  0.00  0.00    +0.000 HD
ENDROOT
BRANCH   2   5
ATOM      5  C   UNL     1      47.412   5.116  15.041  0.00  0.00    +0.000 A 
ATOM      6  C   UNL     1      48.126   6.162  14.465  0.00  0.00    +0.000 A 
ATOM      7  S   UNL     1      49.244   6.894  15.531  0.00  0.00    +0.000 S 
ATOM      8  C   UNL     1      48.787   5.865  16.807  0.00  0.00    +0.000 A 
ATOM      9  N   UNL     1      49.346   5.991  18.041  0.00  0.00    +0.000 NA
ATOM     10  C   UNL     1      48.878   5.172  18.924  0.00  0.00    +0.000 A 
ATOM     11  N   UNL     1      47.911   4.231  18.679  0.00  0.00    +0.000 N 
ATOM     12  C   UNL     1      47.350   4.038  17.438  0.00  0.00    +0.000 A 
ATOM     13  O   UNL     1      46.537   3.144  17.236  0.00  0.00    +0.000 OA
ATOM     14  C   UNL     1      47.817   4.956  16.420  0.00  0.00    +0.000 A 
ATOM     15  H   UNL     1      47.601   3.607  19.408  0.00  0.00    +0.000 HD
ENDBRANCH   2   5
BRANCH   3  16
ATOM     16  C   UNL     1      44.259   4.482  13.067  0.00  0.00    +0.000 C 
BRANCH  16  17
ATOM     17  C   UNL     1      44.681   4.479  11.618  0.00  0.00    +0.000 A 
ATOM     18  C   UNL     1      44.288   3.427  10.781  0.00  0.00    +0.000 A 
ATOM     19  C   UNL     1      44.675   3.395   9.435  0.00  0.00    +0.000 A 
ATOM     20  C   UNL     1      45.463   4.413   8.884  0.00  0.00    +0.000 A 
ATOM     21  C   UNL     1      45.854   5.471   9.722  0.00  0.00    +0.000 A 
ATOM     22  C   UNL     1      45.475   5.499  11.076  0.00  0.00    +0.000 A 
BRANCH  20  23
ATOM     23  C   UNL     1      45.995   4.290   7.467  0.00  0.00    +0.000 C 
BRANCH  23  24
ATOM     24  N   UNL     1      46.007   2.995   6.787  0.00  0.00    +0.000 NA
ATOM     25  C   UNL     1      46.609   1.875   7.507  0.00  0.00    +0.000 C 
ATOM     26  C   UNL     1      48.099   1.607   7.201  0.00  0.00    +0.000 C 
ATOM     27  N   UNL     1      48.464   1.606   5.774  0.00  0.00    +0.000 NA
ATOM     28  C   UNL     1      47.870   2.758   5.078  0.00  0.00    +0.000 C 
ATOM     29  C   UNL     1      46.373   2.989   5.372  0.00  0.00    +0.000 C 
ATOM     30  H   UNL     1      48.112   0.752   5.346  0.00  0.00    +0.000 HD
ENDBRANCH  23  24
ENDBRANCH  20  23
ENDBRANCH  16  17
ENDBRANCH   3  16
TORSDOF 5
ENDMDL
MODEL 2
REMARK VINA RESULT:    -7.336      3.757      6.362
REMARK INTER + INTRA:          -9.682
REMARK INTER:                  -8.719
REMARK INTRA:                  -0.962
REMARK UNBOUND:                -0.202
REMARK  Name = 
REMARK  5 active torsions:
REMARK  status: ('A' for Active; 'I' for Inactive)
REMARK    1  A    between atoms: C_2  and  C_18
REMARK    2  A    between atoms: N_3  and  C_4
REMARK    3  A    between atoms: C_4  and  C_5
REMARK    4  A    between atoms: C_8  and  C_9
REMARK    5  A    between atoms: C_9  and  N_10
REMARK                            x       y       z     vdW  Elec       q    Type
REMARK                         _______ _______ _______ _____ _____    ______ ____
ROOT
ATOM      1  O   UNL     1      51.914   6.066  16.599  0.00  0.00    +0.000 OA
ATOM      2  C   UNL     1      51.583   5.228  17.433  0.00  0.00    +0.000 C 
ATOM      3  N   UNL     1      50.302   5.171  17.932  0.00  0.00    +0.000 N 
ATOM      4  H   UNL     1      50.103   4.604  18.751  0.00  0.00    +0.000 HD
ENDROOT
BRANCH   2   5
ATOM      5  C   UNL     1      52.539   4.223  17.923  0.00  0.00    +0.000 A 
ATOM      6  C   UNL     1      53.701   4.646  18.561  0.00  0.00    +0.000 A 
ATOM      7  S   UNL     1      54.702   3.361  19.080  0.00  0.00    +0.000 S 
ATOM      8  C   UNL     1      53.601   2.197  18.506  0.00  0.00    +0.000 A 
ATOM      9  N   UNL     1      53.839   0.868  18.673  0.00  0.00    +0.000 NA
ATOM     10  C   UNL     1      52.903   0.099  18.225  0.00  0.00    +0.000 A 
ATOM     11  N   UNL     1      51.757   0.541  17.614  0.00  0.00    +0.000 N 
ATOM     12  C   UNL     1      51.495   1.871  17.384  0.00  0.00    +0.000 A 
ATOM     13  O   UNL     1      50.494   2.229  16.776  0.00  0.00    +0.000 OA
ATOM     14  C   UNL     1      52.500   2.778  17.899  0.00  0.00    +0.000 A 
ATOM     15  H   UNL     1      51.072  -0.114  17.268  0.00  0.00    +0.000 HD
ENDBRANCH   2   5
BRANCH   3  16
ATOM     16  C   UNL     1      49.335   6.185  17.572  0.00  0.00    +0.000 C 
BRANCH  16  17
ATOM     17  C   UNL     1      48.534   5.817  16.347  0.00  0.00    +0.000 A 
ATOM     18  C   UNL     1      47.763   4.647  16.345  0.00  0.00    +0.000 A 
ATOM     19  C   UNL     1      47.018   4.277  15.218  0.00  0.00    +0.000 A 
ATOM     20  C   UNL     1      47.019   5.064  14.060  0.00  0.00    +0.000 A 
ATOM     21  C   UNL     1      47.789   6.240  14.062  0.00  0.00    +0.000 A 
ATOM     22  C   UNL     1      48.544   6.607  15.190  0.00  0.00    +0.000 A 
BRANCH  20  23
ATOM     23  C   UNL     1      46.326   4.576  12.800  0.00  0.00    +0.000 C 
BRANCH  23  24
ATOM     24  N   UNL     1      45.362   5.427  12.104  0.00  0.00    +0.000 NA
ATOM     25  C   UNL     1      44.256   5.959  12.896  0.00  0.00    +0.000 C 
ATOM     26  C   UNL     1      42.952   5.130  12.865  0.00  0.00    +0.000 C 
ATOM     27  N   UNL     1      42.512   4.687  11.531  0.00  0.00    +0.000 NA
ATOM     28  C   UNL     1      43.638   4.131  10.764  0.00  0.00    +0.000 C 
ATOM     29  C   UNL     1      44.919   4.990  10.781  0.00  0.00    +0.000 C 
ATOM     30  H   UNL     1      42.141   5.489  11.026  0.00  0.00    +0.000 HD
ENDBRANCH  23  24
ENDBRANCH  20  23
ENDBRANCH  16  17
ENDBRANCH   3  16
TORSDOF 5
ENDMDL
MODEL 3
REMARK VINA RESULT:    -7.285      4.283      9.646
REMARK INTER + INTRA:          -9.617
REMARK INTER:                  -8.870
REMARK INTRA:                  -0.747
REMARK UNBOUND:                -0.202
REMARK  Name = 
REMARK  5 active torsions:
REMARK  status: ('A' for Active; 'I' for Inactive)
REMARK    1  A    between atoms: C_2  and  C_18
REMARK    2  A    between atoms: N_3  and  C_4
REMARK    3  A    between atoms: C_4  and  C_5
REMARK    4  A    between atoms: C_8  and  C_9
REMARK    5  A    between atoms: C_9  and  N_10
REMARK                            x       y       z     vdW  Elec       q    Type
REMARK                         _______ _______ _______ _____ _____    ______ ____
ROOT
ATOM      1  O   UNL     1      47.194   3.168  14.017  0.00  0.00    +0.000 OA
ATOM      2  C   UNL     1      46.844   4.265  14.442  0.00  0.00    +0.000 C 
ATOM      3  N   UNL     1      46.965   4.599  15.771  0.00  0.00    +0.000 N 
ATOM      4  H   UNL     1      46.497   5.427  16.129  0.00  0.00    +0.000 HD
ENDROOT
BRANCH   2   5
ATOM      5  C   UNL     1      46.297   5.290  13.540  0.00  0.00    +0.000 A 
ATOM      6  C   UNL     1      47.094   6.372  13.179  0.00  0.00    +0.000 A 
ATOM      7  S   UNL     1      46.320   7.467  12.118  0.00  0.00    +0.000 S 
ATOM      8  C   UNL     1      44.909   6.516  12.074  0.00  0.00    +0.000 A 
ATOM      9  N   UNL     1      43.848   6.875  11.302  0.00  0.00    +0.000 NA
ATOM     10  C   UNL     1      42.862   6.042  11.334  0.00  0.00    +0.000 A 
ATOM     11  N   UNL     1      42.837   4.890  12.077  0.00  0.00    +0.000 N 
ATOM     12  C   UNL     1      43.868   4.510  12.905  0.00  0.00    +0.000 A 
ATOM     13  O   UNL     1      43.787   3.510  13.608  0.00  0.00    +0.000 OA
ATOM     14  C   UNL     1      45.014   5.395  12.880  0.00  0.00    +0.000 A 
ATOM     15  H   UNL     1      42.026   4.291  12.073  0.00  0.00    +0.000 HD
ENDBRANCH   2   5
BRANCH   3  16
ATOM     16  C   UNL     1      47.402   3.611  16.732  0.00  0.00    +0.000 C 
BRANCH  16  17
ATOM     17  C   UNL     1      48.869   3.734  17.069  0.00  0.00    +0.000 A 
ATOM     18  C   UNL     1      49.451   5.003  17.187  0.00  0.00    +0.000 A 
ATOM     19  C   UNL     1      50.811   5.145  17.488  0.00  0.00    +0.000 A 
ATOM     20  C   UNL     1      51.630   4.026  17.683  0.00  0.00    +0.000 A 
ATOM     21  C   UNL     1      51.046   2.753  17.568  0.00  0.00    +0.000 A 
ATOM     22  C   UNL     1      49.683   2.609  17.256  0.00  0.00    +0.000 A 
BRANCH  20  23
ATOM     23  C   UNL     1      53.129   4.194  17.863  0.00  0.00    +0.000 C 
BRANCH  23  24
ATOM     24  N   UNL     1      53.684   4.577  19.161  0.00  0.00    +0.000 NA
ATOM     25  C   UNL     1      53.071   3.979  20.345  0.00  0.00    +0.000 C 
ATOM     26  C   UNL     1      51.959   4.816  21.016  0.00  0.00    +0.000 C 
ATOM     27  N   UNL     1      52.268   6.242  21.214  0.00  0.00    +0.000 NA
ATOM     28  C   UNL     1      52.858   6.827  20.000  0.00  0.00    +0.000 C 
ATOM     29  C   UNL     1      53.990   5.992  19.364  0.00  0.00    +0.000 C 
ATOM     30  H   UNL     1      52.940   6.328  21.975  0.00  0.00    +0.000 HD
ENDBRANCH  23  24
ENDBRANCH  20  23
ENDBRANCH  16  17
ENDBRANCH   3  16
TORSDOF 5
ENDMDL
MODEL 4
REMARK VINA RESULT:    -7.270      3.405      4.737
REMARK INTER + INTRA:          -9.597
REMARK INTER:                  -8.428
REMARK INTRA:                  -1.169
REMARK UNBOUND:                -0.202
REMARK  Name = 
REMARK  5 active torsions:
REMARK  status: ('A' for Active; 'I' for Inactive)
REMARK    1  A    between atoms: C_2  and  C_18
REMARK    2  A    between atoms: N_3  and  C_4
REMARK    3  A    between atoms: C_4  and  C_5
REMARK    4  A    between atoms: C_8  and  C_9
REMARK    5  A    between atoms: C_9  and  N_10
REMARK                            x       y       z     vdW  Elec       q    Type
REMARK                         _______ _______ _______ _____ _____    ______ ____
ROOT
ATOM      1  O   UNL     1      48.336   8.735  16.146  0.00  0.00    +0.000 OA
ATOM      2  C   UNL     1      48.779   7.620  15.886  0.00  0.00    +0.000 C 
ATOM      3  N   UNL     1      49.086   7.246  14.598  0.00  0.00    +0.000 N 
ATOM      4  H   UNL     1      49.264   6.269  14.384  0.00  0.00    +0.000 HD
ENDROOT
BRANCH   2   5
ATOM      5  C   UNL     1      49.027   6.633  16.948  0.00  0.00    +0.000 A 
ATOM      6  C   UNL     1      49.839   6.983  18.023  0.00  0.00    +0.000 A 
ATOM      7  S   UNL     1      50.020   5.735  19.177  0.00  0.00    +0.000 S 
ATOM      8  C   UNL     1      48.992   4.699  18.301  0.00  0.00    +0.000 A 
ATOM      9  N   UNL     1      48.686   3.459  18.770  0.00  0.00    +0.000 NA
ATOM     10  C   UNL     1      47.864   2.797  18.024  0.00  0.00    +0.000 A 
ATOM     11  N   UNL     1      47.332   3.259  16.848  0.00  0.00    +0.000 N 
ATOM     12  C   UNL     1      47.647   4.487  16.314  0.00  0.00    +0.000 A 
ATOM     13  O   UNL     1      47.207   4.843  15.228  0.00  0.00    +0.000 OA
ATOM     14  C   UNL     1      48.540   5.284  17.131  0.00  0.00    +0.000 A 
ATOM     15  H   UNL     1      46.710   2.684  16.302  0.00  0.00    +0.000 HD
ENDBRANCH   2   5
BRANCH   3  16
ATOM     16  C   UNL     1      48.777   8.126  13.492  0.00  0.00    +0.000 C 
BRANCH  16  17
ATOM     17  C   UNL     1      47.484   7.764  12.803  0.00  0.00    +0.000 A 
ATOM     18  C   UNL     1      46.292   8.395  13.185  0.00  0.00    +0.000 A 
ATOM     19  C   UNL     1      45.077   8.070  12.569  0.00  0.00    +0.000 A 
ATOM     20  C   UNL     1      45.015   7.109  11.552  0.00  0.00    +0.000 A 
ATOM     21  C   UNL     1      46.210   6.479  11.166  0.00  0.00    +0.000 A 
ATOM     22  C   UNL     1      47.429   6.797  11.790  0.00  0.00    +0.000 A 
BRANCH  20  23
ATOM     23  C   UNL     1      43.673   6.664  10.998  0.00  0.00    +0.000 C 
BRANCH  23  24
ATOM     24  N   UNL     1      43.105   5.370  11.373  0.00  0.00    +0.000 NA
ATOM     25  C   UNL     1      43.093   5.041  12.797  0.00  0.00    +0.000 C 
ATOM     26  C   UNL     1      44.297   4.215  13.302  0.00  0.00    +0.000 C 
ATOM     27  N   UNL     1      44.668   3.057  12.470  0.00  0.00    +0.000 NA
ATOM     28  C   UNL     1      44.699   3.422  11.045  0.00  0.00    +0.000 C 
ATOM     29  C   UNL     1      43.471   4.217  10.553  0.00  0.00    +0.000 C 
ATOM     30  H   UNL     1      43.973   2.325  12.602  0.00  0.00    +0.000 HD
ENDBRANCH  23  24
ENDBRANCH  20  23
ENDBRANCH  16  17
ENDBRANCH   3  16
TORSDOF 5
ENDMDL
MODEL 5
REMARK VINA RESULT:    -7.103      3.365      8.672
REMARK INTER + INTRA:          -9.381
REMARK INTER:                  -8.554
REMARK INTRA:                  -0.828
REMARK UNBOUND:                -0.202
REMARK  Name = 
REMARK  5 active torsions:
REMARK  status: ('A' for Active; 'I' for Inactive)
REMARK    1  A    between atoms: C_2  and  C_18
REMARK    2  A    between atoms: N_3  and  C_4
REMARK    3  A    between atoms: C_4  and  C_5
REMARK    4  A    between atoms: C_8  and  C_9
REMARK    5  A    between atoms: C_9  and  N_10
REMARK                            x       y       z     vdW  Elec       q    Type
REMARK                         _______ _______ _______ _____ _____    ______ ____
ROOT
ATOM      1  O   UNL     1      45.418   7.953  11.922  0.00  0.00    +0.000 OA
ATOM      2  C   UNL     1      46.143   7.037  11.542  0.00  0.00    +0.000 C 
ATOM      3  N   UNL     1      47.506   7.071  11.724  0.00  0.00    +0.000 N 
ATOM      4  H   UNL     1      48.098   6.404  11.237  0.00  0.00    +0.000 HD
ENDROOT
BRANCH   2   5
ATOM      5  C   UNL     1      45.582   5.843  10.892  0.00  0.00    +0.000 A 
ATOM      6  C   UNL     1      45.859   5.607   9.549  0.00  0.00    +0.000 A 
ATOM      7  S   UNL     1      45.146   4.176   8.945  0.00  0.00    +0.000 S 
ATOM      8  C   UNL     1      44.474   3.802  10.463  0.00  0.00    +0.000 A 
ATOM      9  N   UNL     1      43.759   2.660  10.649  0.00  0.00    +0.000 NA
ATOM     10  C   UNL     1      43.343   2.484  11.859  0.00  0.00    +0.000 A 
ATOM     11  N   UNL     1      43.567   3.354  12.895  0.00  0.00    +0.000 N 
ATOM     12  C   UNL     1      44.246   4.540  12.744  0.00  0.00    +0.000 A 
ATOM     13  O   UNL     1      44.371   5.327  13.675  0.00  0.00    +0.000 OA
ATOM     14  C   UNL     1      44.764   4.769  11.411  0.00  0.00    +0.000 A 
ATOM     15  H   UNL     1      43.198   3.167  13.815  0.00  0.00    +0.000 HD
ENDBRANCH   2   5
BRANCH   3  16
ATOM     16  C   UNL     1      48.139   8.253  12.266  0.00  0.00    +0.000 C 
BRANCH  16  17
ATOM     17  C   UNL     1      48.634   8.053  13.678  0.00  0.00    +0.000 A 
ATOM     18  C   UNL     1      49.840   7.376  13.903  0.00  0.00    +0.000 A 
ATOM     19  C   UNL     1      50.317   7.168  15.204  0.00  0.00    +0.000 A 
ATOM     20  C   UNL     1      49.607   7.632  16.318  0.00  0.00    +0.000 A 
ATOM     21  C   UNL     1      48.399   8.315  16.093  0.00  0.00    +0.000 A 
ATOM     22  C   UNL     1      47.915   8.515  14.788  0.00  0.00    +0.000 A 
BRANCH  20  23
ATOM     23  C   UNL     1      50.061   7.272  17.722  0.00  0.00    +0.000 C 
BRANCH  23  24
ATOM     24  N   UNL     1      49.585   6.049  18.367  0.00  0.00    +0.000 NA
ATOM     25  C   UNL     1      49.225   4.936  17.491  0.00  0.00    +0.000 C 
ATOM     26  C   UNL     1      47.731   4.845  17.107  0.00  0.00    +0.000 C 
ATOM     27  N   UNL     1      46.778   5.005  18.219  0.00  0.00    +0.000 NA
ATOM     28  C   UNL     1      47.147   6.147  19.069  0.00  0.00    +0.000 C 
ATOM     29  C   UNL     1      48.637   6.201  19.468  0.00  0.00    +0.000 C 
ATOM     30  H   UNL     1      46.794   4.160  18.786  0.00  0.00    +0.000 HD
ENDBRANCH  23  24
ENDBRANCH  20  23
ENDBRANCH  16  17
ENDBRANCH   3  16
TORSDOF 5
ENDMDL
MODEL 6
REMARK VINA RESULT:    -7.099      4.249      9.137
REMARK INTER + INTRA:          -9.376
REMARK INTER:                  -8.587
REMARK INTRA:                  -0.789
REMARK UNBOUND:                -0.202
REMARK  Name = 
REMARK  5 active torsions:
REMARK  status: ('A' for Active; 'I' for Inactive)
REMARK    1  A    between atoms: C_2  and  C_18
REMARK    2  A    between atoms: N_3  and  C_4
REMARK    3  A    between atoms: C_4  and  C_5
REMARK    4  A    between atoms: C_8  and  C_9
REMARK    5  A    between atoms: C_9  and  N_10
REMARK                            x       y       z     vdW  Elec       q    Type
REMARK                         _______ _______ _______ _____ _____    ______ ____
ROOT
ATOM      1  O   UNL     1      47.341   3.155  14.078  0.00  0.00    +0.000 OA
ATOM      2  C   UNL     1      46.914   4.210  14.539  0.00  0.00    +0.000 C 
ATOM      3  N   UNL     1      46.906   4.458  15.891  0.00  0.00    +0.000 N 
ATOM      4  H   UNL     1      46.377   5.245  16.258  0.00  0.00    +0.000 HD
ENDROOT
BRANCH   2   5
ATOM      5  C   UNL     1      46.410   5.275  13.658  0.00  0.00    +0.000 A 
ATOM      6  C   UNL     1      47.220   6.375  13.390  0.00  0.00    +0.000 A 
ATOM      7  S   UNL     1      46.498   7.516  12.342  0.00  0.00    +0.000 S 
ATOM      8  C   UNL     1      45.097   6.565  12.180  0.00  0.00    +0.000 A 
ATOM      9  N   UNL     1      44.076   6.957  11.370  0.00  0.00    +0.000 NA
ATOM     10  C   UNL     1      43.093   6.121  11.310  0.00  0.00    +0.000 A 
ATOM     11  N   UNL     1      43.035   4.936  11.997  0.00  0.00    +0.000 N 
ATOM     12  C   UNL     1      44.022   4.520  12.860  0.00  0.00    +0.000 A 
ATOM     13  O   UNL     1      43.909   3.487  13.510  0.00  0.00    +0.000 OA
ATOM     14  C   UNL     1      45.164   5.407  12.936  0.00  0.00    +0.000 A 
ATOM     15  H   UNL     1      42.228   4.335  11.922  0.00  0.00    +0.000 HD
ENDBRANCH   2   5
BRANCH   3  16
ATOM     16  C   UNL     1      47.293   3.423  16.824  0.00  0.00    +0.000 C 
BRANCH  16  17
ATOM     17  C   UNL     1      48.689   3.619  17.366  0.00  0.00    +0.000 A 
ATOM     18  C   UNL     1      49.686   2.678  17.075  0.00  0.00    +0.000 A 
ATOM     19  C   UNL     1      50.986   2.831  17.574  0.00  0.00    +0.000 A 
ATOM     20  C   UNL     1      51.330   3.927  18.374  0.00  0.00    +0.000 A 
ATOM     21  C   UNL     1      50.332   4.873  18.663  0.00  0.00    +0.000 A 
ATOM     22  C   UNL     1      49.024   4.715  18.171  0.00  0.00    +0.000 A 
BRANCH  20  23
ATOM     23  C   UNL     1      52.700   4.002  19.025  0.00  0.00    +0.000 C 
BRANCH  23  24
ATOM     24  N   UNL     1      53.688   4.981  18.572  0.00  0.00    +0.000 NA
ATOM     25  C   UNL     1      53.779   6.227  19.329  0.00  0.00    +0.000 C 
ATOM     26  C   UNL     1      52.942   7.404  18.782  0.00  0.00    +0.000 C 
ATOM     27  N   UNL     1      53.038   7.632  17.330  0.00  0.00    +0.000 NA
ATOM     28  C   UNL     1      52.915   6.366  16.590  0.00  0.00    +0.000 C 
ATOM     29  C   UNL     1      53.784   5.213  17.132  0.00  0.00    +0.000 C 
ATOM     30  H   UNL     1      53.946   8.042  17.123  0.00  0.00    +0.000 HD
ENDBRANCH  23  24
ENDBRANCH  20  23
ENDBRANCH  16  17
ENDBRANCH   3  16
TORSDOF 5
ENDMDL
MODEL 7
REMARK VINA RESULT:    -7.035      4.018      9.978
REMARK INTER + INTRA:          -9.293
REMARK INTER:                  -8.419
REMARK INTRA:                  -0.874
REMARK UNBOUND:                -0.202
REMARK  Name = 
REMARK  5 active torsions:
REMARK  status: ('A' for Active; 'I' for Inactive)
REMARK    1  A    between atoms: C_2  and  C_18
REMARK    2  A    between atoms: N_3  and  C_4
REMARK    3  A    between atoms: C_4  and  C_5
REMARK    4  A    between atoms: C_8  and  C_9
REMARK    5  A    between atoms: C_9  and  N_10
REMARK                            x       y       z     vdW  Elec       q    Type
REMARK                         _______ _______ _______ _____ _____    ______ ____
ROOT
ATOM      1  O   UNL     1      47.857   6.931  12.132  0.00  0.00    +0.000 OA
ATOM      2  C   UNL     1      46.983   6.454  12.852  0.00  0.00    +0.000 C 
ATOM      3  N   UNL     1      47.182   6.258  14.198  0.00  0.00    +0.000 N 
ATOM      4  H   UNL     1      46.527   5.691  14.729  0.00  0.00    +0.000 HD
ENDROOT
BRANCH   2   5
ATOM      5  C   UNL     1      45.666   6.089  12.308  0.00  0.00    +0.000 A 
ATOM      6  C   UNL     1      44.886   7.070  11.703  0.00  0.00    +0.000 A 
ATOM      7  S   UNL     1      43.391   6.488  11.112  0.00  0.00    +0.000 S 
ATOM      8  C   UNL     1      43.750   4.900  11.609  0.00  0.00    +0.000 A 
ATOM      9  N   UNL     1      42.885   3.879  11.364  0.00  0.00    +0.000 NA
ATOM     10  C   UNL     1      43.302   2.722  11.760  0.00  0.00    +0.000 A 
ATOM     11  N   UNL     1      44.499   2.498  12.390  0.00  0.00    +0.000 N 
ATOM     12  C   UNL     1      45.384   3.505  12.698  0.00  0.00    +0.000 A 
ATOM     13  O   UNL     1      46.414   3.281  13.321  0.00  0.00    +0.000 OA
ATOM     14  C   UNL     1      44.978   4.819  12.244  0.00  0.00    +0.000 A 
ATOM     15  H   UNL     1      44.757   1.571  12.692  0.00  0.00    +0.000 HD
ENDBRANCH   2   5
BRANCH   3  16
ATOM     16  C   UNL     1      48.482   6.501  14.785  0.00  0.00    +0.000 C 
BRANCH  16  17
ATOM     17  C   UNL     1      48.585   5.994  16.203  0.00  0.00    +0.000 A 
ATOM     18  C   UNL     1      49.503   6.579  17.086  0.00  0.00    +0.000 A 
ATOM     19  C   UNL     1      49.626   6.122  18.404  0.00  0.00    +0.000 A 
ATOM     20  C   UNL     1      48.835   5.068  18.881  0.00  0.00    +0.000 A 
ATOM     21  C   UNL     1      47.912   4.483  17.997  0.00  0.00    +0.000 A 
ATOM     22  C   UNL     1      47.795   4.936  16.671  0.00  0.00    +0.000 A 
BRANCH  20  23
ATOM     23  C   UNL     1      49.083   4.488  20.263  0.00  0.00    +0.000 C 
BRANCH  23  24
ATOM     24  N   UNL     1      48.596   5.178  21.457  0.00  0.00    +0.000 NA
ATOM     25  C   UNL     1      47.348   5.927  21.326  0.00  0.00    +0.000 C 
ATOM     26  C   UNL     1      47.502   7.430  21.002  0.00  0.00    +0.000 C 
ATOM     27  N   UNL     1      48.500   8.155  21.807  0.00  0.00    +0.000 NA
ATOM     28  C   UNL     1      49.755   7.393  21.901  0.00  0.00    +0.000 C 
ATOM     29  C   UNL     1      49.581   5.902  22.258  0.00  0.00    +0.000 C 
ATOM     30  H   UNL     1      48.130   8.286  22.746  0.00  0.00    +0.000 HD
ENDBRANCH  23  24
ENDBRANCH  20  23
ENDBRANCH  16  17
ENDBRANCH   3  16
TORSDOF 5
ENDMDL
MODEL 8
REMARK VINA RESULT:    -6.867      4.973      7.643
REMARK INTER + INTRA:          -9.077
REMARK INTER:                  -8.323
REMARK INTRA:                  -0.753
REMARK UNBOUND:                -0.202
REMARK  Name = 
REMARK  5 active torsions:
REMARK  status: ('A' for Active; 'I' for Inactive)
REMARK    1  A    between atoms: C_2  and  C_18
REMARK    2  A    between atoms: N_3  and  C_4
REMARK    3  A    between atoms: C_4  and  C_5
REMARK    4  A    between atoms: C_8  and  C_9
REMARK    5  A    between atoms: C_9  and  N_10
REMARK                            x       y       z     vdW  Elec       q    Type
REMARK                         _______ _______ _______ _____ _____    ______ ____
ROOT
ATOM      1  O   UNL     1      44.859   7.649  11.103  0.00  0.00    +0.000 OA
ATOM      2  C   UNL     1      45.148   6.751  11.890  0.00  0.00    +0.000 C 
ATOM      3  N   UNL     1      45.904   6.991  13.014  0.00  0.00    +0.000 N 
ATOM      4  H   UNL     1      46.289   6.212  13.540  0.00  0.00    +0.000 HD
ENDROOT
BRANCH   2   5
ATOM      5  C   UNL     1      44.675   5.374  11.681  0.00  0.00    +0.000 A 
ATOM      6  C   UNL     1      43.921   4.757  12.674  0.00  0.00    +0.000 A 
ATOM      7  S   UNL     1      43.438   3.166  12.276  0.00  0.00    +0.000 S 
ATOM      8  C   UNL     1      44.186   3.261  10.750  0.00  0.00    +0.000 A 
ATOM      9  N   UNL     1      44.112   2.225   9.871  0.00  0.00    +0.000 NA
ATOM     10  C   UNL     1      44.690   2.448   8.737  0.00  0.00    +0.000 A 
ATOM     11  N   UNL     1      45.344   3.608   8.410  0.00  0.00    +0.000 N 
ATOM     12  C   UNL     1      45.481   4.663   9.282  0.00  0.00    +0.000 A 
ATOM     13  O   UNL     1      46.129   5.658   8.983  0.00  0.00    +0.000 OA
ATOM     14  C   UNL     1      44.821   4.476  10.557  0.00  0.00    +0.000 A 
ATOM     15  H   UNL     1      45.792   3.712   7.512  0.00  0.00    +0.000 HD
ENDBRANCH   2   5
BRANCH   3  16
ATOM     16  C   UNL     1      46.486   8.297  13.235  0.00  0.00    +0.000 C 
BRANCH  16  17
ATOM     17  C   UNL     1      47.863   8.431  12.631  0.00  0.00    +0.000 A 
ATOM     18  C   UNL     1      48.263   9.653  12.074  0.00  0.00    +0.000 A 
ATOM     19  C   UNL     1      49.531   9.802  11.499  0.00  0.00    +0.000 A 
ATOM     20  C   UNL     1      50.439   8.736  11.465  0.00  0.00    +0.000 A 
ATOM     21  C   UNL     1      50.041   7.511  12.027  0.00  0.00    +0.000 A 
ATOM     22  C   UNL     1      48.764   7.359  12.596  0.00  0.00    +0.000 A 
BRANCH  20  23
ATOM     23  C   UNL     1      51.751   8.870  10.710  0.00  0.00    +0.000 C 
BRANCH  23  24
ATOM     24  N   UNL     1      52.591   7.698  10.465  0.00  0.00    +0.000 NA
ATOM     25  C   UNL     1      53.971   7.763  10.941  0.00  0.00    +0.000 C 
ATOM     26  C   UNL     1      55.014   8.237   9.905  0.00  0.00    +0.000 C 
ATOM     27  N   UNL     1      54.917   7.612   8.574  0.00  0.00    +0.000 NA
ATOM     28  C   UNL     1      53.523   7.584   8.106  0.00  0.00    +0.000 C 
ATOM     29  C   UNL     1      52.501   7.076   9.146  0.00  0.00    +0.000 C 
ATOM     30  H   UNL     1      55.257   6.655   8.638  0.00  0.00    +0.000 HD
ENDBRANCH  23  24
ENDBRANCH  20  23
ENDBRANCH  16  17
ENDBRANCH   3  16
TORSDOF 5
ENDMDL
MODEL 9
REMARK VINA RESULT:    -6.766      3.732      5.109
REMARK INTER + INTRA:          -8.946
REMARK INTER:                  -8.112
REMARK INTRA:                  -0.833
REMARK UNBOUND:                -0.202
REMARK  Name = 
REMARK  5 active torsions:
REMARK  status: ('A' for Active; 'I' for Inactive)
REMARK    1  A    between atoms: C_2  and  C_18
REMARK    2  A    between atoms: N_3  and  C_4
REMARK    3  A    between atoms: C_4  and  C_5
REMARK    4  A    between atoms: C_8  and  C_9
REMARK    5  A    between atoms: C_9  and  N_10
REMARK                            x       y       z     vdW  Elec       q    Type
REMARK                         _______ _______ _______ _____ _____    ______ ____
ROOT
ATOM      1  O   UNL     1      49.982   6.247  15.830  0.00  0.00    +0.000 OA
ATOM      2  C   UNL     1      49.021   6.670  16.468  0.00  0.00    +0.000 C 
ATOM      3  N   UNL     1      48.122   7.554  15.919  0.00  0.00    +0.000 N 
ATOM      4  H   UNL     1      47.455   8.034  16.518  0.00  0.00    +0.000 HD
ENDROOT
BRANCH   2   5
ATOM      5  C   UNL     1      48.772   6.229  17.849  0.00  0.00    +0.000 A 
ATOM      6  C   UNL     1      49.085   4.922  18.211  0.00  0.00    +0.000 A 
ATOM      7  S   UNL     1      48.749   4.568  19.849  0.00  0.00    +0.000 S 
ATOM      8  C   UNL     1      48.210   6.155  20.141  0.00  0.00    +0.000 A 
ATOM      9  N   UNL     1      47.808   6.540  21.382  0.00  0.00    +0.000 NA
ATOM     10  C   UNL     1      47.463   7.782  21.469  0.00  0.00    +0.000 A 
ATOM     11  N   UNL     1      47.472   8.668  20.422  0.00  0.00    +0.000 N 
ATOM     12  C   UNL     1      47.828   8.313  19.142  0.00  0.00    +0.000 A 
ATOM     13  O   UNL     1      47.761   9.112  18.216  0.00  0.00    +0.000 OA
ATOM     14  C   UNL     1      48.257   6.937  18.999  0.00  0.00    +0.000 A 
ATOM     15  H   UNL     1      47.171   9.622  20.552  0.00  0.00    +0.000 HD
ENDBRANCH   2   5
BRANCH   3  16
ATOM     16  C   UNL     1      48.355   8.107  14.603  0.00  0.00    +0.000 C 
BRANCH  16  17
ATOM     17  C   UNL     1      47.365   7.610  13.578  0.00  0.00    +0.000 A 
ATOM     18  C   UNL     1      47.452   6.292  13.109  0.00  0.00    +0.000 A 
ATOM     19  C   UNL     1      46.552   5.809  12.150  0.00  0.00    +0.000 A 
ATOM     20  C   UNL     1      45.537   6.624  11.634  0.00  0.00    +0.000 A 
ATOM     21  C   UNL     1      45.446   7.944  12.108  0.00  0.00    +0.000 A 
ATOM     22  C   UNL     1      46.355   8.433  13.063  0.00  0.00    +0.000 A 
BRANCH  20  23
ATOM     23  C   UNL     1      44.664   6.132  10.493  0.00  0.00    +0.000 C 
BRANCH  23  24
ATOM     24  N   UNL     1      43.582   5.180  10.740  0.00  0.00    +0.000 NA
ATOM     25  C   UNL     1      42.754   5.413  11.921  0.00  0.00    +0.000 C 
ATOM     26  C   UNL     1      43.183   4.654  13.197  0.00  0.00    +0.000 C 
ATOM     27  N   UNL     1      43.495   3.226  13.013  0.00  0.00    +0.000 NA
ATOM     28  C   UNL     1      44.351   3.022  11.835  0.00  0.00    +0.000 C 
ATOM     29  C   UNL     1      43.888   3.762  10.563  0.00  0.00    +0.000 C 
ATOM     30  H   UNL     1      42.625   2.717  12.874  0.00  0.00    +0.000 HD
ENDBRANCH  23  24
ENDBRANCH  20  23
ENDBRANCH  16  17
ENDBRANCH   3  16
TORSDOF 5
ENDMDL
