MODEL 1
REMARK VINA RESULT:    -7.790      0.000      0.000
REMARK INTER + INTRA:         -11.905
REMARK INTER:                 -10.978
REMARK INTRA:                  -0.926
REMARK UNBOUND:                -0.926
REMARK  Name = 
REMARK  8 active torsions:
REMARK  status: ('A' for Active; 'I' for Inactive)
REMARK    1  A    between atoms: C_1  and  O_2
REMARK    2  A    between atoms: O_2  and  C_3
REMARK    3  A    between atoms: C_7  and  C_8
REMARK    4  A    between atoms: N_10  and  C_11
REMARK    5  A    between atoms: C_11  and  C_12
REMARK    6  A    between atoms: C_15  and  C_16
REMARK    7  A    between atoms: C_16  and  N_17
REMARK    8  A    between atoms: C_18  and  C_20
REMARK                            x       y       z     vdW  Elec       q    Type
REMARK                         _______ _______ _______ _____ _____    ______ ____
ROOT
ATOM      1  C   UNL     1      45.047   6.422  11.438  0.00  0.00    +0.000 A 
ATOM      2  C   UNL     1      44.729   7.759  11.713  0.00  0.00    +0.000 A 
ATOM      3  C   UNL     1      45.537   8.526  12.561  0.00  0.00    +0.000 A 
ATOM      4  C   UNL     1      46.691   7.978  13.136  0.00  0.00    +0.000 A 
ATOM      5  C   UNL     1      47.006   6.639  12.867  0.00  0.00    +0.000 A 
ATOM      6  C   UNL     1      46.198   5.872  12.019  0.00  0.00    +0.000 A 
ENDROOT
BRANCH   1   7
ATOM      7  C   UNL     1      44.190   5.602  10.506  0.00  0.00    +0.000 C 
BRANCH   7  10
ATOM      8  C   UNL     1      44.788   3.530   9.325  0.00  0.00    +0.000 C 
ATOM      9  O   UNL     1      43.942   2.865   9.910  0.00  0.00    +0.000 OA
ATOM     10  N   UNL     1      45.003   4.871   9.562  0.00  0.00    +0.000 N 
ATOM     11  H   UNL     1      45.546   5.408   8.900  0.00  0.00    +0.000 HD
BRANCH   8  16
ATOM     12  C   UNL     1      46.889   1.014   7.427  0.00  0.00    +0.000 A 
ATOM     13  C   UNL     1      47.164   1.717   6.253  0.00  0.00    +0.000 A 
ATOM     14  C   UNL     1      46.692   3.022   6.085  0.00  0.00    +0.000 A 
ATOM     15  C   UNL     1      45.928   3.625   7.084  0.00  0.00    +0.000 A 
ATOM     16  C   UNL     1      45.632   2.922   8.257  0.00  0.00    +0.000 A 
ATOM     17  C   UNL     1      46.135   1.627   8.435  0.00  0.00    +0.000 A 
BRANCH  12  19
ATOM     18  C   UNL     1      46.428  -1.316   7.286  0.00  0.00    +0.000 C 
ATOM     19  O   UNL     1      47.293  -0.264   7.703  0.00  0.00    +0.000 OA
ENDBRANCH  12  19
ENDBRANCH   8  16
ENDBRANCH   7  10
ENDBRANCH   1   7
BRANCH   4  20
ATOM     20  C   UNL     1      47.564   8.796  14.055  0.00  0.00    +0.000 C 
BRANCH  20  21
ATOM     21  N   UNL     1      47.841   8.095  15.283  0.00  0.00    +0.000 N 
ATOM     22  C   UNL     1      49.062   7.512  15.510  0.00  0.00    +0.000 C 
ATOM     23  O   UNL     1      49.986   7.609  14.705  0.00  0.00    +0.000 OA
ATOM     24  H   UNL     1      47.041   7.810  15.841  0.00  0.00    +0.000 HD
BRANCH  22  25
ATOM     25  C   UNL     1      49.236   6.815  16.791  0.00  0.00    +0.000 A 
ATOM     26  C   UNL     1      49.914   7.441  17.829  0.00  0.00    +0.000 A 
ATOM     27  S   UNL     1      49.986   6.513  19.259  0.00  0.00    +0.000 S 
ATOM     28  C   UNL     1      49.161   5.219  18.525  0.00  0.00    +0.000 A 
ATOM     29  N   UNL     1      48.914   4.070  19.210  0.00  0.00    +0.000 NA
ATOM     30  C   UNL     1      48.312   3.158  18.522  0.00  0.00    +0.000 A 
ATOM     31  N   UNL     1      47.931   3.295  17.212  0.00  0.00    +0.000 N 
ATOM     32  C   UNL     1      48.132   4.446  16.490  0.00  0.00    +0.000 A 
ATOM     33  O   UNL     1      47.738   4.551  15.333  0.00  0.00    +0.000 OA
ATOM     34  C   UNL     1      48.818   5.499  17.214  0.00  0.00    +0.000 A 
ATOM     35  H   UNL     1      47.454   2.545  16.732  0.00  0.00    +0.000 HD
ENDBRANCH  22  25
ENDBRANCH  20  21
ENDBRANCH   4  20
TORSDOF 7
ENDMDL
MODEL 2
REMARK VINA RESULT:    -7.132      2.572      3.529
REMARK INTER + INTRA:         -10.977
REMARK INTER:                  -9.952
REMARK INTRA:                  -1.025
REMARK UNBOUND:                -0.926
REMARK  Name = 
REMARK  8 active torsions:
REMARK  status: ('A' for Active; 'I' for Inactive)
REMARK    1  A    between atoms: C_1  and  O_2
REMARK    2  A    between atoms: O_2  and  C_3
REMARK    3  A    between atoms: C_7  and  C_8
REMARK    4  A    between atoms: N_10  and  C_11
REMARK    5  A    between atoms: C_11  and  C_12
REMARK    6  A    between atoms: C_15  and  C_16
REMARK    7  A    between atoms: C_16  and  N_17
REMARK    8  A    between atoms: C_18  and  C_20
REMARK                            x       y       z     vdW  Elec       q    Type
REMARK                         _______ _______ _______ _____ _____    ______ ____
ROOT
ATOM      1  C   UNL     1      46.237   7.440  12.573  0.00  0.00    +0.000 A 
ATOM      2  C   UNL     1      46.982   6.336  13.009  0.00  0.00    +0.000 A 
ATOM      3  C   UNL     1      47.931   6.473  14.029  0.00  0.00    +0.000 A 
ATOM      4  C   UNL     1      48.142   7.712  14.648  0.00  0.00    +0.000 A 
ATOM      5  C   UNL     1      47.402   8.817  14.207  0.00  0.00    +0.000 A 
ATOM      6  C   UNL     1      46.453   8.680  13.187  0.00  0.00    +0.000 A 
ENDROOT
BRANCH   1   7
ATOM      7  C   UNL     1      45.197   7.288  11.490  0.00  0.00    +0.000 C 
BRANCH   7  10
ATOM      8  C   UNL     1      44.560   5.127  10.503  0.00  0.00    +0.000 C 
ATOM      9  O   UNL     1      43.479   5.100  11.078  0.00  0.00    +0.000 OA
ATOM     10  N   UNL     1      45.481   6.143  10.656  0.00  0.00    +0.000 N 
ATOM     11  H   UNL     1      46.240   6.223   9.996  0.00  0.00    +0.000 HD
BRANCH   8  16
ATOM     12  C   UNL     1      46.034   3.407   7.468  0.00  0.00    +0.000 A 
ATOM     13  C   UNL     1      45.734   2.071   7.737  0.00  0.00    +0.000 A 
ATOM     14  C   UNL     1      45.025   1.726   8.892  0.00  0.00    +0.000 A 
ATOM     15  C   UNL     1      44.627   2.715   9.792  0.00  0.00    +0.000 A 
ATOM     16  C   UNL     1      44.940   4.055   9.540  0.00  0.00    +0.000 A 
ATOM     17  C   UNL     1      45.621   4.399   8.365  0.00  0.00    +0.000 A 
BRANCH  12  19
ATOM     18  C   UNL     1      46.972   2.925   5.335  0.00  0.00    +0.000 C 
ATOM     19  O   UNL     1      46.722   3.863   6.377  0.00  0.00    +0.000 OA
ENDBRANCH  12  19
ENDBRANCH   8  16
ENDBRANCH   7  10
ENDBRANCH   1   7
BRANCH   4  20
ATOM     20  C   UNL     1      49.167   7.868  15.743  0.00  0.00    +0.000 C 
BRANCH  20  21
ATOM     21  N   UNL     1      49.823   6.619  16.034  0.00  0.00    +0.000 N 
ATOM     22  C   UNL     1      49.442   5.849  17.104  0.00  0.00    +0.000 C 
ATOM     23  O   UNL     1      48.496   6.160  17.823  0.00  0.00    +0.000 OA
ATOM     24  H   UNL     1      50.732   6.465  15.607  0.00  0.00    +0.000 HD
BRANCH  22  25
ATOM     25  C   UNL     1      50.183   4.598  17.316  0.00  0.00    +0.000 A 
ATOM     26  C   UNL     1      49.526   3.381  17.198  0.00  0.00    +0.000 A 
ATOM     27  S   UNL     1      50.540   2.028  17.430  0.00  0.00    +0.000 S 
ATOM     28  C   UNL     1      51.882   3.022  17.750  0.00  0.00    +0.000 A 
ATOM     29  N   UNL     1      53.092   2.484  18.060  0.00  0.00    +0.000 NA
ATOM     30  C   UNL     1      54.013   3.352  18.315  0.00  0.00    +0.000 A 
ATOM     31  N   UNL     1      53.834   4.711  18.281  0.00  0.00    +0.000 N 
ATOM     32  C   UNL     1      52.639   5.300  17.943  0.00  0.00    +0.000 A 
ATOM     33  O   UNL     1      52.525   6.520  17.880  0.00  0.00    +0.000 OA
ATOM     34  C   UNL     1      51.566   4.366  17.662  0.00  0.00    +0.000 A 
ATOM     35  H   UNL     1      54.599   5.338  18.481  0.00  0.00    +0.000 HD
ENDBRANCH  22  25
ENDBRANCH  20  21
ENDBRANCH   4  20
TORSDOF 7
ENDMDL
MODEL 3
REMARK VINA RESULT:    -7.113      1.753      2.384
REMARK INTER + INTRA:         -10.951
REMARK INTER:                  -9.954
REMARK INTRA:                  -0.997
REMARK UNBOUND:                -0.926
REMARK  Name = 
REMARK  8 active torsions:
REMARK  status: ('A' for Active; 'I' for Inactive)
REMARK    1  A    between atoms: C_1  and  O_2
REMARK    2  A    between atoms: O_2  and  C_3
REMARK    3  A    between atoms: C_7  and  C_8
REMARK    4  A    between atoms: N_10  and  C_11
REMARK    5  A    between atoms: C_11  and  C_12
REMARK    6  A    between atoms: C_15  and  C_16
REMARK    7  A    between atoms: C_16  and  N_17
REMARK    8  A    between atoms: C_18  and  C_20
REMARK                            x       y       z     vdW  Elec       q    Type
REMARK                         _______ _______ _______ _____ _____    ______ ____
ROOT
ATOM      1  C   UNL     1      45.424   6.245  11.636  0.00  0.00    +0.000 A 
ATOM      2  C   UNL     1      46.552   5.572  12.125  0.00  0.00    +0.000 A 
ATOM      3  C   UNL     1      47.428   6.201  13.017  0.00  0.00    +0.000 A 
ATOM      4  C   UNL     1      47.184   7.510  13.455  0.00  0.00    +0.000 A 
ATOM      5  C   UNL     1      46.061   8.185  12.960  0.00  0.00    +0.000 A 
ATOM      6  C   UNL     1      45.184   7.556  12.069  0.00  0.00    +0.000 A 
ENDROOT
BRANCH   1   7
ATOM      7  C   UNL     1      44.467   5.559  10.692  0.00  0.00    +0.000 C 
BRANCH   7  10
ATOM      8  C   UNL     1      45.317   3.656   9.387  0.00  0.00    +0.000 C 
ATOM      9  O   UNL     1      44.921   2.828  10.198  0.00  0.00    +0.000 OA
ATOM     10  N   UNL     1      45.164   5.017   9.549  0.00  0.00    +0.000 N 
ATOM     11  H   UNL     1      45.305   5.627   8.757  0.00  0.00    +0.000 HD
BRANCH   8  16
ATOM     12  C   UNL     1      46.846   1.442   6.721  0.00  0.00    +0.000 A 
ATOM     13  C   UNL     1      47.134   2.374   5.723  0.00  0.00    +0.000 A 
ATOM     14  C   UNL     1      46.859   3.730   5.923  0.00  0.00    +0.000 A 
ATOM     15  C   UNL     1      46.280   4.159   7.117  0.00  0.00    +0.000 A 
ATOM     16  C   UNL     1      45.971   3.230   8.117  0.00  0.00    +0.000 A 
ATOM     17  C   UNL     1      46.278   1.877   7.924  0.00  0.00    +0.000 A 
BRANCH  12  19
ATOM     18  C   UNL     1      46.729  -0.684   7.782  0.00  0.00    +0.000 C 
ATOM     19  O   UNL     1      47.065   0.094   6.638  0.00  0.00    +0.000 OA
ENDBRANCH  12  19
ENDBRANCH   8  16
ENDBRANCH   7  10
ENDBRANCH   1   7
BRANCH   4  20
ATOM     20  C   UNL     1      48.127   8.196  14.411  0.00  0.00    +0.000 C 
BRANCH  20  21
ATOM     21  N   UNL     1      48.041   7.630  15.734  0.00  0.00    +0.000 N 
ATOM     22  C   UNL     1      49.000   6.767  16.202  0.00  0.00    +0.000 C 
ATOM     23  O   UNL     1      49.995   6.483  15.539  0.00  0.00    +0.000 OA
ATOM     24  H   UNL     1      47.136   7.666  16.192  0.00  0.00    +0.000 HD
BRANCH  22  25
ATOM     25  C   UNL     1      48.812   6.242  17.561  0.00  0.00    +0.000 A 
ATOM     26  C   UNL     1      49.071   4.904  17.824  0.00  0.00    +0.000 A 
ATOM     27  S   UNL     1      48.848   4.470  19.459  0.00  0.00    +0.000 S 
ATOM     28  C   UNL     1      48.343   6.043  19.863  0.00  0.00    +0.000 A 
ATOM     29  N   UNL     1      47.967   6.351  21.133  0.00  0.00    +0.000 NA
ATOM     30  C   UNL     1      47.573   7.571  21.292  0.00  0.00    +0.000 A 
ATOM     31  N   UNL     1      47.527   8.511  20.295  0.00  0.00    +0.000 N 
ATOM     32  C   UNL     1      47.926   8.255  19.005  0.00  0.00    +0.000 A 
ATOM     33  O   UNL     1      47.914   9.131  18.148  0.00  0.00    +0.000 OA
ATOM     34  C   UNL     1      48.364   6.892  18.771  0.00  0.00    +0.000 A 
ATOM     35  H   UNL     1      47.217   9.453  20.487  0.00  0.00    +0.000 HD
ENDBRANCH  22  25
ENDBRANCH  20  21
ENDBRANCH   4  20
TORSDOF 7
ENDMDL
MODEL 4
REMARK VINA RESULT:    -7.007      1.732      1.929
REMARK INTER + INTRA:         -10.801
REMARK INTER:                  -9.896
REMARK INTRA:                  -0.905
REMARK UNBOUND:                -0.926
REMARK  Name = 
REMARK  8 active torsions:
REMARK  status: ('A' for Active; 'I' for Inactive)
REMARK    1  A    between atoms: C_1  and  O_2
REMARK    2  A    between atoms: O_2  and  C_3
REMARK    3  A    between atoms: C_7  and  C_8
REMARK    4  A    between atoms: N_10  and  C_11
REMARK    5  A    between atoms: C_11  and  C_12
REMARK    6  A    between atoms: C_15  and  C_16
REMARK    7  A    between atoms: C_16  and  N_17
REMARK    8  A    between atoms: C_18  and  C_20
REMARK                            x       y       z     vdW  Elec       q    Type
REMARK                         _______ _______ _______ _____ _____    ______ ____
ROOT
ATOM      1  C   UNL     1      45.473   5.953  12.011  0.00  0.00    +0.000 A 
ATOM      2  C   UNL     1      45.000   7.259  12.198  0.00  0.00    +0.000 A 
ATOM      3  C   UNL     1      45.786   8.217  12.850  0.00  0.00    +0.000 A 
ATOM      4  C   UNL     1      47.069   7.894  13.312  0.00  0.00    +0.000 A 
ATOM      5  C   UNL     1      47.538   6.587  13.132  0.00  0.00    +0.000 A 
ATOM      6  C   UNL     1      46.753   5.629  12.479  0.00  0.00    +0.000 A 
ENDROOT
BRANCH   1   7
ATOM      7  C   UNL     1      44.636   4.927  11.287  0.00  0.00    +0.000 C 
BRANCH   7  10
ATOM      8  C   UNL     1      44.898   3.974   9.035  0.00  0.00    +0.000 C 
ATOM      9  O   UNL     1      43.757   4.266   8.699  0.00  0.00    +0.000 OA
ATOM     10  N   UNL     1      45.415   4.235  10.287  0.00  0.00    +0.000 N 
ATOM     11  H   UNL     1      46.413   4.180  10.430  0.00  0.00    +0.000 HD
BRANCH   8  16
ATOM     12  C   UNL     1      47.100   1.385   7.365  0.00  0.00    +0.000 A 
ATOM     13  C   UNL     1      47.554   2.090   6.248  0.00  0.00    +0.000 A 
ATOM     14  C   UNL     1      47.169   3.419   6.049  0.00  0.00    +0.000 A 
ATOM     15  C   UNL     1      46.315   4.046   6.957  0.00  0.00    +0.000 A 
ATOM     16  C   UNL     1      45.840   3.341   8.070  0.00  0.00    +0.000 A 
ATOM     17  C   UNL     1      46.255   2.021   8.282  0.00  0.00    +0.000 A 
BRANCH  12  19
ATOM     18  C   UNL     1      46.363  -0.873   7.502  0.00  0.00    +0.000 C 
ATOM     19  O   UNL     1      47.405   0.085   7.663  0.00  0.00    +0.000 OA
ENDBRANCH  12  19
ENDBRANCH   8  16
ENDBRANCH   7  10
ENDBRANCH   1   7
BRANCH   4  20
ATOM     20  C   UNL     1      47.919   8.919  14.021  0.00  0.00    +0.000 C 
BRANCH  20  21
ATOM     21  N   UNL     1      47.654   8.936  15.437  0.00  0.00    +0.000 N 
ATOM     22  C   UNL     1      48.595   8.512  16.341  0.00  0.00    +0.000 C 
ATOM     23  O   UNL     1      49.716   8.153  15.990  0.00  0.00    +0.000 OA
ATOM     24  H   UNL     1      46.682   9.003  15.723  0.00  0.00    +0.000 HD
BRANCH  22  25
ATOM     25  C   UNL     1      48.220   8.563  17.761  0.00  0.00    +0.000 A 
ATOM     26  C   UNL     1      48.054   9.792  18.385  0.00  0.00    +0.000 A 
ATOM     27  S   UNL     1      47.573   9.673  20.018  0.00  0.00    +0.000 S 
ATOM     28  C   UNL     1      47.623   7.973  19.964  0.00  0.00    +0.000 A 
ATOM     29  N   UNL     1      47.340   7.231  21.068  0.00  0.00    +0.000 NA
ATOM     30  C   UNL     1      47.451   5.956  20.897  0.00  0.00    +0.000 A 
ATOM     31  N   UNL     1      47.813   5.357  19.718  0.00  0.00    +0.000 N 
ATOM     32  C   UNL     1      48.078   6.063  18.570  0.00  0.00    +0.000 A 
ATOM     33  O   UNL     1      48.356   5.494  17.520  0.00  0.00    +0.000 OA
ATOM     34  C   UNL     1      47.981   7.503  18.713  0.00  0.00    +0.000 A 
ATOM     35  H   UNL     1      47.872   4.352  19.646  0.00  0.00    +0.000 HD
ENDBRANCH  22  25
ENDBRANCH  20  21
ENDBRANCH   4  20
TORSDOF 7
ENDMDL
MODEL 5
REMARK VINA RESULT:    -7.006      2.317      3.398
REMARK INTER + INTRA:         -10.800
REMARK INTER:                  -9.806
REMARK INTRA:                  -0.994
REMARK UNBOUND:                -0.926
REMARK  Name = 
REMARK  8 active torsions:
REMARK  status: ('A' for Active; 'I' for Inactive)
REMARK    1  A    between atoms: C_1  and  O_2
REMARK    2  A    between atoms: O_2  and  C_3
REMARK    3  A    between atoms: C_7  and  C_8
REMARK    4  A    between atoms: N_10  and  C_11
REMARK    5  A    between atoms: C_11  and  C_12
REMARK    6  A    between atoms: C_15  and  C_16
REMARK    7  A    between atoms: C_16  and  N_17
REMARK    8  A    between atoms: C_18  and  C_20
REMARK                            x       y       z     vdW  Elec       q    Type
REMARK                         _______ _______ _______ _____ _____    ______ ____
ROOT
ATOM      1  C   UNL     1      46.557   7.617  12.508  0.00  0.00    +0.000 A 
ATOM      2  C   UNL     1      46.642   8.629  13.474  0.00  0.00    +0.000 A 
ATOM      3  C   UNL     1      47.762   8.730  14.308  0.00  0.00    +0.000 A 
ATOM      4  C   UNL     1      48.830   7.831  14.181  0.00  0.00    +0.000 A 
ATOM      5  C   UNL     1      48.742   6.815  13.221  0.00  0.00    +0.000 A 
ATOM      6  C   UNL     1      47.622   6.715  12.386  0.00  0.00    +0.000 A 
ENDROOT
BRANCH   1   7
ATOM      7  C   UNL     1      45.361   7.524  11.593  0.00  0.00    +0.000 C 
BRANCH   7  10
ATOM      8  C   UNL     1      44.738   5.243  10.915  0.00  0.00    +0.000 C 
ATOM      9  O   UNL     1      43.983   5.087  11.867  0.00  0.00    +0.000 OA
ATOM     10  N   UNL     1      45.475   6.390  10.705  0.00  0.00    +0.000 N 
ATOM     11  H   UNL     1      45.897   6.547   9.801  0.00  0.00    +0.000 HD
BRANCH   8  16
ATOM     12  C   UNL     1      45.706   3.517   7.685  0.00  0.00    +0.000 A 
ATOM     13  C   UNL     1      45.225   2.226   7.910  0.00  0.00    +0.000 A 
ATOM     14  C   UNL     1      44.558   1.919   9.099  0.00  0.00    +0.000 A 
ATOM     15  C   UNL     1      44.383   2.897  10.078  0.00  0.00    +0.000 A 
ATOM     16  C   UNL     1      44.878   4.189   9.870  0.00  0.00    +0.000 A 
ATOM     17  C   UNL     1      45.517   4.501   8.663  0.00  0.00    +0.000 A 
BRANCH  12  19
ATOM     18  C   UNL     1      46.969   2.924   5.758  0.00  0.00    +0.000 C 
ATOM     19  O   UNL     1      46.375   3.934   6.567  0.00  0.00    +0.000 OA
ENDBRANCH  12  19
ENDBRANCH   8  16
ENDBRANCH   7  10
ENDBRANCH   1   7
BRANCH   4  20
ATOM     20  C   UNL     1      50.037   7.929  15.080  0.00  0.00    +0.000 C 
BRANCH  20  21
ATOM     21  N   UNL     1      49.672   7.805  16.469  0.00  0.00    +0.000 N 
ATOM     22  C   UNL     1      49.324   6.591  17.007  0.00  0.00    +0.000 C 
ATOM     23  O   UNL     1      49.359   5.556  16.347  0.00  0.00    +0.000 OA
ATOM     24  H   UNL     1      49.417   8.659  16.956  0.00  0.00    +0.000 HD
BRANCH  22  25
ATOM     25  C   UNL     1      48.961   6.578  18.431  0.00  0.00    +0.000 A 
ATOM     26  C   UNL     1      49.309   5.490  19.219  0.00  0.00    +0.000 A 
ATOM     27  S   UNL     1      48.855   5.655  20.855  0.00  0.00    +0.000 S 
ATOM     28  C   UNL     1      48.128   7.164  20.557  0.00  0.00    +0.000 A 
ATOM     29  N   UNL     1      47.511   7.851  21.555  0.00  0.00    +0.000 NA
ATOM     30  C   UNL     1      46.971   8.963  21.182  0.00  0.00    +0.000 A 
ATOM     31  N   UNL     1      46.999   9.452  19.901  0.00  0.00    +0.000 N 
ATOM     32  C   UNL     1      47.637   8.809  18.868  0.00  0.00    +0.000 A 
ATOM     33  O   UNL     1      47.681   9.296  17.744  0.00  0.00    +0.000 OA
ATOM     34  C   UNL     1      48.248   7.545  19.232  0.00  0.00    +0.000 A 
ATOM     35  H   UNL     1      46.565  10.336  19.676  0.00  0.00    +0.000 HD
ENDBRANCH  22  25
ENDBRANCH  20  21
ENDBRANCH   4  20
TORSDOF 7
ENDMDL
MODEL 6
REMARK VINA RESULT:    -6.999      1.522      2.274
REMARK INTER + INTRA:         -10.789
REMARK INTER:                  -9.608
REMARK INTRA:                  -1.182
REMARK UNBOUND:                -0.926
REMARK  Name = 
REMARK  8 active torsions:
REMARK  status: ('A' for Active; 'I' for Inactive)
REMARK    1  A    between atoms: C_1  and  O_2
REMARK    2  A    between atoms: O_2  and  C_3
REMARK    3  A    between atoms: C_7  and  C_8
REMARK    4  A    between atoms: N_10  and  C_11
REMARK    5  A    between atoms: C_11  and  C_12
REMARK    6  A    between atoms: C_15  and  C_16
REMARK    7  A    between atoms: C_16  and  N_17
REMARK    8  A    between atoms: C_18  and  C_20
REMARK                            x       y       z     vdW  Elec       q    Type
REMARK                         _______ _______ _______ _____ _____    ______ ____
ROOT
ATOM      1  C   UNL     1      45.805   7.640  12.040  0.00  0.00    +0.000 A 
ATOM      2  C   UNL     1      46.941   6.865  12.310  0.00  0.00    +0.000 A 
ATOM      3  C   UNL     1      47.990   7.379  13.082  0.00  0.00    +0.000 A 
ATOM      4  C   UNL     1      47.916   8.672  13.617  0.00  0.00    +0.000 A 
ATOM      5  C   UNL     1      46.783   9.449  13.342  0.00  0.00    +0.000 A 
ATOM      6  C   UNL     1      45.735   8.935  12.571  0.00  0.00    +0.000 A 
ENDROOT
BRANCH   1   7
ATOM      7  C   UNL     1      44.665   7.077  11.228  0.00  0.00    +0.000 C 
BRANCH   7  10
ATOM      8  C   UNL     1      44.344   4.805  10.345  0.00  0.00    +0.000 C 
ATOM      9  O   UNL     1      43.294   4.637  10.954  0.00  0.00    +0.000 OA
ATOM     10  N   UNL     1      45.101   5.955  10.430  0.00  0.00    +0.000 N 
ATOM     11  H   UNL     1      45.822   6.123   9.744  0.00  0.00    +0.000 HD
BRANCH   8  16
ATOM     12  C   UNL     1      46.116   3.198   7.408  0.00  0.00    +0.000 A 
ATOM     13  C   UNL     1      45.908   1.843   7.671  0.00  0.00    +0.000 A 
ATOM     14  C   UNL     1      45.166   1.446   8.787  0.00  0.00    +0.000 A 
ATOM     15  C   UNL     1      44.641   2.403   9.656  0.00  0.00    +0.000 A 
ATOM     16  C   UNL     1      44.861   3.763   9.412  0.00  0.00    +0.000 A 
ATOM     17  C   UNL     1      45.577   4.157   8.275  0.00  0.00    +0.000 A 
BRANCH  12  19
ATOM     18  C   UNL     1      47.068   2.826   5.260  0.00  0.00    +0.000 C 
ATOM     19  O   UNL     1      46.826   3.705   6.354  0.00  0.00    +0.000 OA
ENDBRANCH  12  19
ENDBRANCH   8  16
ENDBRANCH   7  10
ENDBRANCH   1   7
BRANCH   4  20
ATOM     20  C   UNL     1      49.044   9.234  14.445  0.00  0.00    +0.000 C 
BRANCH  20  21
ATOM     21  N   UNL     1      49.300   8.425  15.610  0.00  0.00    +0.000 N 
ATOM     22  C   UNL     1      48.621   8.635  16.784  0.00  0.00    +0.000 C 
ATOM     23  O   UNL     1      47.734   9.479  16.878  0.00  0.00    +0.000 OA
ATOM     24  H   UNL     1      50.167   7.897  15.622  0.00  0.00    +0.000 HD
BRANCH  22  25
ATOM     25  C   UNL     1      48.964   7.759  17.912  0.00  0.00    +0.000 A 
ATOM     26  C   UNL     1      49.336   8.317  19.128  0.00  0.00    +0.000 A 
ATOM     27  S   UNL     1      49.656   7.163  20.343  0.00  0.00    +0.000 S 
ATOM     28  C   UNL     1      49.363   5.875  19.272  0.00  0.00    +0.000 A 
ATOM     29  N   UNL     1      49.496   4.584  19.679  0.00  0.00    +0.000 NA
ATOM     30  C   UNL     1      49.278   3.708  18.755  0.00  0.00    +0.000 A 
ATOM     31  N   UNL     1      48.935   4.008  17.462  0.00  0.00    +0.000 N 
ATOM     32  C   UNL     1      48.759   5.295  17.014  0.00  0.00    +0.000 A 
ATOM     33  O   UNL     1      48.408   5.527  15.862  0.00  0.00    +0.000 OA
ATOM     34  C   UNL     1      49.007   6.319  18.011  0.00  0.00    +0.000 A 
ATOM     35  H   UNL     1      48.768   3.275  16.789  0.00  0.00    +0.000 HD
ENDBRANCH  22  25
ENDBRANCH  20  21
ENDBRANCH   4  20
TORSDOF 7
ENDMDL
MODEL 7
REMARK VINA RESULT:    -6.918      3.437      8.963
REMARK INTER + INTRA:         -10.675
REMARK INTER:                  -9.495
REMARK INTRA:                  -1.181
REMARK UNBOUND:                -0.926
REMARK  Name = 
REMARK  8 active torsions:
REMARK  status: ('A' for Active; 'I' for Inactive)
REMARK    1  A    between atoms: C_1  and  O_2
REMARK    2  A    between atoms: O_2  and  C_3
REMARK    3  A    between atoms: C_7  and  C_8
REMARK    4  A    between atoms: N_10  and  C_11
REMARK    5  A    between atoms: C_11  and  C_12
REMARK    6  A    between atoms: C_15  and  C_16
REMARK    7  A    between atoms: C_16  and  N_17
REMARK    8  A    between atoms: C_18  and  C_20
REMARK                            x       y       z     vdW  Elec       q    Type
REMARK                         _______ _______ _______ _____ _____    ______ ____
ROOT
ATOM      1  C   UNL     1      50.578   7.905  14.824  0.00  0.00    +0.000 A 
ATOM      2  C   UNL     1      50.560   8.938  13.877  0.00  0.00    +0.000 A 
ATOM      3  C   UNL     1      49.559   8.994  12.900  0.00  0.00    +0.000 A 
ATOM      4  C   UNL     1      48.543   8.028  12.862  0.00  0.00    +0.000 A 
ATOM      5  C   UNL     1      48.566   6.992  13.804  0.00  0.00    +0.000 A 
ATOM      6  C   UNL     1      49.566   6.937  14.782  0.00  0.00    +0.000 A 
ENDROOT
BRANCH   1   7
ATOM      7  C   UNL     1      51.643   7.859  15.892  0.00  0.00    +0.000 C 
BRANCH   7  10
ATOM      8  C   UNL     1      51.814   6.029  17.527  0.00  0.00    +0.000 C 
ATOM      9  O   UNL     1      51.433   6.727  18.458  0.00  0.00    +0.000 OA
ATOM     10  N   UNL     1      51.971   6.495  16.238  0.00  0.00    +0.000 N 
ATOM     11  H   UNL     1      52.066   5.832  15.482  0.00  0.00    +0.000 HD
BRANCH   8  16
ATOM     12  C   UNL     1      51.388   2.266  17.485  0.00  0.00    +0.000 A 
ATOM     13  C   UNL     1      52.610   1.846  18.014  0.00  0.00    +0.000 A 
ATOM     14  C   UNL     1      53.565   2.785  18.414  0.00  0.00    +0.000 A 
ATOM     15  C   UNL     1      53.311   4.149  18.271  0.00  0.00    +0.000 A 
ATOM     16  C   UNL     1      52.096   4.579  17.725  0.00  0.00    +0.000 A 
ATOM     17  C   UNL     1      51.129   3.636  17.356  0.00  0.00    +0.000 A 
BRANCH  12  19
ATOM     18  C   UNL     1      49.184   2.072  16.611  0.00  0.00    +0.000 C 
ATOM     19  O   UNL     1      50.381   1.444  17.058  0.00  0.00    +0.000 OA
ENDBRANCH  12  19
ENDBRANCH   8  16
ENDBRANCH   7  10
ENDBRANCH   1   7
BRANCH   4  20
ATOM     20  C   UNL     1      47.465   8.078  11.808  0.00  0.00    +0.000 C 
BRANCH  20  21
ATOM     21  N   UNL     1      46.808   6.804  11.664  0.00  0.00    +0.000 N 
ATOM     22  C   UNL     1      45.441   6.699  11.713  0.00  0.00    +0.000 C 
ATOM     23  O   UNL     1      44.719   7.686  11.826  0.00  0.00    +0.000 OA
ATOM     24  H   UNL     1      47.378   5.974  11.803  0.00  0.00    +0.000 HD
BRANCH  22  25
ATOM     25  C   UNL     1      44.875   5.351  11.563  0.00  0.00    +0.000 A 
ATOM     26  C   UNL     1      44.198   4.768  12.625  0.00  0.00    +0.000 A 
ATOM     27  S   UNL     1      43.564   3.224  12.270  0.00  0.00    +0.000 S 
ATOM     28  C   UNL     1      44.221   3.257  10.701  0.00  0.00    +0.000 A 
ATOM     29  N   UNL     1      44.066   2.201   9.857  0.00  0.00    +0.000 NA
ATOM     30  C   UNL     1      44.645   2.345   8.711  0.00  0.00    +0.000 A 
ATOM     31  N   UNL     1      45.359   3.453   8.333  0.00  0.00    +0.000 N 
ATOM     32  C   UNL     1      45.516   4.554   9.139  0.00  0.00    +0.000 A 
ATOM     33  O   UNL     1      46.123   5.547   8.753  0.00  0.00    +0.000 OA
ATOM     34  C   UNL     1      44.896   4.437  10.445  0.00  0.00    +0.000 A 
ATOM     35  H   UNL     1      45.780   3.508   7.417  0.00  0.00    +0.000 HD
ENDBRANCH  22  25
ENDBRANCH  20  21
ENDBRANCH   4  20
TORSDOF 7
ENDMDL
MODEL 8
REMARK VINA RESULT:    -6.910      3.757      9.268
REMARK INTER + INTRA:         -10.664
REMARK INTER:                  -9.624
REMARK INTRA:                  -1.040
REMARK UNBOUND:                -0.926
REMARK  Name = 
REMARK  8 active torsions:
REMARK  status: ('A' for Active; 'I' for Inactive)
REMARK    1  A    between atoms: C_1  and  O_2
REMARK    2  A    between atoms: O_2  and  C_3
REMARK    3  A    between atoms: C_7  and  C_8
REMARK    4  A    between atoms: N_10  and  C_11
REMARK    5  A    between atoms: C_11  and  C_12
REMARK    6  A    between atoms: C_15  and  C_16
REMARK    7  A    between atoms: C_16  and  N_17
REMARK    8  A    between atoms: C_18  and  C_20
REMARK                            x       y       z     vdW  Elec       q    Type
REMARK                         _______ _______ _______ _____ _____    ______ ____
ROOT
ATOM      1  C   UNL     1      49.958   7.367  15.632  0.00  0.00    +0.000 A 
ATOM      2  C   UNL     1      50.211   8.382  14.699  0.00  0.00    +0.000 A 
ATOM      3  C   UNL     1      49.428   8.504  13.545  0.00  0.00    +0.000 A 
ATOM      4  C   UNL     1      48.363   7.625  13.308  0.00  0.00    +0.000 A 
ATOM      5  C   UNL     1      48.114   6.606  14.237  0.00  0.00    +0.000 A 
ATOM      6  C   UNL     1      48.896   6.485  15.391  0.00  0.00    +0.000 A 
ENDROOT
BRANCH   1   7
ATOM      7  C   UNL     1      50.786   7.251  16.887  0.00  0.00    +0.000 C 
BRANCH   7  10
ATOM      8  C   UNL     1      50.911   5.013  17.900  0.00  0.00    +0.000 C 
ATOM      9  O   UNL     1      50.001   5.238  18.689  0.00  0.00    +0.000 OA
ATOM     10  N   UNL     1      51.383   5.940  16.994  0.00  0.00    +0.000 N 
ATOM     11  H   UNL     1      51.968   5.630  16.231  0.00  0.00    +0.000 HD
BRANCH   8  16
ATOM     12  C   UNL     1      53.508   2.274  18.219  0.00  0.00    +0.000 A 
ATOM     13  C   UNL     1      52.779   1.157  17.806  0.00  0.00    +0.000 A 
ATOM     14  C   UNL     1      51.450   1.293  17.394  0.00  0.00    +0.000 A 
ATOM     15  C   UNL     1      50.837   2.546  17.409  0.00  0.00    +0.000 A 
ATOM     16  C   UNL     1      51.553   3.669  17.839  0.00  0.00    +0.000 A 
ATOM     17  C   UNL     1      52.894   3.532  18.219  0.00  0.00    +0.000 A 
BRANCH  12  19
ATOM     18  C   UNL     1      55.048   1.793  19.967  0.00  0.00    +0.000 C 
ATOM     19  O   UNL     1      54.807   2.264  18.644  0.00  0.00    +0.000 OA
ENDBRANCH  12  19
ENDBRANCH   8  16
ENDBRANCH   7  10
ENDBRANCH   1   7
BRANCH   4  20
ATOM     20  C   UNL     1      47.519   7.746  12.064  0.00  0.00    +0.000 C 
BRANCH  20  21
ATOM     21  N   UNL     1      46.836   6.513  11.767  0.00  0.00    +0.000 N 
ATOM     22  C   UNL     1      45.476   6.400  11.915  0.00  0.00    +0.000 C 
ATOM     23  O   UNL     1      44.779   7.354  12.251  0.00  0.00    +0.000 OA
ATOM     24  H   UNL     1      47.404   5.672  11.717  0.00  0.00    +0.000 HD
BRANCH  22  25
ATOM     25  C   UNL     1      44.881   5.096  11.593  0.00  0.00    +0.000 A 
ATOM     26  C   UNL     1      44.158   4.412  12.560  0.00  0.00    +0.000 A 
ATOM     27  S   UNL     1      43.498   2.938  12.009  0.00  0.00    +0.000 S 
ATOM     28  C   UNL     1      44.202   3.135  10.473  0.00  0.00    +0.000 A 
ATOM     29  N   UNL     1      44.047   2.190   9.507  0.00  0.00    +0.000 NA
ATOM     30  C   UNL     1      44.663   2.450   8.403  0.00  0.00    +0.000 A 
ATOM     31  N   UNL     1      45.416   3.574   8.176  0.00  0.00    +0.000 N 
ATOM     32  C   UNL     1      45.575   4.569   9.110  0.00  0.00    +0.000 A 
ATOM     33  O   UNL     1      46.219   5.582   8.859  0.00  0.00    +0.000 OA
ATOM     34  C   UNL     1      44.913   4.318  10.376  0.00  0.00    +0.000 A 
ATOM     35  H   UNL     1      45.866   3.723   7.285  0.00  0.00    +0.000 HD
ENDBRANCH  22  25
ENDBRANCH  20  21
ENDBRANCH   4  20
TORSDOF 7
ENDMDL
MODEL 9
REMARK VINA RESULT:    -6.891      6.000      7.743
REMARK INTER + INTRA:         -10.637
REMARK INTER:                  -9.662
REMARK INTRA:                  -0.975
REMARK UNBOUND:                -0.926
REMARK  Name = 
REMARK  8 active torsions:
REMARK  status: ('A' for Active; 'I' for Inactive)
REMARK    1  A    between atoms: C_1  and  O_2
REMARK    2  A    between atoms: O_2  and  C_3
REMARK    3  A    between atoms: C_7  and  C_8
REMARK    4  A    between atoms: N_10  and  C_11
REMARK    5  A    between atoms: C_11  and  C_12
REMARK    6  A    between atoms: C_15  and  C_16
REMARK    7  A    between atoms: C_16  and  N_17
REMARK    8  A    between atoms: C_18  and  C_20
REMARK                            x       y       z     vdW  Elec       q    Type
REMARK                         _______ _______ _______ _____ _____    ______ ____
ROOT
ATOM      1  C   UNL     1      48.164   8.208  12.205  0.00  0.00    +0.000 A 
ATOM      2  C   UNL     1      48.277   9.583  11.955  0.00  0.00    +0.000 A 
ATOM      3  C   UNL     1      49.473  10.125  11.470  0.00  0.00    +0.000 A 
ATOM      4  C   UNL     1      50.576   9.302  11.207  0.00  0.00    +0.000 A 
ATOM      5  C   UNL     1      50.465   7.929  11.464  0.00  0.00    +0.000 A 
ATOM      6  C   UNL     1      49.269   7.386  11.948  0.00  0.00    +0.000 A 
ENDROOT
BRANCH   1   7
ATOM      7  C   UNL     1      46.867   7.621  12.704  0.00  0.00    +0.000 C 
BRANCH   7  10
ATOM      8  C   UNL     1      45.309   6.320  11.315  0.00  0.00    +0.000 C 
ATOM      9  O   UNL     1      44.443   7.186  11.346  0.00  0.00    +0.000 OA
ATOM     10  N   UNL     1      46.520   6.428  11.966  0.00  0.00    +0.000 N 
ATOM     11  H   UNL     1      47.270   5.797  11.722  0.00  0.00    +0.000 HD
BRANCH   8  16
ATOM     12  C   UNL     1      45.467   3.869   8.432  0.00  0.00    +0.000 A 
ATOM     13  C   UNL     1      44.848   2.749   8.990  0.00  0.00    +0.000 A 
ATOM     14  C   UNL     1      44.350   2.796  10.296  0.00  0.00    +0.000 A 
ATOM     15  C   UNL     1      44.484   3.958  11.056  0.00  0.00    +0.000 A 
ATOM     16  C   UNL     1      45.120   5.079  10.512  0.00  0.00    +0.000 A 
ATOM     17  C   UNL     1      45.587   5.038   9.192  0.00  0.00    +0.000 A 
BRANCH  12  19
ATOM     18  C   UNL     1      46.713   2.803   6.709  0.00  0.00    +0.000 C 
ATOM     19  O   UNL     1      45.994   3.941   7.172  0.00  0.00    +0.000 OA
ENDBRANCH  12  19
ENDBRANCH   8  16
ENDBRANCH   7  10
ENDBRANCH   1   7
BRANCH   4  20
ATOM     20  C   UNL     1      51.870   9.879  10.690  0.00  0.00    +0.000 C 
BRANCH  20  21
ATOM     21  N   UNL     1      52.254   9.279   9.438  0.00  0.00    +0.000 N 
ATOM     22  C   UNL     1      53.451   8.624   9.302  0.00  0.00    +0.000 C 
ATOM     23  O   UNL     1      54.220   8.473  10.248  0.00  0.00    +0.000 OA
ATOM     24  H   UNL     1      51.755   9.587   8.608  0.00  0.00    +0.000 HD
BRANCH  22  25
ATOM     25  C   UNL     1      53.748   8.055   7.979  0.00  0.00    +0.000 A 
ATOM     26  C   UNL     1      53.953   8.901   6.897  0.00  0.00    +0.000 A 
ATOM     27  S   UNL     1      54.331   8.082   5.449  0.00  0.00    +0.000 S 
ATOM     28  C   UNL     1      54.181   6.565   6.205  0.00  0.00    +0.000 A 
ATOM     29  N   UNL     1      54.355   5.414   5.501  0.00  0.00    +0.000 NA
ATOM     30  C   UNL     1      54.176   4.336   6.189  0.00  0.00    +0.000 A 
ATOM     31  N   UNL     1      53.846   4.307   7.520  0.00  0.00    +0.000 N 
ATOM     32  C   UNL     1      53.691   5.442   8.278  0.00  0.00    +0.000 A 
ATOM     33  O   UNL     1      53.439   5.379   9.476  0.00  0.00    +0.000 OA
ATOM     34  C   UNL     1      53.866   6.682   7.547  0.00  0.00    +0.000 A 
ATOM     35  H   UNL     1      53.730   3.428   8.004  0.00  0.00    +0.000 HD
ENDBRANCH  22  25
ENDBRANCH  20  21
ENDBRANCH   4  20
TORSDOF 7
ENDMDL
