MODEL 1
REMARK VINA RESULT:    -8.404      0.000      0.000
REMARK INTER + INTRA:         -13.161
REMARK INTER:                 -11.842
REMARK INTRA:                  -1.318
REMARK UNBOUND:                -1.318
REMARK  Name = 
REMARK  7 active torsions:
REMARK  status: ('A' for Active; 'I' for Inactive)
REMARK    1  A    between atoms: C_2  and  C_4
REMARK    2  A    between atoms: C_8  and  C_9
REMARK    3  A    between atoms: C_9  and  N_10
REMARK    4  A    between atoms: N_10  and  C_11
REMARK    5  A    between atoms: C_14  and  C_15
REMARK    6  A    between atoms: C_15  and  N_16
REMARK    7  A    between atoms: C_17  and  C_19
REMARK                            x       y       z     vdW  Elec       q    Type
REMARK                         _______ _______ _______ _____ _____    ______ ____
ROOT
ATOM      1  C   UNL     1      44.927   3.832  12.455  0.00  0.00    +0.000 A 
ATOM      2  C   UNL     1      44.367   5.112  12.515  0.00  0.00    +0.000 A 
ATOM      3  C   UNL     1      45.134   6.216  12.916  0.00  0.00    +0.000 A 
ATOM      4  C   UNL     1      46.480   6.060  13.269  0.00  0.00    +0.000 A 
ATOM      5  C   UNL     1      47.014   4.768  13.300  0.00  0.00    +0.000 A 
ATOM      6  C   UNL     1      46.241   3.671  12.908  0.00  0.00    +0.000 A 
ENDROOT
BRANCH   1   7
ATOM      7  N   UNL     1      44.250   2.688  12.020  0.00  0.00    +0.000 N 
ATOM      8  H   UNL     1      43.627   2.341  12.745  0.00  0.00    +0.000 HD
BRANCH   7   9
ATOM      9  C   UNL     1      43.616   2.689  10.709  0.00  0.00    +0.000 C 
BRANCH   9  14
ATOM     10  C   UNL     1      46.307   2.200   8.026  0.00  0.00    +0.000 A 
ATOM     11  C   UNL     1      46.452   3.505   7.540  0.00  0.00    +0.000 A 
ATOM     12  C   UNL     1      45.721   4.545   8.114  0.00  0.00    +0.000 A 
ATOM     13  C   UNL     1      44.833   4.281   9.159  0.00  0.00    +0.000 A 
ATOM     14  C   UNL     1      44.653   2.975   9.643  0.00  0.00    +0.000 A 
ATOM     15  C   UNL     1      45.404   1.938   9.069  0.00  0.00    +0.000 A 
BRANCH  10  17
ATOM     16  N   UNL     1      46.583  -0.202   7.686  0.00  0.00    +0.000 N 
ATOM     17  C   UNL     1      47.055   1.057   7.437  0.00  0.00    +0.000 C 
ATOM     18  O   UNL     1      48.038   1.231   6.727  0.00  0.00    +0.000 OA
ATOM     19  H   UNL     1      47.044  -0.958   7.197  0.00  0.00    +0.000 HD
ATOM     20  H   UNL     1      45.659  -0.374   8.053  0.00  0.00    +0.000 HD
ENDBRANCH  10  17
ENDBRANCH   9  14
ENDBRANCH   7   9
ENDBRANCH   1   7
BRANCH   4  21
ATOM     21  C   UNL     1      47.343   7.243  13.621  0.00  0.00    +0.000 C 
BRANCH  21  22
ATOM     22  N   UNL     1      47.766   7.202  14.996  0.00  0.00    +0.000 N 
ATOM     23  C   UNL     1      49.087   7.016  15.319  0.00  0.00    +0.000 C 
ATOM     24  O   UNL     1      49.960   6.933  14.460  0.00  0.00    +0.000 OA
ATOM     25  H   UNL     1      47.050   7.030  15.694  0.00  0.00    +0.000 HD
BRANCH  23  26
ATOM     26  C   UNL     1      49.414   6.984  16.749  0.00  0.00    +0.000 A 
ATOM     27  C   UNL     1      50.274   7.938  17.277  0.00  0.00    +0.000 A 
ATOM     28  S   UNL     1      50.509   7.792  18.959  0.00  0.00    +0.000 S 
ATOM     29  C   UNL     1      49.515   6.413  19.032  0.00  0.00    +0.000 A 
ATOM     30  N   UNL     1      49.310   5.760  20.209  0.00  0.00    +0.000 NA
ATOM     31  C   UNL     1      48.564   4.711  20.114  0.00  0.00    +0.000 A 
ATOM     32  N   UNL     1      47.999   4.257  18.950  0.00  0.00    +0.000 N 
ATOM     33  C   UNL     1      48.156   4.899  17.745  0.00  0.00    +0.000 A 
ATOM     34  O   UNL     1      47.606   4.486  16.728  0.00  0.00    +0.000 OA
ATOM     35  C   UNL     1      48.997   6.079  17.793  0.00  0.00    +0.000 A 
ATOM     36  H   UNL     1      47.421   3.430  18.943  0.00  0.00    +0.000 HD
ENDBRANCH  23  26
ENDBRANCH  21  22
ENDBRANCH   4  21
TORSDOF 7
ENDMDL
MODEL 2
REMARK VINA RESULT:    -7.911      1.627      2.035
REMARK INTER + INTRA:         -12.466
REMARK INTER:                 -11.246
REMARK INTRA:                  -1.220
REMARK UNBOUND:                -1.318
REMARK  Name = 
REMARK  7 active torsions:
REMARK  status: ('A' for Active; 'I' for Inactive)
REMARK    1  A    between atoms: C_2  and  C_4
REMARK    2  A    between atoms: C_8  and  C_9
REMARK    3  A    between atoms: C_9  and  N_10
REMARK    4  A    between atoms: N_10  and  C_11
REMARK    5  A    between atoms: C_14  and  C_15
REMARK    6  A    between atoms: C_15  and  N_16
REMARK    7  A    between atoms: C_17  and  C_19
REMARK                            x       y       z     vdW  Elec       q    Type
REMARK                         _______ _______ _______ _____ _____    ______ ____
ROOT
ATOM      1  C   UNL     1      45.312   5.136  11.616  0.00  0.00    +0.000 A 
ATOM      2  C   UNL     1      45.722   4.560  12.823  0.00  0.00    +0.000 A 
ATOM      3  C   UNL     1      46.788   5.103  13.556  0.00  0.00    +0.000 A 
ATOM      4  C   UNL     1      47.470   6.235  13.091  0.00  0.00    +0.000 A 
ATOM      5  C   UNL     1      47.123   6.753  11.840  0.00  0.00    +0.000 A 
ATOM      6  C   UNL     1      46.066   6.201  11.112  0.00  0.00    +0.000 A 
ENDROOT
BRANCH   1   7
ATOM      7  N   UNL     1      44.231   4.690  10.850  0.00  0.00    +0.000 N 
ATOM      8  H   UNL     1      43.352   5.029  11.235  0.00  0.00    +0.000 HD
BRANCH   7   9
ATOM      9  C   UNL     1      44.280   4.824   9.400  0.00  0.00    +0.000 C 
BRANCH   9  14
ATOM     10  C   UNL     1      46.464   2.551   7.223  0.00  0.00    +0.000 A 
ATOM     11  C   UNL     1      46.222   1.299   7.802  0.00  0.00    +0.000 A 
ATOM     12  C   UNL     1      45.316   1.186   8.857  0.00  0.00    +0.000 A 
ATOM     13  C   UNL     1      44.666   2.321   9.346  0.00  0.00    +0.000 A 
ATOM     14  C   UNL     1      44.916   3.590   8.797  0.00  0.00    +0.000 A 
ATOM     15  C   UNL     1      45.818   3.691   7.727  0.00  0.00    +0.000 A 
BRANCH  10  17
ATOM     16  N   UNL     1      48.762   2.708   6.416  0.00  0.00    +0.000 N 
ATOM     17  C   UNL     1      47.430   2.723   6.107  0.00  0.00    +0.000 C 
ATOM     18  O   UNL     1      47.056   2.842   4.947  0.00  0.00    +0.000 OA
ATOM     19  H   UNL     1      49.404   2.726   5.633  0.00  0.00    +0.000 HD
ATOM     20  H   UNL     1      49.112   2.375   7.302  0.00  0.00    +0.000 HD
ENDBRANCH  10  17
ENDBRANCH   9  14
ENDBRANCH   7   9
ENDBRANCH   1   7
BRANCH   4  21
ATOM     21  C   UNL     1      48.561   6.882  13.902  0.00  0.00    +0.000 C 
BRANCH  21  22
ATOM     22  N   UNL     1      48.330   6.739  15.315  0.00  0.00    +0.000 N 
ATOM     23  C   UNL     1      48.932   7.582  16.215  0.00  0.00    +0.000 C 
ATOM     24  O   UNL     1      49.641   8.517  15.854  0.00  0.00    +0.000 OA
ATOM     25  H   UNL     1      47.955   5.852  15.634  0.00  0.00    +0.000 HD
BRANCH  23  26
ATOM     26  C   UNL     1      48.636   7.349  17.633  0.00  0.00    +0.000 A 
ATOM     27  C   UNL     1      48.128   8.385  18.406  0.00  0.00    +0.000 A 
ATOM     28  S   UNL     1      47.791   7.934  20.016  0.00  0.00    +0.000 S 
ATOM     29  C   UNL     1      48.366   6.355  19.751  0.00  0.00    +0.000 A 
ATOM     30  N   UNL     1      48.382   5.440  20.758  0.00  0.00    +0.000 NA
ATOM     31  C   UNL     1      48.876   4.294  20.429  0.00  0.00    +0.000 A 
ATOM     32  N   UNL     1      49.349   3.976  19.181  0.00  0.00    +0.000 N 
ATOM     33  C   UNL     1      49.327   4.859  18.129  0.00  0.00    +0.000 A 
ATOM     34  O   UNL     1      49.725   4.531  17.014  0.00  0.00    +0.000 OA
ATOM     35  C   UNL     1      48.792   6.169  18.449  0.00  0.00    +0.000 A 
ATOM     36  H   UNL     1      49.720   3.058  18.986  0.00  0.00    +0.000 HD
ENDBRANCH  23  26
ENDBRANCH  21  22
ENDBRANCH   4  21
TORSDOF 7
ENDMDL
MODEL 3
REMARK VINA RESULT:    -7.812      2.016      2.544
REMARK INTER + INTRA:         -12.327
REMARK INTER:                 -11.100
REMARK INTRA:                  -1.227
REMARK UNBOUND:                -1.318
REMARK  Name = 
REMARK  7 active torsions:
REMARK  status: ('A' for Active; 'I' for Inactive)
REMARK    1  A    between atoms: C_2  and  C_4
REMARK    2  A    between atoms: C_8  and  C_9
REMARK    3  A    between atoms: C_9  and  N_10
REMARK    4  A    between atoms: N_10  and  C_11
REMARK    5  A    between atoms: C_14  and  C_15
REMARK    6  A    between atoms: C_15  and  N_16
REMARK    7  A    between atoms: C_17  and  C_19
REMARK                            x       y       z     vdW  Elec       q    Type
REMARK                         _______ _______ _______ _____ _____    ______ ____
ROOT
ATOM      1  C   UNL     1      45.094   5.336  11.531  0.00  0.00    +0.000 A 
ATOM      2  C   UNL     1      45.586   6.630  11.334  0.00  0.00    +0.000 A 
ATOM      3  C   UNL     1      46.627   7.134  12.130  0.00  0.00    +0.000 A 
ATOM      4  C   UNL     1      47.193   6.351  13.144  0.00  0.00    +0.000 A 
ATOM      5  C   UNL     1      46.638   5.095  13.403  0.00  0.00    +0.000 A 
ATOM      6  C   UNL     1      45.595   4.603  12.613  0.00  0.00    +0.000 A 
ENDROOT
BRANCH   1   7
ATOM      7  N   UNL     1      44.097   4.739  10.754  0.00  0.00    +0.000 N 
ATOM      8  H   UNL     1      43.173   4.979  11.106  0.00  0.00    +0.000 HD
BRANCH   7   9
ATOM      9  C   UNL     1      44.170   4.834   9.303  0.00  0.00    +0.000 C 
BRANCH   9  14
ATOM     10  C   UNL     1      46.459   2.572   7.223  0.00  0.00    +0.000 A 
ATOM     11  C   UNL     1      46.256   1.332   7.841  0.00  0.00    +0.000 A 
ATOM     12  C   UNL     1      45.345   1.220   8.891  0.00  0.00    +0.000 A 
ATOM     13  C   UNL     1      44.649   2.346   9.336  0.00  0.00    +0.000 A 
ATOM     14  C   UNL     1      44.858   3.604   8.747  0.00  0.00    +0.000 A 
ATOM     15  C   UNL     1      45.765   3.703   7.682  0.00  0.00    +0.000 A 
BRANCH  10  17
ATOM     16  N   UNL     1      48.747   2.491   6.376  0.00  0.00    +0.000 N 
ATOM     17  C   UNL     1      47.429   2.743   6.110  0.00  0.00    +0.000 C 
ATOM     18  O   UNL     1      47.066   3.065   4.986  0.00  0.00    +0.000 OA
ATOM     19  H   UNL     1      49.376   2.516   5.584  0.00  0.00    +0.000 HD
ATOM     20  H   UNL     1      49.050   1.998   7.203  0.00  0.00    +0.000 HD
ENDBRANCH  10  17
ENDBRANCH   9  14
ENDBRANCH   7   9
ENDBRANCH   1   7
BRANCH   4  21
ATOM     21  C   UNL     1      48.364   6.842  13.953  0.00  0.00    +0.000 C 
BRANCH  21  22
ATOM     22  N   UNL     1      48.134   6.694  15.366  0.00  0.00    +0.000 N 
ATOM     23  C   UNL     1      49.170   6.413  16.221  0.00  0.00    +0.000 C 
ATOM     24  O   UNL     1      50.331   6.332  15.830  0.00  0.00    +0.000 OA
ATOM     25  H   UNL     1      47.179   6.523  15.662  0.00  0.00    +0.000 HD
BRANCH  23  26
ATOM     26  C   UNL     1      48.829   6.276  17.642  0.00  0.00    +0.000 A 
ATOM     27  C   UNL     1      49.007   5.052  18.274  0.00  0.00    +0.000 A 
ATOM     28  S   UNL     1      48.614   5.076  19.933  0.00  0.00    +0.000 S 
ATOM     29  C   UNL     1      48.139   6.708  19.852  0.00  0.00    +0.000 A 
ATOM     30  N   UNL     1      47.660   7.351  20.952  0.00  0.00    +0.000 NA
ATOM     31  C   UNL     1      47.304   8.574  20.741  0.00  0.00    +0.000 A 
ATOM     32  N   UNL     1      47.389   9.214  19.531  0.00  0.00    +0.000 N 
ATOM     33  C   UNL     1      47.890   8.613  18.402  0.00  0.00    +0.000 A 
ATOM     34  O   UNL     1      47.986   9.227  17.343  0.00  0.00    +0.000 OA
ATOM     35  C   UNL     1      48.295   7.232  18.582  0.00  0.00    +0.000 A 
ATOM     36  H   UNL     1      47.097  10.176  19.433  0.00  0.00    +0.000 HD
ENDBRANCH  23  26
ENDBRANCH  21  22
ENDBRANCH   4  21
TORSDOF 7
ENDMDL
MODEL 4
REMARK VINA RESULT:    -7.732      3.123      8.606
REMARK INTER + INTRA:         -12.215
REMARK INTER:                 -10.639
REMARK INTRA:                  -1.575
REMARK UNBOUND:                -1.318
REMARK  Name = 
REMARK  7 active torsions:
REMARK  status: ('A' for Active; 'I' for Inactive)
REMARK    1  A    between atoms: C_2  and  C_4
REMARK    2  A    between atoms: C_8  and  C_9
REMARK    3  A    between atoms: C_9  and  N_10
REMARK    4  A    between atoms: N_10  and  C_11
REMARK    5  A    between atoms: C_14  and  C_15
REMARK    6  A    between atoms: C_15  and  N_16
REMARK    7  A    between atoms: C_17  and  C_19
REMARK                            x       y       z     vdW  Elec       q    Type
REMARK                         _______ _______ _______ _____ _____    ______ ____
ROOT
ATOM      1  C   UNL     1      49.667   7.869  16.057  0.00  0.00    +0.000 A 
ATOM      2  C   UNL     1      48.495   8.610  15.878  0.00  0.00    +0.000 A 
ATOM      3  C   UNL     1      47.866   8.672  14.624  0.00  0.00    +0.000 A 
ATOM      4  C   UNL     1      48.402   7.994  13.522  0.00  0.00    +0.000 A 
ATOM      5  C   UNL     1      49.624   7.332  13.679  0.00  0.00    +0.000 A 
ATOM      6  C   UNL     1      50.249   7.282  14.927  0.00  0.00    +0.000 A 
ENDROOT
BRANCH   1   7
ATOM      7  N   UNL     1      50.329   7.713  17.279  0.00  0.00    +0.000 N 
ATOM      8  H   UNL     1      50.821   8.566  17.534  0.00  0.00    +0.000 HD
BRANCH   7   9
ATOM      9  C   UNL     1      49.615   7.135  18.409  0.00  0.00    +0.000 C 
BRANCH   9  14
ATOM     10  C   UNL     1      49.284   3.463  17.366  0.00  0.00    +0.000 A 
ATOM     11  C   UNL     1      47.897   3.283  17.429  0.00  0.00    +0.000 A 
ATOM     12  C   UNL     1      47.071   4.359  17.756  0.00  0.00    +0.000 A 
ATOM     13  C   UNL     1      47.629   5.608  18.037  0.00  0.00    +0.000 A 
ATOM     14  C   UNL     1      49.019   5.802  18.006  0.00  0.00    +0.000 A 
ATOM     15  C   UNL     1      49.840   4.718  17.662  0.00  0.00    +0.000 A 
BRANCH  10  17
ATOM     16  N   UNL     1      51.245   2.108  17.891  0.00  0.00    +0.000 N 
ATOM     17  C   UNL     1      50.205   2.344  17.035  0.00  0.00    +0.000 C 
ATOM     18  O   UNL     1      50.026   1.634  16.053  0.00  0.00    +0.000 OA
ATOM     19  H   UNL     1      51.800   1.283  17.704  0.00  0.00    +0.000 HD
ATOM     20  H   UNL     1      51.286   2.502  18.819  0.00  0.00    +0.000 HD
ENDBRANCH  10  17
ENDBRANCH   9  14
ENDBRANCH   7   9
ENDBRANCH   1   7
BRANCH   4  21
ATOM     21  C   UNL     1      47.699   7.979  12.191  0.00  0.00    +0.000 C 
BRANCH  21  22
ATOM     22  N   UNL     1      47.000   6.741  11.972  0.00  0.00    +0.000 N 
ATOM     23  C   UNL     1      45.629   6.694  12.002  0.00  0.00    +0.000 C 
ATOM     24  O   UNL     1      44.948   7.703  12.159  0.00  0.00    +0.000 OA
ATOM     25  H   UNL     1      47.533   5.885  12.080  0.00  0.00    +0.000 HD
BRANCH  23  26
ATOM     26  C   UNL     1      45.012   5.382  11.773  0.00  0.00    +0.000 A 
ATOM     27  C   UNL     1      44.348   4.746  12.813  0.00  0.00    +0.000 A 
ATOM     28  S   UNL     1      43.645   3.258  12.368  0.00  0.00    +0.000 S 
ATOM     29  C   UNL     1      44.252   3.384  10.784  0.00  0.00    +0.000 A 
ATOM     30  N   UNL     1      44.029   2.400   9.870  0.00  0.00    +0.000 NA
ATOM     31  C   UNL     1      44.576   2.608   8.719  0.00  0.00    +0.000 A 
ATOM     32  N   UNL     1      45.321   3.713   8.397  0.00  0.00    +0.000 N 
ATOM     33  C   UNL     1      45.549   4.742   9.278  0.00  0.00    +0.000 A 
ATOM     34  O   UNL     1      46.191   5.734   8.945  0.00  0.00    +0.000 OA
ATOM     35  C   UNL     1      44.966   4.553  10.592  0.00  0.00    +0.000 A 
ATOM     36  H   UNL     1      45.720   3.818   7.475  0.00  0.00    +0.000 HD
ENDBRANCH  23  26
ENDBRANCH  21  22
ENDBRANCH   4  21
TORSDOF 7
ENDMDL
MODEL 5
REMARK VINA RESULT:    -7.463      2.214      3.213
REMARK INTER + INTRA:         -11.835
REMARK INTER:                 -10.453
REMARK INTRA:                  -1.382
REMARK UNBOUND:                -1.318
REMARK  Name = 
REMARK  7 active torsions:
REMARK  status: ('A' for Active; 'I' for Inactive)
REMARK    1  A    between atoms: C_2  and  C_4
REMARK    2  A    between atoms: C_8  and  C_9
REMARK    3  A    between atoms: C_9  and  N_10
REMARK    4  A    between atoms: N_10  and  C_11
REMARK    5  A    between atoms: C_14  and  C_15
REMARK    6  A    between atoms: C_15  and  N_16
REMARK    7  A    between atoms: C_17  and  C_19
REMARK                            x       y       z     vdW  Elec       q    Type
REMARK                         _______ _______ _______ _____ _____    ______ ____
ROOT
ATOM      1  C   UNL     1      45.114   7.774  11.642  0.00  0.00    +0.000 A 
ATOM      2  C   UNL     1      45.371   8.687  12.669  0.00  0.00    +0.000 A 
ATOM      3  C   UNL     1      46.617   8.713  13.316  0.00  0.00    +0.000 A 
ATOM      4  C   UNL     1      47.630   7.818  12.949  0.00  0.00    +0.000 A 
ATOM      5  C   UNL     1      47.341   6.844  11.989  0.00  0.00    +0.000 A 
ATOM      6  C   UNL     1      46.096   6.818  11.356  0.00  0.00    +0.000 A 
ENDROOT
BRANCH   1   7
ATOM      7  N   UNL     1      43.922   7.713  10.913  0.00  0.00    +0.000 N 
ATOM      8  H   UNL     1      44.108   7.493   9.937  0.00  0.00    +0.000 HD
BRANCH   7   9
ATOM      9  C   UNL     1      42.800   6.950  11.441  0.00  0.00    +0.000 C 
BRANCH   9  14
ATOM     10  C   UNL     1      43.984   3.473  10.351  0.00  0.00    +0.000 A 
ATOM     11  C   UNL     1      43.971   2.783  11.569  0.00  0.00    +0.000 A 
ATOM     12  C   UNL     1      43.531   3.426  12.727  0.00  0.00    +0.000 A 
ATOM     13  C   UNL     1      43.122   4.760  12.673  0.00  0.00    +0.000 A 
ATOM     14  C   UNL     1      43.153   5.478  11.466  0.00  0.00    +0.000 A 
ATOM     15  C   UNL     1      43.583   4.818  10.305  0.00  0.00    +0.000 A 
BRANCH  10  17
ATOM     16  N   UNL     1      44.478   3.604   7.964  0.00  0.00    +0.000 N 
ATOM     17  C   UNL     1      44.456   2.834   9.095  0.00  0.00    +0.000 C 
ATOM     18  O   UNL     1      44.845   1.673   9.072  0.00  0.00    +0.000 OA
ATOM     19  H   UNL     1      44.895   3.183   7.144  0.00  0.00    +0.000 HD
ATOM     20  H   UNL     1      44.400   4.610   7.989  0.00  0.00    +0.000 HD
ENDBRANCH  10  17
ENDBRANCH   9  14
ENDBRANCH   7   9
ENDBRANCH   1   7
BRANCH   4  21
ATOM     21  C   UNL     1      48.999   7.884  13.572  0.00  0.00    +0.000 C 
BRANCH  21  22
ATOM     22  N   UNL     1      49.135   6.949  14.657  0.00  0.00    +0.000 N 
ATOM     23  C   UNL     1      48.987   7.358  15.959  0.00  0.00    +0.000 C 
ATOM     24  O   UNL     1      48.682   8.512  16.246  0.00  0.00    +0.000 OA
ATOM     25  H   UNL     1      49.610   6.075  14.458  0.00  0.00    +0.000 HD
BRANCH  23  26
ATOM     26  C   UNL     1      49.150   6.330  16.993  0.00  0.00    +0.000 A 
ATOM     27  C   UNL     1      50.027   6.551  18.047  0.00  0.00    +0.000 A 
ATOM     28  S   UNL     1      50.061   5.283  19.186  0.00  0.00    +0.000 S 
ATOM     29  C   UNL     1      48.947   4.368  18.281  0.00  0.00    +0.000 A 
ATOM     30  N   UNL     1      48.557   3.132  18.697  0.00  0.00    +0.000 NA
ATOM     31  C   UNL     1      47.736   2.536  17.898  0.00  0.00    +0.000 A 
ATOM     32  N   UNL     1      47.265   3.066  16.724  0.00  0.00    +0.000 N 
ATOM     33  C   UNL     1      47.610   4.319  16.280  0.00  0.00    +0.000 A 
ATOM     34  O   UNL     1      47.143   4.777  15.241  0.00  0.00    +0.000 OA
ATOM     35  C   UNL     1      48.542   5.029  17.135  0.00  0.00    +0.000 A 
ATOM     36  H   UNL     1      46.621   2.548  16.145  0.00  0.00    +0.000 HD
ENDBRANCH  23  26
ENDBRANCH  21  22
ENDBRANCH   4  21
TORSDOF 7
ENDMDL
MODEL 6
REMARK VINA RESULT:    -7.453      3.727      5.340
REMARK INTER + INTRA:         -11.821
REMARK INTER:                 -10.611
REMARK INTRA:                  -1.210
REMARK UNBOUND:                -1.318
REMARK  Name = 
REMARK  7 active torsions:
REMARK  status: ('A' for Active; 'I' for Inactive)
REMARK    1  A    between atoms: C_2  and  C_4
REMARK    2  A    between atoms: C_8  and  C_9
REMARK    3  A    between atoms: C_9  and  N_10
REMARK    4  A    between atoms: N_10  and  C_11
REMARK    5  A    between atoms: C_14  and  C_15
REMARK    6  A    between atoms: C_15  and  N_16
REMARK    7  A    between atoms: C_17  and  C_19
REMARK                            x       y       z     vdW  Elec       q    Type
REMARK                         _______ _______ _______ _____ _____    ______ ____
ROOT
ATOM      1  C   UNL     1      44.858   4.251  12.321  0.00  0.00    +0.000 A 
ATOM      2  C   UNL     1      43.931   5.297  12.363  0.00  0.00    +0.000 A 
ATOM      3  C   UNL     1      44.337   6.609  12.653  0.00  0.00    +0.000 A 
ATOM      4  C   UNL     1      45.683   6.899  12.910  0.00  0.00    +0.000 A 
ATOM      5  C   UNL     1      46.593   5.840  12.961  0.00  0.00    +0.000 A 
ATOM      6  C   UNL     1      46.180   4.535  12.681  0.00  0.00    +0.000 A 
ENDROOT
BRANCH   1   7
ATOM      7  N   UNL     1      44.548   2.928  11.992  0.00  0.00    +0.000 N 
ATOM      8  H   UNL     1      44.090   2.461  12.772  0.00  0.00    +0.000 HD
BRANCH   7   9
ATOM      9  C   UNL     1      43.895   2.642  10.723  0.00  0.00    +0.000 C 
BRANCH   9  14
ATOM     10  C   UNL     1      46.398   2.171   7.860  0.00  0.00    +0.000 A 
ATOM     11  C   UNL     1      46.483   3.472   7.352  0.00  0.00    +0.000 A 
ATOM     12  C   UNL     1      45.775   4.505   7.966  0.00  0.00    +0.000 A 
ATOM     13  C   UNL     1      44.968   4.238   9.074  0.00  0.00    +0.000 A 
ATOM     14  C   UNL     1      44.848   2.934   9.583  0.00  0.00    +0.000 A 
ATOM     15  C   UNL     1      45.576   1.904   8.968  0.00  0.00    +0.000 A 
BRANCH  10  17
ATOM     16  N   UNL     1      46.767  -0.230   7.612  0.00  0.00    +0.000 N 
ATOM     17  C   UNL     1      47.123   1.035   7.232  0.00  0.00    +0.000 C 
ATOM     18  O   UNL     1      47.985   1.216   6.381  0.00  0.00    +0.000 OA
ATOM     19  H   UNL     1      47.200  -0.989   7.102  0.00  0.00    +0.000 HD
ATOM     20  H   UNL     1      45.915  -0.427   8.115  0.00  0.00    +0.000 HD
ENDBRANCH  10  17
ENDBRANCH   9  14
ENDBRANCH   7   9
ENDBRANCH   1   7
BRANCH   4  21
ATOM     21  C   UNL     1      46.151   8.311  13.141  0.00  0.00    +0.000 C 
BRANCH  21  22
ATOM     22  N   UNL     1      47.406   8.569  12.485  0.00  0.00    +0.000 N 
ATOM     23  C   UNL     1      48.538   8.837  13.213  0.00  0.00    +0.000 C 
ATOM     24  O   UNL     1      48.540   8.813  14.441  0.00  0.00    +0.000 OA
ATOM     25  H   UNL     1      47.370   8.824  11.504  0.00  0.00    +0.000 HD
BRANCH  23  26
ATOM     26  C   UNL     1      49.765   9.092  12.450  0.00  0.00    +0.000 A 
ATOM     27  C   UNL     1      50.912   8.362  12.733  0.00  0.00    +0.000 A 
ATOM     28  S   UNL     1      52.232   8.743  11.723  0.00  0.00    +0.000 S 
ATOM     29  C   UNL     1      51.334   9.937  10.910  0.00  0.00    +0.000 A 
ATOM     30  N   UNL     1      51.897  10.681   9.919  0.00  0.00    +0.000 NA
ATOM     31  C   UNL     1      51.114  11.574   9.413  0.00  0.00    +0.000 A 
ATOM     32  N   UNL     1      49.817  11.787   9.803  0.00  0.00    +0.000 N 
ATOM     33  C   UNL     1      49.199  11.043  10.778  0.00  0.00    +0.000 A 
ATOM     34  O   UNL     1      48.024  11.236  11.078  0.00  0.00    +0.000 OA
ATOM     35  C   UNL     1      50.040  10.032  11.390  0.00  0.00    +0.000 A 
ATOM     36  H   UNL     1      49.254  12.501   9.363  0.00  0.00    +0.000 HD
ENDBRANCH  23  26
ENDBRANCH  21  22
ENDBRANCH   4  21
TORSDOF 7
ENDMDL
MODEL 7
REMARK VINA RESULT:    -7.452      3.445      4.767
REMARK INTER + INTRA:         -11.819
REMARK INTER:                 -10.709
REMARK INTRA:                  -1.110
REMARK UNBOUND:                -1.318
REMARK  Name = 
REMARK  7 active torsions:
REMARK  status: ('A' for Active; 'I' for Inactive)
REMARK    1  A    between atoms: C_2  and  C_4
REMARK    2  A    between atoms: C_8  and  C_9
REMARK    3  A    between atoms: C_9  and  N_10
REMARK    4  A    between atoms: N_10  and  C_11
REMARK    5  A    between atoms: C_14  and  C_15
REMARK    6  A    between atoms: C_15  and  N_16
REMARK    7  A    between atoms: C_17  and  C_19
REMARK                            x       y       z     vdW  Elec       q    Type
REMARK                         _______ _______ _______ _____ _____    ______ ____
ROOT
ATOM      1  C   UNL     1      47.589   5.911  13.736  0.00  0.00    +0.000 A 
ATOM      2  C   UNL     1      48.129   6.369  14.942  0.00  0.00    +0.000 A 
ATOM      3  C   UNL     1      48.168   5.541  16.075  0.00  0.00    +0.000 A 
ATOM      4  C   UNL     1      47.663   4.236  16.022  0.00  0.00    +0.000 A 
ATOM      5  C   UNL     1      47.038   3.811  14.846  0.00  0.00    +0.000 A 
ATOM      6  C   UNL     1      46.994   4.645  13.725  0.00  0.00    +0.000 A 
ENDROOT
BRANCH   1   7
ATOM      7  N   UNL     1      47.555   6.650  12.549  0.00  0.00    +0.000 N 
ATOM      8  H   UNL     1      47.918   6.101  11.773  0.00  0.00    +0.000 HD
BRANCH   7   9
ATOM      9  C   UNL     1      46.341   7.369  12.190  0.00  0.00    +0.000 C 
BRANCH   9  14
ATOM     10  C   UNL     1      44.817   4.837   9.751  0.00  0.00    +0.000 A 
ATOM     11  C   UNL     1      43.612   4.527  10.392  0.00  0.00    +0.000 A 
ATOM     12  C   UNL     1      43.272   5.174  11.580  0.00  0.00    +0.000 A 
ATOM     13  C   UNL     1      44.140   6.115  12.138  0.00  0.00    +0.000 A 
ATOM     14  C   UNL     1      45.366   6.420  11.524  0.00  0.00    +0.000 A 
ATOM     15  C   UNL     1      45.693   5.775  10.321  0.00  0.00    +0.000 A 
BRANCH  10  17
ATOM     16  N   UNL     1      44.395   3.207   7.983  0.00  0.00    +0.000 N 
ATOM     17  C   UNL     1      45.229   4.165   8.490  0.00  0.00    +0.000 C 
ATOM     18  O   UNL     1      46.259   4.476   7.904  0.00  0.00    +0.000 OA
ATOM     19  H   UNL     1      44.642   2.833   7.075  0.00  0.00    +0.000 HD
ATOM     20  H   UNL     1      43.442   3.096   8.294  0.00  0.00    +0.000 HD
ENDBRANCH  10  17
ENDBRANCH   9  14
ENDBRANCH   7   9
ENDBRANCH   1   7
BRANCH   4  21
ATOM     21  C   UNL     1      47.771   3.304  17.200  0.00  0.00    +0.000 C 
BRANCH  21  22
ATOM     22  N   UNL     1      49.139   3.112  17.603  0.00  0.00    +0.000 N 
ATOM     23  C   UNL     1      49.955   2.241  16.925  0.00  0.00    +0.000 C 
ATOM     24  O   UNL     1      49.574   1.639  15.925  0.00  0.00    +0.000 OA
ATOM     25  H   UNL     1      49.390   3.407  18.540  0.00  0.00    +0.000 HD
BRANCH  23  26
ATOM     26  C   UNL     1      51.331   2.112  17.417  0.00  0.00    +0.000 A 
ATOM     27  C   UNL     1      51.869   0.849  17.625  0.00  0.00    +0.000 A 
ATOM     28  S   UNL     1      53.491   0.874  18.148  0.00  0.00    +0.000 S 
ATOM     29  C   UNL     1      53.514   2.575  18.171  0.00  0.00    +0.000 A 
ATOM     30  N   UNL     1      54.627   3.253  18.563  0.00  0.00    +0.000 NA
ATOM     31  C   UNL     1      54.495   4.537  18.566  0.00  0.00    +0.000 A 
ATOM     32  N   UNL     1      53.353   5.206  18.206  0.00  0.00    +0.000 N 
ATOM     33  C   UNL     1      52.216   4.564  17.778  0.00  0.00    +0.000 A 
ATOM     34  O   UNL     1      51.222   5.194  17.429  0.00  0.00    +0.000 OA
ATOM     35  C   UNL     1      52.307   3.116  17.767  0.00  0.00    +0.000 A 
ATOM     36  H   UNL     1      53.315   6.214  18.226  0.00  0.00    +0.000 HD
ENDBRANCH  23  26
ENDBRANCH  21  22
ENDBRANCH   4  21
TORSDOF 7
ENDMDL
MODEL 8
REMARK VINA RESULT:    -7.340      3.575      7.998
REMARK INTER + INTRA:         -11.661
REMARK INTER:                  -9.957
REMARK INTRA:                  -1.704
REMARK UNBOUND:                -1.318
REMARK  Name = 
REMARK  7 active torsions:
REMARK  status: ('A' for Active; 'I' for Inactive)
REMARK    1  A    between atoms: C_2  and  C_4
REMARK    2  A    between atoms: C_8  and  C_9
REMARK    3  A    between atoms: C_9  and  N_10
REMARK    4  A    between atoms: N_10  and  C_11
REMARK    5  A    between atoms: C_14  and  C_15
REMARK    6  A    between atoms: C_15  and  N_16
REMARK    7  A    between atoms: C_17  and  C_19
REMARK                            x       y       z     vdW  Elec       q    Type
REMARK                         _______ _______ _______ _____ _____    ______ ____
ROOT
ATOM      1  C   UNL     1      49.536   7.802  18.257  0.00  0.00    +0.000 A 
ATOM      2  C   UNL     1      48.448   8.680  18.249  0.00  0.00    +0.000 A 
ATOM      3  C   UNL     1      48.005   9.269  17.054  0.00  0.00    +0.000 A 
ATOM      4  C   UNL     1      48.648   8.992  15.841  0.00  0.00    +0.000 A 
ATOM      5  C   UNL     1      49.793   8.190  15.863  0.00  0.00    +0.000 A 
ATOM      6  C   UNL     1      50.233   7.615  17.058  0.00  0.00    +0.000 A 
ENDROOT
BRANCH   1   7
ATOM      7  N   UNL     1      50.010   7.135  19.391  0.00  0.00    +0.000 N 
ATOM      8  H   UNL     1      50.349   7.798  20.084  0.00  0.00    +0.000 HD
BRANCH   7   9
ATOM      9  C   UNL     1      49.201   6.083  19.991  0.00  0.00    +0.000 C 
BRANCH   9  14
ATOM     10  C   UNL     1      49.189   3.163  17.510  0.00  0.00    +0.000 A 
ATOM     11  C   UNL     1      47.866   3.194  17.055  0.00  0.00    +0.000 A 
ATOM     12  C   UNL     1      46.998   4.187  17.509  0.00  0.00    +0.000 A 
ATOM     13  C   UNL     1      47.444   5.137  18.430  0.00  0.00    +0.000 A 
ATOM     14  C   UNL     1      48.760   5.107  18.920  0.00  0.00    +0.000 A 
ATOM     15  C   UNL     1      49.629   4.114  18.445  0.00  0.00    +0.000 A 
BRANCH  10  17
ATOM     16  N   UNL     1      51.109   1.722  17.952  0.00  0.00    +0.000 N 
ATOM     17  C   UNL     1      50.147   2.117  17.064  0.00  0.00    +0.000 C 
ATOM     18  O   UNL     1      50.063   1.600  15.957  0.00  0.00    +0.000 OA
ATOM     19  H   UNL     1      51.687   0.941  17.668  0.00  0.00    +0.000 HD
ATOM     20  H   UNL     1      51.064   1.940  18.936  0.00  0.00    +0.000 HD
ENDBRANCH  10  17
ENDBRANCH   9  14
ENDBRANCH   7   9
ENDBRANCH   1   7
BRANCH   4  21
ATOM     21  C   UNL     1      48.138   9.547  14.538  0.00  0.00    +0.000 C 
BRANCH  21  22
ATOM     22  N   UNL     1      47.063   8.752  14.005  0.00  0.00    +0.000 N 
ATOM     23  C   UNL     1      47.298   7.813  13.032  0.00  0.00    +0.000 C 
ATOM     24  O   UNL     1      48.430   7.576  12.619  0.00  0.00    +0.000 OA
ATOM     25  H   UNL     1      46.119   9.093  14.155  0.00  0.00    +0.000 HD
BRANCH  23  26
ATOM     26  C   UNL     1      46.134   7.060  12.552  0.00  0.00    +0.000 A 
ATOM     27  C   UNL     1      45.098   7.732  11.917  0.00  0.00    +0.000 A 
ATOM     28  S   UNL     1      43.848   6.706  11.375  0.00  0.00    +0.000 S 
ATOM     29  C   UNL     1      44.621   5.335  12.021  0.00  0.00    +0.000 A 
ATOM     30  N   UNL     1      44.053   4.102  11.924  0.00  0.00    +0.000 NA
ATOM     31  C   UNL     1      44.729   3.157  12.487  0.00  0.00    +0.000 A 
ATOM     32  N   UNL     1      45.926   3.332  13.133  0.00  0.00    +0.000 N 
ATOM     33  C   UNL     1      46.549   4.552  13.232  0.00  0.00    +0.000 A 
ATOM     34  O   UNL     1      47.638   4.668  13.787  0.00  0.00    +0.000 OA
ATOM     35  C   UNL     1      45.824   5.652  12.625  0.00  0.00    +0.000 A 
ATOM     36  H   UNL     1      46.408   2.550  13.551  0.00  0.00    +0.000 HD
ENDBRANCH  23  26
ENDBRANCH  21  22
ENDBRANCH   4  21
TORSDOF 7
ENDMDL
MODEL 9
REMARK VINA RESULT:    -7.196      2.116      2.844
REMARK INTER + INTRA:         -11.458
REMARK INTER:                  -9.985
REMARK INTRA:                  -1.473
REMARK UNBOUND:                -1.318
REMARK  Name = 
REMARK  7 active torsions:
REMARK  status: ('A' for Active; 'I' for Inactive)
REMARK    1  A    between atoms: C_2  and  C_4
REMARK    2  A    between atoms: C_8  and  C_9
REMARK    3  A    between atoms: C_9  and  N_10
REMARK    4  A    between atoms: N_10  and  C_11
REMARK    5  A    between atoms: C_14  and  C_15
REMARK    6  A    between atoms: C_15  and  N_16
REMARK    7  A    between atoms: C_17  and  C_19
REMARK                            x       y       z     vdW  Elec       q    Type
REMARK                         _______ _______ _______ _____ _____    ______ ____
ROOT
ATOM      1  C   UNL     1      45.083   6.384  12.805  0.00  0.00    +0.000 A 
ATOM      2  C   UNL     1      46.136   5.491  13.026  0.00  0.00    +0.000 A 
ATOM      3  C   UNL     1      47.471   5.908  12.911  0.00  0.00    +0.000 A 
ATOM      4  C   UNL     1      47.779   7.230  12.568  0.00  0.00    +0.000 A 
ATOM      5  C   UNL     1      46.729   8.097  12.255  0.00  0.00    +0.000 A 
ATOM      6  C   UNL     1      45.402   7.673  12.362  0.00  0.00    +0.000 A 
ENDROOT
BRANCH   1   7
ATOM      7  N   UNL     1      43.729   6.066  12.946  0.00  0.00    +0.000 N 
ATOM      8  H   UNL     1      43.272   6.712  13.587  0.00  0.00    +0.000 HD
BRANCH   7   9
ATOM      9  C   UNL     1      42.926   5.818  11.757  0.00  0.00    +0.000 C 
BRANCH   9  14
ATOM     10  C   UNL     1      44.901   3.747   9.210  0.00  0.00    +0.000 A 
ATOM     11  C   UNL     1      44.693   2.448   9.691  0.00  0.00    +0.000 A 
ATOM     12  C   UNL     1      43.875   2.242  10.802  0.00  0.00    +0.000 A 
ATOM     13  C   UNL     1      43.280   3.330  11.444  0.00  0.00    +0.000 A 
ATOM     14  C   UNL     1      43.498   4.642  10.993  0.00  0.00    +0.000 A 
ATOM     15  C   UNL     1      44.310   4.838   9.866  0.00  0.00    +0.000 A 
BRANCH  10  17
ATOM     16  N   UNL     1      45.734   3.128   7.001  0.00  0.00    +0.000 N 
ATOM     17  C   UNL     1      45.775   4.018   8.038  0.00  0.00    +0.000 C 
ATOM     18  O   UNL     1      46.482   5.016   7.982  0.00  0.00    +0.000 OA
ATOM     19  H   UNL     1      46.258   3.381   6.173  0.00  0.00    +0.000 HD
ATOM     20  H   UNL     1      45.002   2.440   6.902  0.00  0.00    +0.000 HD
ENDBRANCH  10  17
ENDBRANCH   9  14
ENDBRANCH   7   9
ENDBRANCH   1   7
BRANCH   4  21
ATOM     21  C   UNL     1      49.203   7.718  12.522  0.00  0.00    +0.000 C 
BRANCH  21  22
ATOM     22  N   UNL     1      49.981   7.194  13.613  0.00  0.00    +0.000 N 
ATOM     23  C   UNL     1      50.331   7.991  14.673  0.00  0.00    +0.000 C 
ATOM     24  O   UNL     1      49.952   9.156  14.762  0.00  0.00    +0.000 OA
ATOM     25  H   UNL     1      50.490   6.332  13.444  0.00  0.00    +0.000 HD
BRANCH  23  26
ATOM     26  C   UNL     1      51.130   7.363  15.731  0.00  0.00    +0.000 A 
ATOM     27  C   UNL     1      52.425   7.806  15.966  0.00  0.00    +0.000 A 
ATOM     28  S   UNL     1      53.196   7.009  17.261  0.00  0.00    +0.000 S 
ATOM     29  C   UNL     1      51.848   6.004  17.516  0.00  0.00    +0.000 A 
ATOM     30  N   UNL     1      51.862   5.048  18.485  0.00  0.00    +0.000 NA
ATOM     31  C   UNL     1      50.787   4.335  18.546  0.00  0.00    +0.000 A 
ATOM     32  N   UNL     1      49.697   4.494  17.730  0.00  0.00    +0.000 N 
ATOM     33  C   UNL     1      49.628   5.461  16.757  0.00  0.00    +0.000 A 
ATOM     34  O   UNL     1      48.623   5.599  16.066  0.00  0.00    +0.000 OA
ATOM     35  C   UNL     1      50.816   6.285  16.638  0.00  0.00    +0.000 A 
ATOM     36  H   UNL     1      48.884   3.904  17.831  0.00  0.00    +0.000 HD
ENDBRANCH  23  26
ENDBRANCH  21  22
ENDBRANCH   4  21
TORSDOF 7
ENDMDL
