MODEL 1
REMARK VINA RESULT:    -7.031      0.000      0.000
REMARK INTER + INTRA:         -10.469
REMARK INTER:                  -9.497
REMARK INTRA:                  -0.972
REMARK UNBOUND:                -0.972
REMARK  Name = 
REMARK  8 active torsions:
REMARK  status: ('A' for Active; 'I' for Inactive)
REMARK    1  A    between atoms: C_1  and  O_2
REMARK    2  A    between atoms: O_2  and  C_3
REMARK    3  A    between atoms: C_6  and  O_7
REMARK    4  A    between atoms: O_7  and  C_8
REMARK    5  A    between atoms: C_9  and  N_10
REMARK    6  A    between atoms: N_10  and  C_11
REMARK    7  A    between atoms: C_11  and  C_12
REMARK    8  A    between atoms: C_16  and  N_17
REMARK                            x       y       z     vdW  Elec       q    Type
REMARK                         _______ _______ _______ _____ _____    ______ ____
ROOT
ATOM      1  C   UNL     1      45.342   6.113  11.964  0.00  0.00    +0.000 C 
ATOM      2  C   UNL     1      46.254   5.042  12.549  0.00  0.00    +0.000 C 
ATOM      3  C   UNL     1      45.015   5.411  13.282  0.00  0.00    +0.000 C 
ENDROOT
BRANCH   1   4
ATOM      4  C   UNL     1      45.713   7.581  12.152  0.00  0.00    +0.000 A 
ATOM      5  C   UNL     1      47.044   7.970  12.378  0.00  0.00    +0.000 A 
ATOM      6  C   UNL     1      47.446   9.286  12.162  0.00  0.00    +0.000 A 
ATOM      7  C   UNL     1      46.522  10.222  11.698  0.00  0.00    +0.000 A 
ATOM      8  C   UNL     1      45.172   9.890  11.537  0.00  0.00    +0.000 A 
ATOM      9  C   UNL     1      44.780   8.588  11.859  0.00  0.00    +0.000 A 
BRANCH   8  10
ATOM     10  N   UNL     1      44.258  10.753  10.977  0.00  0.00    +0.000 N 
ATOM     11  C   UNL     1      42.884  10.847  11.471  0.00  0.00    +0.000 C 
ATOM     12  C   UNL     1      41.888  10.481  10.354  0.00  0.00    +0.000 C 
ATOM     13  N   UNL     1      42.097  11.251   9.106  0.00  0.00    +0.000 NA
ATOM     14  C   UNL     1      43.501  11.065   8.661  0.00  0.00    +0.000 C 
ATOM     15  C   UNL     1      44.552  11.456   9.727  0.00  0.00    +0.000 C 
ATOM     16  H   UNL     1      41.977  12.240   9.330  0.00  0.00    +0.000 HD
ENDBRANCH   8  10
ENDBRANCH   1   4
BRANCH   1  17
ATOM     17  N   UNL     1      44.492   5.802  10.814  0.00  0.00    +0.000 N 
ATOM     18  H   UNL     1      43.920   6.541  10.410  0.00  0.00    +0.000 HD
BRANCH  17  23
ATOM     19  C   UNL     1      45.895   3.794   7.974  0.00  0.00    +0.000 A 
ATOM     20  C   UNL     1      45.263   2.573   8.200  0.00  0.00    +0.000 A 
ATOM     21  C   UNL     1      44.362   2.432   9.262  0.00  0.00    +0.000 A 
ATOM     22  C   UNL     1      44.080   3.514  10.101  0.00  0.00    +0.000 A 
ATOM     23  C   UNL     1      44.712   4.760   9.881  0.00  0.00    +0.000 A 
ATOM     24  C   UNL     1      45.617   4.876   8.817  0.00  0.00    +0.000 A 
BRANCH  19  26
ATOM     25  C   UNL     1      47.002   3.034   6.012  0.00  0.00    +0.000 C 
ATOM     26  O   UNL     1      46.797   4.056   6.978  0.00  0.00    +0.000 OA
ENDBRANCH  19  26
BRANCH  22  27
ATOM     27  O   UNL     1      43.200   3.479  11.160  0.00  0.00    +0.000 OA
ATOM     28  C   UNL     1      43.407   2.476  12.147  0.00  0.00    +0.000 C 
ENDBRANCH  22  27
ENDBRANCH  17  23
ENDBRANCH   1  17
TORSDOF 6
ENDMDL
MODEL 2
REMARK VINA RESULT:    -7.021      2.214      4.123
REMARK INTER + INTRA:         -10.456
REMARK INTER:                  -9.547
REMARK INTRA:                  -0.908
REMARK UNBOUND:                -0.972
REMARK  Name = 
REMARK  8 active torsions:
REMARK  status: ('A' for Active; 'I' for Inactive)
REMARK    1  A    between atoms: C_1  and  O_2
REMARK    2  A    between atoms: O_2  and  C_3
REMARK    3  A    between atoms: C_6  and  O_7
REMARK    4  A    between atoms: O_7  and  C_8
REMARK    5  A    between atoms: C_9  and  N_10
REMARK    6  A    between atoms: N_10  and  C_11
REMARK    7  A    between atoms: C_11  and  C_12
REMARK    8  A    between atoms: C_16  and  N_17
REMARK                            x       y       z     vdW  Elec       q    Type
REMARK                         _______ _______ _______ _____ _____    ______ ____
ROOT
ATOM      1  C   UNL     1      45.096   6.030  11.656  0.00  0.00    +0.000 C 
ATOM      2  C   UNL     1      45.747   5.053  12.626  0.00  0.00    +0.000 C 
ATOM      3  C   UNL     1      44.480   5.722  13.021  0.00  0.00    +0.000 C 
ENDROOT
BRANCH   1   4
ATOM      4  C   UNL     1      45.644   7.450  11.562  0.00  0.00    +0.000 A 
ATOM      5  C   UNL     1      44.783   8.555  11.446  0.00  0.00    +0.000 A 
ATOM      6  C   UNL     1      45.228   9.838  11.749  0.00  0.00    +0.000 A 
ATOM      7  C   UNL     1      46.537  10.028  12.193  0.00  0.00    +0.000 A 
ATOM      8  C   UNL     1      47.445   8.965  12.246  0.00  0.00    +0.000 A 
ATOM      9  C   UNL     1      46.996   7.706  11.838  0.00  0.00    +0.000 A 
BRANCH   8  10
ATOM     10  N   UNL     1      48.706   9.092  12.782  0.00  0.00    +0.000 N 
ATOM     11  C   UNL     1      49.872   9.383  11.948  0.00  0.00    +0.000 C 
ATOM     12  C   UNL     1      50.907   8.247  12.063  0.00  0.00    +0.000 C 
ATOM     13  N   UNL     1      51.274   7.926  13.461  0.00  0.00    +0.000 NA
ATOM     14  C   UNL     1      50.037   7.609  14.217  0.00  0.00    +0.000 C 
ATOM     15  C   UNL     1      48.973   8.731  14.176  0.00  0.00    +0.000 C 
ATOM     16  H   UNL     1      51.676   8.769  13.875  0.00  0.00    +0.000 HD
ENDBRANCH   8  10
ENDBRANCH   1   4
BRANCH   1  17
ATOM     17  N   UNL     1      44.388   5.529  10.477  0.00  0.00    +0.000 N 
ATOM     18  H   UNL     1      43.802   6.169   9.945  0.00  0.00    +0.000 HD
BRANCH  17  23
ATOM     19  C   UNL     1      46.241   3.356   8.046  0.00  0.00    +0.000 A 
ATOM     20  C   UNL     1      45.650   2.123   8.317  0.00  0.00    +0.000 A 
ATOM     21  C   UNL     1      44.630   2.026   9.271  0.00  0.00    +0.000 A 
ATOM     22  C   UNL     1      44.189   3.162   9.956  0.00  0.00    +0.000 A 
ATOM     23  C   UNL     1      44.778   4.420   9.688  0.00  0.00    +0.000 A 
ATOM     24  C   UNL     1      45.803   4.492   8.735  0.00  0.00    +0.000 A 
BRANCH  19  26
ATOM     25  C   UNL     1      47.864   2.433   6.573  0.00  0.00    +0.000 C 
ATOM     26  O   UNL     1      47.247   3.580   7.145  0.00  0.00    +0.000 OA
ENDBRANCH  19  26
BRANCH  22  27
ATOM     27  O   UNL     1      43.185   3.171  10.899  0.00  0.00    +0.000 OA
ATOM     28  C   UNL     1      43.374   2.372  12.060  0.00  0.00    +0.000 C 
ENDBRANCH  22  27
ENDBRANCH  17  23
ENDBRANCH   1  17
TORSDOF 6
ENDMDL
MODEL 3
REMARK VINA RESULT:    -6.420      3.285      6.936
REMARK INTER + INTRA:          -9.644
REMARK INTER:                  -8.420
REMARK INTRA:                  -1.223
REMARK UNBOUND:                -0.972
REMARK  Name = 
REMARK  8 active torsions:
REMARK  status: ('A' for Active; 'I' for Inactive)
REMARK    1  A    between atoms: C_1  and  O_2
REMARK    2  A    between atoms: O_2  and  C_3
REMARK    3  A    between atoms: C_6  and  O_7
REMARK    4  A    between atoms: O_7  and  C_8
REMARK    5  A    between atoms: C_9  and  N_10
REMARK    6  A    between atoms: N_10  and  C_11
REMARK    7  A    between atoms: C_11  and  C_12
REMARK    8  A    between atoms: C_16  and  N_17
REMARK                            x       y       z     vdW  Elec       q    Type
REMARK                         _______ _______ _______ _____ _____    ______ ____
ROOT
ATOM      1  C   UNL     1      46.692   4.651  13.584  0.00  0.00    +0.000 C 
ATOM      2  C   UNL     1      46.742   4.587  15.105  0.00  0.00    +0.000 C 
ATOM      3  C   UNL     1      47.264   3.439  14.318  0.00  0.00    +0.000 C 
ENDROOT
BRANCH   1   4
ATOM      4  C   UNL     1      45.376   4.347  12.876  0.00  0.00    +0.000 A 
ATOM      5  C   UNL     1      44.175   4.952  13.283  0.00  0.00    +0.000 A 
ATOM      6  C   UNL     1      43.075   4.994  12.431  0.00  0.00    +0.000 A 
ATOM      7  C   UNL     1      43.173   4.447  11.151  0.00  0.00    +0.000 A 
ATOM      8  C   UNL     1      44.325   3.768  10.740  0.00  0.00    +0.000 A 
ATOM      9  C   UNL     1      45.375   3.655  11.654  0.00  0.00    +0.000 A 
BRANCH   8  10
ATOM     10  N   UNL     1      44.498   3.315   9.451  0.00  0.00    +0.000 N 
ATOM     11  C   UNL     1      44.575   1.888   9.140  0.00  0.00    +0.000 C 
ATOM     12  C   UNL     1      45.933   1.555   8.492  0.00  0.00    +0.000 C 
ATOM     13  N   UNL     1      46.251   2.409   7.324  0.00  0.00    +0.000 NA
ATOM     14  C   UNL     1      46.186   3.831   7.744  0.00  0.00    +0.000 C 
ATOM     15  C   UNL     1      44.830   4.240   8.365  0.00  0.00    +0.000 C 
ATOM     16  H   UNL     1      45.520   2.263   6.628  0.00  0.00    +0.000 HD
ENDBRANCH   8  10
ENDBRANCH   1   4
BRANCH   1  17
ATOM     17  N   UNL     1      47.639   5.496  12.856  0.00  0.00    +0.000 N 
ATOM     18  H   UNL     1      48.092   5.125  12.023  0.00  0.00    +0.000 HD
BRANCH  17  23
ATOM     19  C   UNL     1      46.695   9.071  12.226  0.00  0.00    +0.000 A 
ATOM     20  C   UNL     1      47.595   9.717  13.071  0.00  0.00    +0.000 A 
ATOM     21  C   UNL     1      48.521   8.974  13.814  0.00  0.00    +0.000 A 
ATOM     22  C   UNL     1      48.558   7.580  13.709  0.00  0.00    +0.000 A 
ATOM     23  C   UNL     1      47.651   6.913  12.853  0.00  0.00    +0.000 A 
ATOM     24  C   UNL     1      46.728   7.676  12.126  0.00  0.00    +0.000 A 
BRANCH  19  26
ATOM     25  C   UNL     1      44.570  10.135  12.126  0.00  0.00    +0.000 C 
ATOM     26  O   UNL     1      45.740   9.682  11.457  0.00  0.00    +0.000 OA
ENDBRANCH  19  26
BRANCH  22  27
ATOM     27  O   UNL     1      49.438   6.765  14.385  0.00  0.00    +0.000 OA
ATOM     28  C   UNL     1      49.654   7.038  15.764  0.00  0.00    +0.000 C 
ENDBRANCH  22  27
ENDBRANCH  17  23
ENDBRANCH   1  17
TORSDOF 6
ENDMDL
MODEL 4
REMARK VINA RESULT:    -6.141      3.165      7.072
REMARK INTER + INTRA:          -9.266
REMARK INTER:                  -8.224
REMARK INTRA:                  -1.042
REMARK UNBOUND:                -0.972
REMARK  Name = 
REMARK  8 active torsions:
REMARK  status: ('A' for Active; 'I' for Inactive)
REMARK    1  A    between atoms: C_1  and  O_2
REMARK    2  A    between atoms: O_2  and  C_3
REMARK    3  A    between atoms: C_6  and  O_7
REMARK    4  A    between atoms: O_7  and  C_8
REMARK    5  A    between atoms: C_9  and  N_10
REMARK    6  A    between atoms: N_10  and  C_11
REMARK    7  A    between atoms: C_11  and  C_12
REMARK    8  A    between atoms: C_16  and  N_17
REMARK                            x       y       z     vdW  Elec       q    Type
REMARK                         _______ _______ _______ _____ _____    ______ ____
ROOT
ATOM      1  C   UNL     1      46.649   4.720  13.545  0.00  0.00    +0.000 C 
ATOM      2  C   UNL     1      46.712   4.624  15.064  0.00  0.00    +0.000 C 
ATOM      3  C   UNL     1      47.283   3.520  14.249  0.00  0.00    +0.000 C 
ENDROOT
BRANCH   1   4
ATOM      4  C   UNL     1      45.344   4.369  12.838  0.00  0.00    +0.000 A 
ATOM      5  C   UNL     1      44.123   4.932  13.245  0.00  0.00    +0.000 A 
ATOM      6  C   UNL     1      43.022   4.935  12.393  0.00  0.00    +0.000 A 
ATOM      7  C   UNL     1      43.138   4.390  11.114  0.00  0.00    +0.000 A 
ATOM      8  C   UNL     1      44.313   3.751  10.703  0.00  0.00    +0.000 A 
ATOM      9  C   UNL     1      45.366   3.675  11.617  0.00  0.00    +0.000 A 
BRANCH   8  10
ATOM     10  N   UNL     1      44.502   3.303   9.415  0.00  0.00    +0.000 N 
ATOM     11  C   UNL     1      44.595   1.877   9.101  0.00  0.00    +0.000 C 
ATOM     12  C   UNL     1      45.962   1.559   8.464  0.00  0.00    +0.000 C 
ATOM     13  N   UNL     1      46.281   2.419   7.301  0.00  0.00    +0.000 NA
ATOM     14  C   UNL     1      46.199   3.840   7.723  0.00  0.00    +0.000 C 
ATOM     15  C   UNL     1      44.833   4.233   8.334  0.00  0.00    +0.000 C 
ATOM     16  H   UNL     1      45.557   2.267   6.598  0.00  0.00    +0.000 HD
ENDBRANCH   8  10
ENDBRANCH   1   4
BRANCH   1  17
ATOM     17  N   UNL     1      47.550   5.625  12.831  0.00  0.00    +0.000 N 
ATOM     18  H   UNL     1      47.795   5.416  11.865  0.00  0.00    +0.000 HD
BRANCH  17  23
ATOM     19  C   UNL     1      48.998   8.829  14.138  0.00  0.00    +0.000 A 
ATOM     20  C   UNL     1      48.198   9.752  13.469  0.00  0.00    +0.000 A 
ATOM     21  C   UNL     1      47.172   9.313  12.622  0.00  0.00    +0.000 A 
ATOM     22  C   UNL     1      46.936   7.947  12.444  0.00  0.00    +0.000 A 
ATOM     23  C   UNL     1      47.741   6.999  13.119  0.00  0.00    +0.000 A 
ATOM     24  C   UNL     1      48.766   7.461  13.955  0.00  0.00    +0.000 A 
BRANCH  19  26
ATOM     25  C   UNL     1      50.184   8.306  16.131  0.00  0.00    +0.000 C 
ATOM     26  O   UNL     1      50.033   9.130  14.983  0.00  0.00    +0.000 OA
ENDBRANCH  19  26
BRANCH  22  27
ATOM     27  O   UNL     1      45.946   7.418  11.647  0.00  0.00    +0.000 OA
ATOM     28  C   UNL     1      44.750   8.173  11.505  0.00  0.00    +0.000 C 
ENDBRANCH  22  27
ENDBRANCH  17  23
ENDBRANCH   1  17
TORSDOF 6
ENDMDL
MODEL 5
REMARK VINA RESULT:    -6.133      3.691      7.629
REMARK INTER + INTRA:          -9.256
REMARK INTER:                  -9.031
REMARK INTRA:                  -0.225
REMARK UNBOUND:                -0.972
REMARK  Name = 
REMARK  8 active torsions:
REMARK  status: ('A' for Active; 'I' for Inactive)
REMARK    1  A    between atoms: C_1  and  O_2
REMARK    2  A    between atoms: O_2  and  C_3
REMARK    3  A    between atoms: C_6  and  O_7
REMARK    4  A    between atoms: O_7  and  C_8
REMARK    5  A    between atoms: C_9  and  N_10
REMARK    6  A    between atoms: N_10  and  C_11
REMARK    7  A    between atoms: C_11  and  C_12
REMARK    8  A    between atoms: C_16  and  N_17
REMARK                            x       y       z     vdW  Elec       q    Type
REMARK                         _______ _______ _______ _____ _____    ______ ____
ROOT
ATOM      1  C   UNL     1      45.847   6.078  12.060  0.00  0.00    +0.000 C 
ATOM      2  C   UNL     1      45.281   7.261  11.284  0.00  0.00    +0.000 C 
ATOM      3  C   UNL     1      44.808   7.018  12.672  0.00  0.00    +0.000 C 
ENDROOT
BRANCH   1   4
ATOM      4  C   UNL     1      45.293   4.684  11.786  0.00  0.00    +0.000 A 
ATOM      5  C   UNL     1      44.259   4.146  12.571  0.00  0.00    +0.000 A 
ATOM      6  C   UNL     1      43.496   3.079  12.106  0.00  0.00    +0.000 A 
ATOM      7  C   UNL     1      43.747   2.551  10.839  0.00  0.00    +0.000 A 
ATOM      8  C   UNL     1      44.817   3.008  10.063  0.00  0.00    +0.000 A 
ATOM      9  C   UNL     1      45.628   4.012  10.600  0.00  0.00    +0.000 A 
BRANCH   8  10
ATOM     10  N   UNL     1      45.026   2.591   8.768  0.00  0.00    +0.000 N 
ATOM     11  C   UNL     1      45.474   1.233   8.459  0.00  0.00    +0.000 C 
ATOM     12  C   UNL     1      46.826   1.271   7.722  0.00  0.00    +0.000 C 
ATOM     13  N   UNL     1      46.820   2.152   6.531  0.00  0.00    +0.000 NA
ATOM     14  C   UNL     1      46.393   3.511   6.947  0.00  0.00    +0.000 C 
ATOM     15  C   UNL     1      45.019   3.545   7.657  0.00  0.00    +0.000 C 
ATOM     16  H   UNL     1      46.114   1.794   5.886  0.00  0.00    +0.000 HD
ENDBRANCH   8  10
ENDBRANCH   1   4
BRANCH   1  17
ATOM     17  N   UNL     1      47.204   6.141  12.604  0.00  0.00    +0.000 N 
ATOM     18  H   UNL     1      47.903   6.702  12.121  0.00  0.00    +0.000 HD
BRANCH  17  23
ATOM     19  C   UNL     1      47.550   4.614  16.012  0.00  0.00    +0.000 A 
ATOM     20  C   UNL     1      48.490   5.474  16.574  0.00  0.00    +0.000 A 
ATOM     21  C   UNL     1      48.976   6.563  15.839  0.00  0.00    +0.000 A 
ATOM     22  C   UNL     1      48.519   6.802  14.540  0.00  0.00    +0.000 A 
ATOM     23  C   UNL     1      47.562   5.937  13.959  0.00  0.00    +0.000 A 
ATOM     24  C   UNL     1      47.096   4.850  14.710  0.00  0.00    +0.000 A 
BRANCH  19  26
ATOM     25  C   UNL     1      47.847   2.792  17.511  0.00  0.00    +0.000 C 
ATOM     26  O   UNL     1      47.005   3.515  16.622  0.00  0.00    +0.000 OA
ENDBRANCH  19  26
BRANCH  22  27
ATOM     27  O   UNL     1      48.924   7.851  13.746  0.00  0.00    +0.000 OA
ATOM     28  C   UNL     1      49.961   8.686  14.245  0.00  0.00    +0.000 C 
ENDBRANCH  22  27
ENDBRANCH  17  23
ENDBRANCH   1  17
TORSDOF 6
ENDMDL
MODEL 6
REMARK VINA RESULT:    -6.131      1.699      2.631
REMARK INTER + INTRA:          -9.253
REMARK INTER:                  -8.211
REMARK INTRA:                  -1.042
REMARK UNBOUND:                -0.972
REMARK  Name = 
REMARK  8 active torsions:
REMARK  status: ('A' for Active; 'I' for Inactive)
REMARK    1  A    between atoms: C_1  and  O_2
REMARK    2  A    between atoms: O_2  and  C_3
REMARK    3  A    between atoms: C_6  and  O_7
REMARK    4  A    between atoms: O_7  and  C_8
REMARK    5  A    between atoms: C_9  and  N_10
REMARK    6  A    between atoms: N_10  and  C_11
REMARK    7  A    between atoms: C_11  and  C_12
REMARK    8  A    between atoms: C_16  and  N_17
REMARK                            x       y       z     vdW  Elec       q    Type
REMARK                         _______ _______ _______ _____ _____    ______ ____
ROOT
ATOM      1  C   UNL     1      47.340   7.528  12.989  0.00  0.00    +0.000 C 
ATOM      2  C   UNL     1      48.575   6.678  12.717  0.00  0.00    +0.000 C 
ATOM      3  C   UNL     1      48.376   7.247  14.076  0.00  0.00    +0.000 C 
ENDROOT
BRANCH   1   4
ATOM      4  C   UNL     1      47.335   8.985  12.539  0.00  0.00    +0.000 A 
ATOM      5  C   UNL     1      48.525   9.635  12.169  0.00  0.00    +0.000 A 
ATOM      6  C   UNL     1      48.491  10.798  11.404  0.00  0.00    +0.000 A 
ATOM      7  C   UNL     1      47.265  11.312  10.984  0.00  0.00    +0.000 A 
ATOM      8  C   UNL     1      46.058  10.738  11.398  0.00  0.00    +0.000 A 
ATOM      9  C   UNL     1      46.123   9.631  12.249  0.00  0.00    +0.000 A 
BRANCH   8  10
ATOM     10  N   UNL     1      44.836  11.148  10.914  0.00  0.00    +0.000 N 
ATOM     11  C   UNL     1      43.581  10.720  11.531  0.00  0.00    +0.000 C 
ATOM     12  C   UNL     1      42.723   9.944  10.513  0.00  0.00    +0.000 C 
ATOM     13  N   UNL     1      42.512  10.678   9.243  0.00  0.00    +0.000 NA
ATOM     14  C   UNL     1      43.836  11.035   8.674  0.00  0.00    +0.000 C 
ATOM     15  C   UNL     1      44.730  11.853   9.636  0.00  0.00    +0.000 C 
ATOM     16  H   UNL     1      42.031  11.550   9.468  0.00  0.00    +0.000 HD
ENDBRANCH   8  10
ENDBRANCH   1   4
BRANCH   1  17
ATOM     17  N   UNL     1      46.031   6.891  13.136  0.00  0.00    +0.000 N 
ATOM     18  H   UNL     1      45.238   7.456  13.433  0.00  0.00    +0.000 HD
BRANCH  17  23
ATOM     19  C   UNL     1      44.943   4.530  10.432  0.00  0.00    +0.000 A 
ATOM     20  C   UNL     1      44.964   3.326  11.133  0.00  0.00    +0.000 A 
ATOM     21  C   UNL     1      45.304   3.307  12.491  0.00  0.00    +0.000 A 
ATOM     22  C   UNL     1      45.618   4.494  13.159  0.00  0.00    +0.000 A 
ATOM     23  C   UNL     1      45.599   5.724  12.460  0.00  0.00    +0.000 A 
ATOM     24  C   UNL     1      45.264   5.717  11.099  0.00  0.00    +0.000 A 
BRANCH  19  26
ATOM     25  C   UNL     1      45.382   3.896   8.182  0.00  0.00    +0.000 C 
ATOM     26  O   UNL     1      44.636   4.679   9.105  0.00  0.00    +0.000 OA
ENDBRANCH  19  26
BRANCH  22  27
ATOM     27  O   UNL     1      45.950   4.581  14.493  0.00  0.00    +0.000 OA
ATOM     28  C   UNL     1      47.142   3.929  14.913  0.00  0.00    +0.000 C 
ENDBRANCH  22  27
ENDBRANCH  17  23
ENDBRANCH   1  17
TORSDOF 6
ENDMDL
MODEL 7
REMARK VINA RESULT:    -5.978      4.628      6.637
REMARK INTER + INTRA:          -9.047
REMARK INTER:                  -7.833
REMARK INTRA:                  -1.214
REMARK UNBOUND:                -0.972
REMARK  Name = 
REMARK  8 active torsions:
REMARK  status: ('A' for Active; 'I' for Inactive)
REMARK    1  A    between atoms: C_1  and  O_2
REMARK    2  A    between atoms: O_2  and  C_3
REMARK    3  A    between atoms: C_6  and  O_7
REMARK    4  A    between atoms: O_7  and  C_8
REMARK    5  A    between atoms: C_9  and  N_10
REMARK    6  A    between atoms: N_10  and  C_11
REMARK    7  A    between atoms: C_11  and  C_12
REMARK    8  A    between atoms: C_16  and  N_17
REMARK                            x       y       z     vdW  Elec       q    Type
REMARK                         _______ _______ _______ _____ _____    ______ ____
ROOT
ATOM      1  C   UNL     1      49.315   7.744  16.282  0.00  0.00    +0.000 C 
ATOM      2  C   UNL     1      50.777   7.786  16.710  0.00  0.00    +0.000 C 
ATOM      3  C   UNL     1      49.928   8.987  16.927  0.00  0.00    +0.000 C 
ENDROOT
BRANCH   1   4
ATOM      4  C   UNL     1      48.971   7.950  14.811  0.00  0.00    +0.000 A 
ATOM      5  C   UNL     1      49.875   7.592  13.797  0.00  0.00    +0.000 A 
ATOM      6  C   UNL     1      49.439   7.407  12.488  0.00  0.00    +0.000 A 
ATOM      7  C   UNL     1      48.086   7.560  12.184  0.00  0.00    +0.000 A 
ATOM      8  C   UNL     1      47.170   7.991  13.150  0.00  0.00    +0.000 A 
ATOM      9  C   UNL     1      47.657   8.266  14.430  0.00  0.00    +0.000 A 
BRANCH   8  10
ATOM     10  N   UNL     1      45.815   8.044  12.916  0.00  0.00    +0.000 N 
ATOM     11  C   UNL     1      45.007   6.831  12.789  0.00  0.00    +0.000 C 
ATOM     12  C   UNL     1      44.344   6.774  11.399  0.00  0.00    +0.000 C 
ATOM     13  N   UNL     1      43.585   8.000  11.060  0.00  0.00    +0.000 NA
ATOM     14  C   UNL     1      44.492   9.169  11.179  0.00  0.00    +0.000 C 
ATOM     15  C   UNL     1      45.158   9.305  12.569  0.00  0.00    +0.000 C 
ATOM     16  H   UNL     1      42.851   8.111  11.761  0.00  0.00    +0.000 HD
ENDBRANCH   8  10
ENDBRANCH   1   4
BRANCH   1  17
ATOM     17  N   UNL     1      48.341   6.993  17.076  0.00  0.00    +0.000 N 
ATOM     18  H   UNL     1      47.493   7.462  17.389  0.00  0.00    +0.000 HD
BRANCH  17  23
ATOM     19  C   UNL     1      47.757   3.483  15.889  0.00  0.00    +0.000 A 
ATOM     20  C   UNL     1      48.063   2.776  17.050  0.00  0.00    +0.000 A 
ATOM     21  C   UNL     1      48.428   3.460  18.216  0.00  0.00    +0.000 A 
ATOM     22  C   UNL     1      48.481   4.857  18.231  0.00  0.00    +0.000 A 
ATOM     23  C   UNL     1      48.169   5.587  17.060  0.00  0.00    +0.000 A 
ATOM     24  C   UNL     1      47.816   4.881  15.902  0.00  0.00    +0.000 A 
BRANCH  19  26
ATOM     25  C   UNL     1      46.929   3.828  13.687  0.00  0.00    +0.000 C 
ATOM     26  O   UNL     1      47.396   2.933  14.688  0.00  0.00    +0.000 OA
ENDBRANCH  19  26
BRANCH  22  27
ATOM     27  O   UNL     1      48.812   5.618  19.329  0.00  0.00    +0.000 OA
ATOM     28  C   UNL     1      49.139   4.927  20.528  0.00  0.00    +0.000 C 
ENDBRANCH  22  27
ENDBRANCH  17  23
ENDBRANCH   1  17
TORSDOF 6
ENDMDL
MODEL 8
REMARK VINA RESULT:    -5.947      4.367      7.400
REMARK INTER + INTRA:          -9.004
REMARK INTER:                  -8.414
REMARK INTRA:                  -0.591
REMARK UNBOUND:                -0.972
REMARK  Name = 
REMARK  8 active torsions:
REMARK  status: ('A' for Active; 'I' for Inactive)
REMARK    1  A    between atoms: C_1  and  O_2
REMARK    2  A    between atoms: O_2  and  C_3
REMARK    3  A    between atoms: C_6  and  O_7
REMARK    4  A    between atoms: O_7  and  C_8
REMARK    5  A    between atoms: C_9  and  N_10
REMARK    6  A    between atoms: N_10  and  C_11
REMARK    7  A    between atoms: C_11  and  C_12
REMARK    8  A    between atoms: C_16  and  N_17
REMARK                            x       y       z     vdW  Elec       q    Type
REMARK                         _______ _______ _______ _____ _____    ______ ____
ROOT
ATOM      1  C   UNL     1      48.002   7.775  13.169  0.00  0.00    +0.000 C 
ATOM      2  C   UNL     1      48.552   8.840  12.229  0.00  0.00    +0.000 C 
ATOM      3  C   UNL     1      48.424   7.443  11.738  0.00  0.00    +0.000 C 
ENDROOT
BRANCH   1   4
ATOM      4  C   UNL     1      48.930   7.166  14.215  0.00  0.00    +0.000 A 
ATOM      5  C   UNL     1      50.229   7.664  14.412  0.00  0.00    +0.000 A 
ATOM      6  C   UNL     1      50.922   7.394  15.589  0.00  0.00    +0.000 A 
ATOM      7  C   UNL     1      50.314   6.639  16.591  0.00  0.00    +0.000 A 
ATOM      8  C   UNL     1      49.054   6.061  16.399  0.00  0.00    +0.000 A 
ATOM      9  C   UNL     1      48.426   6.266  15.168  0.00  0.00    +0.000 A 
BRANCH   8  10
ATOM     10  N   UNL     1      48.377   5.407  17.403  0.00  0.00    +0.000 N 
ATOM     11  C   UNL     1      48.615   5.707  18.815  0.00  0.00    +0.000 C 
ATOM     12  C   UNL     1      49.118   4.450  19.551  0.00  0.00    +0.000 C 
ATOM     13  N   UNL     1      48.244   3.270  19.361  0.00  0.00    +0.000 NA
ATOM     14  C   UNL     1      48.093   3.020  17.905  0.00  0.00    +0.000 C 
ATOM     15  C   UNL     1      47.550   4.234  17.115  0.00  0.00    +0.000 C 
ATOM     16  H   UNL     1      47.322   3.507  19.727  0.00  0.00    +0.000 HD
ENDBRANCH   8  10
ENDBRANCH   1   4
BRANCH   1  17
ATOM     17  N   UNL     1      46.571   7.731  13.468  0.00  0.00    +0.000 N 
ATOM     18  H   UNL     1      46.131   8.543  13.898  0.00  0.00    +0.000 HD
BRANCH  17  23
ATOM     19  C   UNL     1      44.364   4.839  12.554  0.00  0.00    +0.000 A 
ATOM     20  C   UNL     1      43.542   5.446  11.607  0.00  0.00    +0.000 A 
ATOM     21  C   UNL     1      43.741   6.787  11.257  0.00  0.00    +0.000 A 
ATOM     22  C   UNL     1      44.769   7.528  11.847  0.00  0.00    +0.000 A 
ATOM     23  C   UNL     1      45.612   6.923  12.808  0.00  0.00    +0.000 A 
ATOM     24  C   UNL     1      45.389   5.582  13.149  0.00  0.00    +0.000 A 
BRANCH  19  26
ATOM     25  C   UNL     1      43.502   2.654  12.182  0.00  0.00    +0.000 C 
ATOM     26  O   UNL     1      44.267   3.543  12.986  0.00  0.00    +0.000 OA
ENDBRANCH  19  26
BRANCH  22  27
ATOM     27  O   UNL     1      45.053   8.844  11.559  0.00  0.00    +0.000 OA
ATOM     28  C   UNL     1      44.039   9.605  10.914  0.00  0.00    +0.000 C 
ENDBRANCH  22  27
ENDBRANCH  17  23
ENDBRANCH   1  17
TORSDOF 6
ENDMDL
MODEL 9
REMARK VINA RESULT:    -5.906      3.265      4.919
REMARK INTER + INTRA:          -8.949
REMARK INTER:                  -7.983
REMARK INTRA:                  -0.967
REMARK UNBOUND:                -0.972
REMARK  Name = 
REMARK  8 active torsions:
REMARK  status: ('A' for Active; 'I' for Inactive)
REMARK    1  A    between atoms: C_1  and  O_2
REMARK    2  A    between atoms: O_2  and  C_3
REMARK    3  A    between atoms: C_6  and  O_7
REMARK    4  A    between atoms: O_7  and  C_8
REMARK    5  A    between atoms: C_9  and  N_10
REMARK    6  A    between atoms: N_10  and  C_11
REMARK    7  A    between atoms: C_11  and  C_12
REMARK    8  A    between atoms: C_16  and  N_17
REMARK                            x       y       z     vdW  Elec       q    Type
REMARK                         _______ _______ _______ _____ _____    ______ ____
ROOT
ATOM      1  C   UNL     1      46.518   6.551  12.118  0.00  0.00    +0.000 C 
ATOM      2  C   UNL     1      47.160   5.342  12.788  0.00  0.00    +0.000 C 
ATOM      3  C   UNL     1      46.358   6.283  13.615  0.00  0.00    +0.000 C 
ENDROOT
BRANCH   1   4
ATOM      4  C   UNL     1      47.380   7.775  11.825  0.00  0.00    +0.000 A 
ATOM      5  C   UNL     1      46.916   9.072  12.102  0.00  0.00    +0.000 A 
ATOM      6  C   UNL     1      47.806  10.137  12.211  0.00  0.00    +0.000 A 
ATOM      7  C   UNL     1      49.175   9.910  12.064  0.00  0.00    +0.000 A 
ATOM      8  C   UNL     1      49.666   8.648  11.711  0.00  0.00    +0.000 A 
ATOM      9  C   UNL     1      48.739   7.623  11.509  0.00  0.00    +0.000 A 
BRANCH   8  10
ATOM     10  N   UNL     1      51.012   8.362  11.667  0.00  0.00    +0.000 N 
ATOM     11  C   UNL     1      51.967   9.010  12.567  0.00  0.00    +0.000 C 
ATOM     12  C   UNL     1      53.015   9.796  11.756  0.00  0.00    +0.000 C 
ATOM     13  N   UNL     1      53.680   8.983  10.712  0.00  0.00    +0.000 NA
ATOM     14  C   UNL     1      52.640   8.401   9.828  0.00  0.00    +0.000 C 
ATOM     15  C   UNL     1      51.578   7.562  10.579  0.00  0.00    +0.000 C 
ATOM     16  H   UNL     1      54.152   8.208  11.179  0.00  0.00    +0.000 HD
ENDBRANCH   8  10
ENDBRANCH   1   4
BRANCH   1  17
ATOM     17  N   UNL     1      45.331   6.379  11.280  0.00  0.00    +0.000 N 
ATOM     18  H   UNL     1      44.760   7.193  11.060  0.00  0.00    +0.000 HD
BRANCH  17  23
ATOM     19  C   UNL     1      45.731   4.159   8.283  0.00  0.00    +0.000 A 
ATOM     20  C   UNL     1      44.833   3.144   8.607  0.00  0.00    +0.000 A 
ATOM     21  C   UNL     1      44.086   3.214   9.789  0.00  0.00    +0.000 A 
ATOM     22  C   UNL     1      44.225   4.306  10.651  0.00  0.00    +0.000 A 
ATOM     23  C   UNL     1      45.131   5.345  10.333  0.00  0.00    +0.000 A 
ATOM     24  C   UNL     1      45.874   5.249   9.149  0.00  0.00    +0.000 A 
BRANCH  19  26
ATOM     25  C   UNL     1      46.941   2.955   6.628  0.00  0.00    +0.000 C 
ATOM     26  O   UNL     1      46.521   4.202   7.166  0.00  0.00    +0.000 OA
ENDBRANCH  19  26
BRANCH  22  27
ATOM     27  O   UNL     1      43.526   4.473  11.825  0.00  0.00    +0.000 OA
ATOM     28  C   UNL     1      43.700   3.487  12.835  0.00  0.00    +0.000 C 
ENDBRANCH  22  27
ENDBRANCH  17  23
ENDBRANCH   1  17
TORSDOF 6
ENDMDL
