MODEL 1
REMARK VINA RESULT:    -7.368      0.000      0.000
REMARK INTER + INTRA:         -12.798
REMARK INTER:                 -11.029
REMARK INTRA:                  -1.769
REMARK UNBOUND:                -1.769
REMARK  Name = 
REMARK  10 active torsions:
REMARK  status: ('A' for Active; 'I' for Inactive)
REMARK    1  A    between atoms: C_1  and  O_2
REMARK    2  A    between atoms: O_2  and  C_3
REMARK    3  A    between atoms: C_7  and  C_8
REMARK    4  A    between atoms: C_8  and  C_9
REMARK    5  A    between atoms: C_9  and  C_10
REMARK    6  A    between atoms: C_10  and  C_11
REMARK    7  A    between atoms: C_14  and  C_15
REMARK    8  A    between atoms: C_15  and  N_16
REMARK    9  A    between atoms: C_17  and  C_19
REMARK   10  A    between atoms: C_26  and  O_27
REMARK                            x       y       z     vdW  Elec       q    Type
REMARK                         _______ _______ _______ _____ _____    ______ ____
ROOT
ATOM      1  C   UNL     1      44.530   5.750  12.880  0.00  0.00    +0.000 A 
ATOM      2  C   UNL     1      44.780   6.953  12.205  0.00  0.00    +0.000 A 
ATOM      3  C   UNL     1      46.077   7.475  12.135  0.00  0.00    +0.000 A 
ATOM      4  C   UNL     1      47.152   6.797  12.722  0.00  0.00    +0.000 A 
ATOM      5  C   UNL     1      46.895   5.609  13.421  0.00  0.00    +0.000 A 
ATOM      6  C   UNL     1      45.600   5.087  13.491  0.00  0.00    +0.000 A 
ENDROOT
BRANCH   1   7
ATOM      7  C   UNL     1      43.140   5.159  12.902  0.00  0.00    +0.000 C 
BRANCH   7   8
ATOM      8  C   UNL     1      42.769   4.536  11.553  0.00  0.00    +0.000 C 
BRANCH   8   9
ATOM      9  C   UNL     1      43.465   3.190  11.341  0.00  0.00    +0.000 C 
BRANCH   9  14
ATOM     10  C   UNL     1      45.669   2.065   8.627  0.00  0.00    +0.000 A 
ATOM     11  C   UNL     1      45.947   3.203   7.890  0.00  0.00    +0.000 A 
ATOM     12  C   UNL     1      45.397   4.408   8.312  0.00  0.00    +0.000 A 
ATOM     13  C   UNL     1      44.591   4.430   9.448  0.00  0.00    +0.000 A 
ATOM     14  C   UNL     1      44.368   3.239  10.135  0.00  0.00    +0.000 A 
ATOM     15  N   UNL     1      44.901   2.059   9.738  0.00  0.00    +0.000 NA
BRANCH  10  17
ATOM     16  C   UNL     1      47.274   1.092   7.244  0.00  0.00    +0.000 C 
ATOM     17  O   UNL     1      46.211   0.880   8.172  0.00  0.00    +0.000 OA
ENDBRANCH  10  17
ENDBRANCH   9  14
ENDBRANCH   8   9
ENDBRANCH   7   8
ENDBRANCH   1   7
BRANCH   4  18
ATOM     18  C   UNL     1      48.555   7.340  12.617  0.00  0.00    +0.000 C 
BRANCH  18  19
ATOM     19  N   UNL     1      49.369   6.908  13.725  0.00  0.00    +0.000 N 
ATOM     20  C   UNL     1      50.019   7.808  14.531  0.00  0.00    +0.000 C 
ATOM     21  O   UNL     1      49.813   9.017  14.479  0.00  0.00    +0.000 OA
ATOM     22  H   UNL     1      49.648   5.936  13.742  0.00  0.00    +0.000 HD
BRANCH  20  23
ATOM     23  C   UNL     1      50.944   7.222  15.502  0.00  0.00    +0.000 A 
ATOM     24  C   UNL     1      52.312   7.425  15.393  0.00  0.00    +0.000 A 
ATOM     25  S   UNL     1      53.198   6.708  16.664  0.00  0.00    +0.000 S 
ATOM     26  C   UNL     1      51.786   6.057  17.351  0.00  0.00    +0.000 A 
ATOM     27  N   UNL     1      51.849   5.315  18.471  0.00  0.00    +0.000 NA
ATOM     28  C   UNL     1      50.654   4.858  18.857  0.00  0.00    +0.000 A 
ATOM     29  N   UNL     1      49.471   5.054  18.256  0.00  0.00    +0.000 NA
ATOM     30  C   UNL     1      49.480   5.802  17.152  0.00  0.00    +0.000 A 
ATOM     31  C   UNL     1      50.641   6.373  16.635  0.00  0.00    +0.000 A 
BRANCH  30  32
ATOM     32  O   UNL     1      48.251   5.968  16.585  0.00  0.00    +0.000 OA
ATOM     33  H   UNL     1      48.474   6.528  15.819  0.00  0.00    +0.000 HD
ENDBRANCH  30  32
ENDBRANCH  20  23
ENDBRANCH  18  19
ENDBRANCH   4  18
TORSDOF 9
ENDMDL
MODEL 2
REMARK VINA RESULT:    -7.295      2.292      2.820
REMARK INTER + INTRA:         -12.689
REMARK INTER:                 -11.272
REMARK INTRA:                  -1.417
REMARK UNBOUND:                -1.769
REMARK  Name = 
REMARK  10 active torsions:
REMARK  status: ('A' for Active; 'I' for Inactive)
REMARK    1  A    between atoms: C_1  and  O_2
REMARK    2  A    between atoms: O_2  and  C_3
REMARK    3  A    between atoms: C_7  and  C_8
REMARK    4  A    between atoms: C_8  and  C_9
REMARK    5  A    between atoms: C_9  and  C_10
REMARK    6  A    between atoms: C_10  and  C_11
REMARK    7  A    between atoms: C_14  and  C_15
REMARK    8  A    between atoms: C_15  and  N_16
REMARK    9  A    between atoms: C_17  and  C_19
REMARK   10  A    between atoms: C_26  and  O_27
REMARK                            x       y       z     vdW  Elec       q    Type
REMARK                         _______ _______ _______ _____ _____    ______ ____
ROOT
ATOM      1  C   UNL     1      44.568   5.485  12.963  0.00  0.00    +0.000 A 
ATOM      2  C   UNL     1      45.512   4.515  13.330  0.00  0.00    +0.000 A 
ATOM      3  C   UNL     1      46.849   4.867  13.545  0.00  0.00    +0.000 A 
ATOM      4  C   UNL     1      47.267   6.197  13.416  0.00  0.00    +0.000 A 
ATOM      5  C   UNL     1      46.328   7.160  13.021  0.00  0.00    +0.000 A 
ATOM      6  C   UNL     1      44.991   6.809  12.806  0.00  0.00    +0.000 A 
ENDROOT
BRANCH   1   7
ATOM      7  C   UNL     1      43.114   5.112  12.791  0.00  0.00    +0.000 C 
BRANCH   7   8
ATOM      8  C   UNL     1      42.866   4.412  11.453  0.00  0.00    +0.000 C 
BRANCH   8   9
ATOM      9  C   UNL     1      43.644   5.075  10.314  0.00  0.00    +0.000 C 
BRANCH   9  14
ATOM     10  C   UNL     1      45.792   3.612   7.718  0.00  0.00    +0.000 A 
ATOM     11  C   UNL     1      45.857   2.263   8.020  0.00  0.00    +0.000 A 
ATOM     12  C   UNL     1      45.146   1.802   9.122  0.00  0.00    +0.000 A 
ATOM     13  C   UNL     1      44.403   2.702   9.881  0.00  0.00    +0.000 A 
ATOM     14  C   UNL     1      44.388   4.043   9.504  0.00  0.00    +0.000 A 
ATOM     15  N   UNL     1      45.071   4.505   8.430  0.00  0.00    +0.000 NA
BRANCH  10  17
ATOM     16  C   UNL     1      46.923   2.967   5.785  0.00  0.00    +0.000 C 
ATOM     17  O   UNL     1      46.525   4.043   6.632  0.00  0.00    +0.000 OA
ENDBRANCH  10  17
ENDBRANCH   9  14
ENDBRANCH   8   9
ENDBRANCH   7   8
ENDBRANCH   1   7
BRANCH   4  18
ATOM     18  C   UNL     1      48.700   6.584  13.681  0.00  0.00    +0.000 C 
BRANCH  18  19
ATOM     19  N   UNL     1      48.840   7.240  14.956  0.00  0.00    +0.000 N 
ATOM     20  C   UNL     1      48.944   6.525  16.123  0.00  0.00    +0.000 C 
ATOM     21  O   UNL     1      49.103   5.308  16.145  0.00  0.00    +0.000 OA
ATOM     22  H   UNL     1      48.613   8.225  14.997  0.00  0.00    +0.000 HD
BRANCH  20  23
ATOM     23  C   UNL     1      48.905   7.322  17.349  0.00  0.00    +0.000 A 
ATOM     24  C   UNL     1      49.515   8.566  17.409  0.00  0.00    +0.000 A 
ATOM     25  S   UNL     1      49.292   9.350  18.909  0.00  0.00    +0.000 S 
ATOM     26  C   UNL     1      48.434   8.022  19.534  0.00  0.00    +0.000 A 
ATOM     27  N   UNL     1      47.962   8.044  20.794  0.00  0.00    +0.000 NA
ATOM     28  C   UNL     1      47.340   6.912  21.133  0.00  0.00    +0.000 A 
ATOM     29  N   UNL     1      47.164   5.818  20.377  0.00  0.00    +0.000 NA
ATOM     30  C   UNL     1      47.653   5.865  19.137  0.00  0.00    +0.000 A 
ATOM     31  C   UNL     1      48.306   6.984  18.624  0.00  0.00    +0.000 A 
BRANCH  30  32
ATOM     32  O   UNL     1      47.444   4.727  18.415  0.00  0.00    +0.000 OA
ATOM     33  H   UNL     1      48.200   4.183  18.705  0.00  0.00    +0.000 HD
ENDBRANCH  30  32
ENDBRANCH  20  23
ENDBRANCH  18  19
ENDBRANCH   4  18
TORSDOF 9
ENDMDL
MODEL 3
REMARK VINA RESULT:    -7.150      3.118      8.311
REMARK INTER + INTRA:         -12.471
REMARK INTER:                 -10.629
REMARK INTRA:                  -1.842
REMARK UNBOUND:                -1.769
REMARK  Name = 
REMARK  10 active torsions:
REMARK  status: ('A' for Active; 'I' for Inactive)
REMARK    1  A    between atoms: C_1  and  O_2
REMARK    2  A    between atoms: O_2  and  C_3
REMARK    3  A    between atoms: C_7  and  C_8
REMARK    4  A    between atoms: C_8  and  C_9
REMARK    5  A    between atoms: C_9  and  C_10
REMARK    6  A    between atoms: C_10  and  C_11
REMARK    7  A    between atoms: C_14  and  C_15
REMARK    8  A    between atoms: C_15  and  N_16
REMARK    9  A    between atoms: C_17  and  C_19
REMARK   10  A    between atoms: C_26  and  O_27
REMARK                            x       y       z     vdW  Elec       q    Type
REMARK                         _______ _______ _______ _____ _____    ______ ____
ROOT
ATOM      1  C   UNL     1      49.073   8.095  16.047  0.00  0.00    +0.000 A 
ATOM      2  C   UNL     1      48.297   9.133  15.512  0.00  0.00    +0.000 A 
ATOM      3  C   UNL     1      47.879   9.096  14.176  0.00  0.00    +0.000 A 
ATOM      4  C   UNL     1      48.212   8.012  13.355  0.00  0.00    +0.000 A 
ATOM      5  C   UNL     1      49.012   6.990  13.883  0.00  0.00    +0.000 A 
ATOM      6  C   UNL     1      49.430   7.027  15.217  0.00  0.00    +0.000 A 
ENDROOT
BRANCH   1   7
ATOM      7  C   UNL     1      49.471   8.110  17.504  0.00  0.00    +0.000 C 
BRANCH   7   8
ATOM      8  C   UNL     1      50.424   6.961  17.840  0.00  0.00    +0.000 C 
BRANCH   8   9
ATOM      9  C   UNL     1      49.781   5.951  18.794  0.00  0.00    +0.000 C 
BRANCH   9  14
ATOM     10  C   UNL     1      49.334   2.786  16.985  0.00  0.00    +0.000 A 
ATOM     11  C   UNL     1      47.980   2.718  16.704  0.00  0.00    +0.000 A 
ATOM     12  C   UNL     1      47.171   3.772  17.113  0.00  0.00    +0.000 A 
ATOM     13  C   UNL     1      47.741   4.848  17.788  0.00  0.00    +0.000 A 
ATOM     14  C   UNL     1      49.114   4.840  18.025  0.00  0.00    +0.000 A 
ATOM     15  N   UNL     1      49.915   3.822  17.628  0.00  0.00    +0.000 NA
BRANCH  10  17
ATOM     16  C   UNL     1      51.327   1.626  17.321  0.00  0.00    +0.000 C 
ATOM     17  O   UNL     1      50.108   1.716  16.586  0.00  0.00    +0.000 OA
ENDBRANCH  10  17
ENDBRANCH   9  14
ENDBRANCH   8   9
ENDBRANCH   7   8
ENDBRANCH   1   7
BRANCH   4  18
ATOM     18  C   UNL     1      47.734   7.953  11.926  0.00  0.00    +0.000 C 
BRANCH  18  19
ATOM     19  N   UNL     1      46.969   6.758  11.676  0.00  0.00    +0.000 N 
ATOM     20  C   UNL     1      45.611   6.722  11.871  0.00  0.00    +0.000 C 
ATOM     21  O   UNL     1      44.944   7.729  12.090  0.00  0.00    +0.000 OA
ATOM     22  H   UNL     1      47.481   5.890  11.596  0.00  0.00    +0.000 HD
BRANCH  20  23
ATOM     23  C   UNL     1      44.997   5.400  11.746  0.00  0.00    +0.000 A 
ATOM     24  C   UNL     1      44.398   4.788  12.837  0.00  0.00    +0.000 A 
ATOM     25  S   UNL     1      43.690   3.283  12.454  0.00  0.00    +0.000 S 
ATOM     26  C   UNL     1      44.223   3.383  10.843  0.00  0.00    +0.000 A 
ATOM     27  N   UNL     1      43.953   2.395   9.970  0.00  0.00    +0.000 NA
ATOM     28  C   UNL     1      44.469   2.620   8.758  0.00  0.00    +0.000 A 
ATOM     29  N   UNL     1      45.197   3.674   8.364  0.00  0.00    +0.000 NA
ATOM     30  C   UNL     1      45.425   4.619   9.278  0.00  0.00    +0.000 A 
ATOM     31  C   UNL     1      44.933   4.545  10.579  0.00  0.00    +0.000 A 
BRANCH  30  32
ATOM     32  O   UNL     1      46.169   5.666   8.820  0.00  0.00    +0.000 OA
ATOM     33  H   UNL     1      47.010   5.514   9.289  0.00  0.00    +0.000 HD
ENDBRANCH  30  32
ENDBRANCH  20  23
ENDBRANCH  18  19
ENDBRANCH   4  18
TORSDOF 9
ENDMDL
MODEL 4
REMARK VINA RESULT:    -7.132      2.981      8.316
REMARK INTER + INTRA:         -12.445
REMARK INTER:                 -10.652
REMARK INTRA:                  -1.794
REMARK UNBOUND:                -1.769
REMARK  Name = 
REMARK  10 active torsions:
REMARK  status: ('A' for Active; 'I' for Inactive)
REMARK    1  A    between atoms: C_1  and  O_2
REMARK    2  A    between atoms: O_2  and  C_3
REMARK    3  A    between atoms: C_7  and  C_8
REMARK    4  A    between atoms: C_8  and  C_9
REMARK    5  A    between atoms: C_9  and  C_10
REMARK    6  A    between atoms: C_10  and  C_11
REMARK    7  A    between atoms: C_14  and  C_15
REMARK    8  A    between atoms: C_15  and  N_16
REMARK    9  A    between atoms: C_17  and  C_19
REMARK   10  A    between atoms: C_26  and  O_27
REMARK                            x       y       z     vdW  Elec       q    Type
REMARK                         _______ _______ _______ _____ _____    ______ ____
ROOT
ATOM      1  C   UNL     1      49.508   8.076  15.740  0.00  0.00    +0.000 A 
ATOM      2  C   UNL     1      49.979   7.280  14.686  0.00  0.00    +0.000 A 
ATOM      3  C   UNL     1      49.319   7.267  13.452  0.00  0.00    +0.000 A 
ATOM      4  C   UNL     1      48.186   8.063  13.240  0.00  0.00    +0.000 A 
ATOM      5  C   UNL     1      47.700   8.836  14.304  0.00  0.00    +0.000 A 
ATOM      6  C   UNL     1      48.359   8.849  15.537  0.00  0.00    +0.000 A 
ENDROOT
BRANCH   1   7
ATOM      7  C   UNL     1      50.258   8.134  17.050  0.00  0.00    +0.000 C 
BRANCH   7   8
ATOM      8  C   UNL     1      49.860   6.984  17.979  0.00  0.00    +0.000 C 
BRANCH   8   9
ATOM      9  C   UNL     1      50.852   5.821  17.898  0.00  0.00    +0.000 C 
BRANCH   9  14
ATOM     10  C   UNL     1      48.293   3.564  16.539  0.00  0.00    +0.000 A 
ATOM     11  C   UNL     1      48.831   2.295  16.656  0.00  0.00    +0.000 A 
ATOM     12  C   UNL     1      50.093   2.166  17.225  0.00  0.00    +0.000 A 
ATOM     13  C   UNL     1      50.769   3.307  17.652  0.00  0.00    +0.000 A 
ATOM     14  C   UNL     1      50.151   4.547  17.503  0.00  0.00    +0.000 A 
ATOM     15  N   UNL     1      48.921   4.686  16.954  0.00  0.00    +0.000 NA
BRANCH  10  17
ATOM     16  C   UNL     1      47.028   4.607  14.883  0.00  0.00    +0.000 C 
ATOM     17  O   UNL     1      47.049   3.662  15.951  0.00  0.00    +0.000 OA
ENDBRANCH  10  17
ENDBRANCH   9  14
ENDBRANCH   8   9
ENDBRANCH   7   8
ENDBRANCH   1   7
BRANCH   4  18
ATOM     18  C   UNL     1      47.494   8.076  11.901  0.00  0.00    +0.000 C 
BRANCH  18  19
ATOM     19  N   UNL     1      46.776   6.849  11.667  0.00  0.00    +0.000 N 
ATOM     20  C   UNL     1      45.410   6.784  11.786  0.00  0.00    +0.000 C 
ATOM     21  O   UNL     1      44.705   7.780  11.918  0.00  0.00    +0.000 OA
ATOM     22  H   UNL     1      47.314   5.993  11.659  0.00  0.00    +0.000 HD
BRANCH  20  23
ATOM     23  C   UNL     1      44.839   5.440  11.692  0.00  0.00    +0.000 A 
ATOM     24  C   UNL     1      44.211   4.855  12.782  0.00  0.00    +0.000 A 
ATOM     25  S   UNL     1      43.562   3.315  12.434  0.00  0.00    +0.000 S 
ATOM     26  C   UNL     1      44.159   3.365  10.844  0.00  0.00    +0.000 A 
ATOM     27  N   UNL     1      43.954   2.336  10.003  0.00  0.00    +0.000 NA
ATOM     28  C   UNL     1      44.514   2.526   8.804  0.00  0.00    +0.000 A 
ATOM     29  N   UNL     1      45.229   3.585   8.396  0.00  0.00    +0.000 NA
ATOM     30  C   UNL     1      45.391   4.572   9.279  0.00  0.00    +0.000 A 
ATOM     31  C   UNL     1      44.847   4.536  10.561  0.00  0.00    +0.000 A 
BRANCH  30  32
ATOM     32  O   UNL     1      46.124   5.621   8.808  0.00  0.00    +0.000 OA
ATOM     33  H   UNL     1      46.219   5.374   7.869  0.00  0.00    +0.000 HD
ENDBRANCH  30  32
ENDBRANCH  20  23
ENDBRANCH  18  19
ENDBRANCH   4  18
TORSDOF 9
ENDMDL
MODEL 5
REMARK VINA RESULT:    -6.916      1.751      2.344
REMARK INTER + INTRA:         -12.122
REMARK INTER:                 -10.614
REMARK INTRA:                  -1.508
REMARK UNBOUND:                -1.769
REMARK  Name = 
REMARK  10 active torsions:
REMARK  status: ('A' for Active; 'I' for Inactive)
REMARK    1  A    between atoms: C_1  and  O_2
REMARK    2  A    between atoms: O_2  and  C_3
REMARK    3  A    between atoms: C_7  and  C_8
REMARK    4  A    between atoms: C_8  and  C_9
REMARK    5  A    between atoms: C_9  and  C_10
REMARK    6  A    between atoms: C_10  and  C_11
REMARK    7  A    between atoms: C_14  and  C_15
REMARK    8  A    between atoms: C_15  and  N_16
REMARK    9  A    between atoms: C_17  and  C_19
REMARK   10  A    between atoms: C_26  and  O_27
REMARK                            x       y       z     vdW  Elec       q    Type
REMARK                         _______ _______ _______ _____ _____    ______ ____
ROOT
ATOM      1  C   UNL     1      44.582   5.880  11.398  0.00  0.00    +0.000 A 
ATOM      2  C   UNL     1      45.933   5.726  11.057  0.00  0.00    +0.000 A 
ATOM      3  C   UNL     1      46.920   6.491  11.690  0.00  0.00    +0.000 A 
ATOM      4  C   UNL     1      46.578   7.411  12.689  0.00  0.00    +0.000 A 
ATOM      5  C   UNL     1      45.224   7.584  13.008  0.00  0.00    +0.000 A 
ATOM      6  C   UNL     1      44.238   6.820  12.375  0.00  0.00    +0.000 A 
ENDROOT
BRANCH   1   7
ATOM      7  C   UNL     1      43.527   5.011  10.755  0.00  0.00    +0.000 C 
BRANCH   7   8
ATOM      8  C   UNL     1      43.952   4.544   9.361  0.00  0.00    +0.000 C 
BRANCH   8   9
ATOM      9  C   UNL     1      44.474   3.106   9.379  0.00  0.00    +0.000 C 
BRANCH   9  14
ATOM     10  C   UNL     1      46.993   1.474   7.261  0.00  0.00    +0.000 A 
ATOM     11  C   UNL     1      47.581   2.500   6.542  0.00  0.00    +0.000 A 
ATOM     12  C   UNL     1      47.143   3.799   6.774  0.00  0.00    +0.000 A 
ATOM     13  C   UNL     1      46.135   4.023   7.708  0.00  0.00    +0.000 A 
ATOM     14  C   UNL     1      45.601   2.934   8.393  0.00  0.00    +0.000 A 
ATOM     15  N   UNL     1      46.022   1.664   8.181  0.00  0.00    +0.000 NA
BRANCH  10  17
ATOM     16  C   UNL     1      46.622  -0.799   7.618  0.00  0.00    +0.000 C 
ATOM     17  O   UNL     1      47.433   0.195   6.994  0.00  0.00    +0.000 OA
ENDBRANCH  10  17
ENDBRANCH   9  14
ENDBRANCH   8   9
ENDBRANCH   7   8
ENDBRANCH   1   7
BRANCH   4  18
ATOM     18  C   UNL     1      47.643   8.211  13.397  0.00  0.00    +0.000 C 
BRANCH  18  19
ATOM     19  N   UNL     1      47.982   7.625  14.669  0.00  0.00    +0.000 N 
ATOM     20  C   UNL     1      49.238   7.131  14.919  0.00  0.00    +0.000 C 
ATOM     21  O   UNL     1      50.187   7.313  14.162  0.00  0.00    +0.000 OA
ATOM     22  H   UNL     1      47.217   7.363  15.276  0.00  0.00    +0.000 HD
BRANCH  20  23
ATOM     23  C   UNL     1      49.386   6.412  16.184  0.00  0.00    +0.000 A 
ATOM     24  C   UNL     1      50.354   6.784  17.106  0.00  0.00    +0.000 A 
ATOM     25  S   UNL     1      50.308   5.855  18.537  0.00  0.00    +0.000 S 
ATOM     26  C   UNL     1      49.041   4.895  17.935  0.00  0.00    +0.000 A 
ATOM     27  N   UNL     1      48.532   3.892  18.673  0.00  0.00    +0.000 NA
ATOM     28  C   UNL     1      47.566   3.221  18.039  0.00  0.00    +0.000 A 
ATOM     29  N   UNL     1      47.096   3.440  16.802  0.00  0.00    +0.000 NA
ATOM     30  C   UNL     1      47.642   4.452  16.127  0.00  0.00    +0.000 A 
ATOM     31  C   UNL     1      48.642   5.264  16.659  0.00  0.00    +0.000 A 
BRANCH  30  32
ATOM     32  O   UNL     1      47.125   4.628  14.878  0.00  0.00    +0.000 OA
ATOM     33  H   UNL     1      46.542   3.849  14.808  0.00  0.00    +0.000 HD
ENDBRANCH  30  32
ENDBRANCH  20  23
ENDBRANCH  18  19
ENDBRANCH   4  18
TORSDOF 9
ENDMDL
MODEL 6
REMARK VINA RESULT:    -6.487      2.297      3.146
REMARK INTER + INTRA:         -11.479
REMARK INTER:                 -10.573
REMARK INTRA:                  -0.906
REMARK UNBOUND:                -1.769
REMARK  Name = 
REMARK  10 active torsions:
REMARK  status: ('A' for Active; 'I' for Inactive)
REMARK    1  A    between atoms: C_1  and  O_2
REMARK    2  A    between atoms: O_2  and  C_3
REMARK    3  A    between atoms: C_7  and  C_8
REMARK    4  A    between atoms: C_8  and  C_9
REMARK    5  A    between atoms: C_9  and  C_10
REMARK    6  A    between atoms: C_10  and  C_11
REMARK    7  A    between atoms: C_14  and  C_15
REMARK    8  A    between atoms: C_15  and  N_16
REMARK    9  A    between atoms: C_17  and  C_19
REMARK   10  A    between atoms: C_26  and  O_27
REMARK                            x       y       z     vdW  Elec       q    Type
REMARK                         _______ _______ _______ _____ _____    ______ ____
ROOT
ATOM      1  C   UNL     1      46.455   6.537  12.106  0.00  0.00    +0.000 A 
ATOM      2  C   UNL     1      46.583   5.807  13.297  0.00  0.00    +0.000 A 
ATOM      3  C   UNL     1      47.694   5.987  14.128  0.00  0.00    +0.000 A 
ATOM      4  C   UNL     1      48.691   6.913  13.796  0.00  0.00    +0.000 A 
ATOM      5  C   UNL     1      48.577   7.620  12.591  0.00  0.00    +0.000 A 
ATOM      6  C   UNL     1      47.466   7.440  11.760  0.00  0.00    +0.000 A 
ENDROOT
BRANCH   1   7
ATOM      7  C   UNL     1      45.226   6.383  11.242  0.00  0.00    +0.000 C 
BRANCH   7   8
ATOM      8  C   UNL     1      44.606   4.991  11.384  0.00  0.00    +0.000 C 
BRANCH   8   9
ATOM      9  C   UNL     1      43.924   4.540  10.091  0.00  0.00    +0.000 C 
BRANCH   9  14
ATOM     10  C   UNL     1      45.767   1.845   8.409  0.00  0.00    +0.000 A 
ATOM     11  C   UNL     1      46.591   2.483   7.498  0.00  0.00    +0.000 A 
ATOM     12  C   UNL     1      46.555   3.872   7.441  0.00  0.00    +0.000 A 
ATOM     13  C   UNL     1      45.699   4.567   8.291  0.00  0.00    +0.000 A 
ATOM     14  C   UNL     1      44.907   3.847   9.182  0.00  0.00    +0.000 A 
ATOM     15  N   UNL     1      44.936   2.494   9.251  0.00  0.00    +0.000 NA
BRANCH  10  17
ATOM     16  C   UNL     1      46.851  -0.056   7.604  0.00  0.00    +0.000 C 
ATOM     17  O   UNL     1      45.809   0.466   8.426  0.00  0.00    +0.000 OA
ENDBRANCH  10  17
ENDBRANCH   9  14
ENDBRANCH   8   9
ENDBRANCH   7   8
ENDBRANCH   1   7
BRANCH   4  18
ATOM     18  C   UNL     1      49.872   7.133  14.708  0.00  0.00    +0.000 C 
BRANCH  18  19
ATOM     19  N   UNL     1      49.449   7.449  16.048  0.00  0.00    +0.000 N 
ATOM     20  C   UNL     1      49.397   6.490  17.029  0.00  0.00    +0.000 C 
ATOM     21  O   UNL     1      49.867   5.366  16.885  0.00  0.00    +0.000 OA
ATOM     22  H   UNL     1      48.961   8.324  16.185  0.00  0.00    +0.000 HD
BRANCH  20  23
ATOM     23  C   UNL     1      48.786   6.917  18.288  0.00  0.00    +0.000 A 
ATOM     24  C   UNL     1      48.330   8.217  18.452  0.00  0.00    +0.000 A 
ATOM     25  S   UNL     1      47.595   8.481  19.970  0.00  0.00    +0.000 S 
ATOM     26  C   UNL     1      47.926   6.889  20.466  0.00  0.00    +0.000 A 
ATOM     27  N   UNL     1      47.561   6.463  21.689  0.00  0.00    +0.000 NA
ATOM     28  C   UNL     1      47.923   5.199  21.926  0.00  0.00    +0.000 A 
ATOM     29  N   UNL     1      48.588   4.372  21.106  0.00  0.00    +0.000 NA
ATOM     30  C   UNL     1      48.916   4.857  19.907  0.00  0.00    +0.000 A 
ATOM     31  C   UNL     1      48.587   6.148  19.498  0.00  0.00    +0.000 A 
BRANCH  30  32
ATOM     32  O   UNL     1      49.588   3.972  19.116  0.00  0.00    +0.000 OA
ATOM     33  H   UNL     1      49.193   3.129  19.406  0.00  0.00    +0.000 HD
ENDBRANCH  30  32
ENDBRANCH  20  23
ENDBRANCH  18  19
ENDBRANCH   4  18
TORSDOF 9
ENDMDL
MODEL 7
REMARK VINA RESULT:    -6.323      3.423      3.958
REMARK INTER + INTRA:         -11.234
REMARK INTER:                 -10.542
REMARK INTRA:                  -0.692
REMARK UNBOUND:                -1.769
REMARK  Name = 
REMARK  10 active torsions:
REMARK  status: ('A' for Active; 'I' for Inactive)
REMARK    1  A    between atoms: C_1  and  O_2
REMARK    2  A    between atoms: O_2  and  C_3
REMARK    3  A    between atoms: C_7  and  C_8
REMARK    4  A    between atoms: C_8  and  C_9
REMARK    5  A    between atoms: C_9  and  C_10
REMARK    6  A    between atoms: C_10  and  C_11
REMARK    7  A    between atoms: C_14  and  C_15
REMARK    8  A    between atoms: C_15  and  N_16
REMARK    9  A    between atoms: C_17  and  C_19
REMARK   10  A    between atoms: C_26  and  O_27
REMARK                            x       y       z     vdW  Elec       q    Type
REMARK                         _______ _______ _______ _____ _____    ______ ____
ROOT
ATOM      1  C   UNL     1      45.879   5.219  12.590  0.00  0.00    +0.000 A 
ATOM      2  C   UNL     1      47.039   5.147  13.375  0.00  0.00    +0.000 A 
ATOM      3  C   UNL     1      47.652   6.311  13.852  0.00  0.00    +0.000 A 
ATOM      4  C   UNL     1      47.108   7.570  13.569  0.00  0.00    +0.000 A 
ATOM      5  C   UNL     1      45.966   7.642  12.761  0.00  0.00    +0.000 A 
ATOM      6  C   UNL     1      45.353   6.479  12.284  0.00  0.00    +0.000 A 
ENDROOT
BRANCH   1   7
ATOM      7  C   UNL     1      45.187   3.959  12.128  0.00  0.00    +0.000 C 
BRANCH   7   8
ATOM      8  C   UNL     1      43.743   4.232  11.700  0.00  0.00    +0.000 C 
BRANCH   8   9
ATOM      9  C   UNL     1      43.658   4.666  10.235  0.00  0.00    +0.000 C 
BRANCH   9  14
ATOM     10  C   UNL     1      45.893   3.519   7.556  0.00  0.00    +0.000 A 
ATOM     11  C   UNL     1      46.023   2.155   7.753  0.00  0.00    +0.000 A 
ATOM     12  C   UNL     1      45.329   1.575   8.808  0.00  0.00    +0.000 A 
ATOM     13  C   UNL     1      44.537   2.376   9.627  0.00  0.00    +0.000 A 
ATOM     14  C   UNL     1      44.457   3.739   9.355  0.00  0.00    +0.000 A 
ATOM     15  N   UNL     1      45.124   4.317   8.328  0.00  0.00    +0.000 NA
BRANCH  10  17
ATOM     16  C   UNL     1      47.004   3.093   5.552  0.00  0.00    +0.000 C 
ATOM     17  O   UNL     1      46.610   4.069   6.514  0.00  0.00    +0.000 OA
ENDBRANCH  10  17
ENDBRANCH   9  14
ENDBRANCH   8   9
ENDBRANCH   7   8
ENDBRANCH   1   7
BRANCH   4  18
ATOM     18  C   UNL     1      47.747   8.824  14.111  0.00  0.00    +0.000 C 
BRANCH  18  19
ATOM     19  N   UNL     1      47.564   8.934  15.536  0.00  0.00    +0.000 N 
ATOM     20  C   UNL     1      48.578   8.644  16.414  0.00  0.00    +0.000 C 
ATOM     21  O   UNL     1      49.735   8.451  16.054  0.00  0.00    +0.000 OA
ATOM     22  H   UNL     1      46.613   8.987  15.877  0.00  0.00    +0.000 HD
BRANCH  20  23
ATOM     23  C   UNL     1      48.195   8.632  17.827  0.00  0.00    +0.000 A 
ATOM     24  C   UNL     1      48.211   7.452  18.558  0.00  0.00    +0.000 A 
ATOM     25  S   UNL     1      47.794   7.677  20.198  0.00  0.00    +0.000 S 
ATOM     26  C   UNL     1      47.519   9.337  19.955  0.00  0.00    +0.000 A 
ATOM     27  N   UNL     1      47.123  10.121  20.974  0.00  0.00    +0.000 NA
ATOM     28  C   UNL     1      46.926  11.389  20.605  0.00  0.00    +0.000 A 
ATOM     29  N   UNL     1      47.069  11.915  19.379  0.00  0.00    +0.000 NA
ATOM     30  C   UNL     1      47.468  11.082  18.416  0.00  0.00    +0.000 A 
ATOM     31  C   UNL     1      47.741   9.735  18.646  0.00  0.00    +0.000 A 
BRANCH  30  32
ATOM     32  O   UNL     1      47.597  11.672  17.193  0.00  0.00    +0.000 OA
ATOM     33  H   UNL     1      48.473  11.341  16.920  0.00  0.00    +0.000 HD
ENDBRANCH  30  32
ENDBRANCH  20  23
ENDBRANCH  18  19
ENDBRANCH   4  18
TORSDOF 9
ENDMDL
MODEL 8
REMARK VINA RESULT:    -6.145      3.561      4.918
REMARK INTER + INTRA:         -10.968
REMARK INTER:                  -9.619
REMARK INTRA:                  -1.349
REMARK UNBOUND:                -1.769
REMARK  Name = 
REMARK  10 active torsions:
REMARK  status: ('A' for Active; 'I' for Inactive)
REMARK    1  A    between atoms: C_1  and  O_2
REMARK    2  A    between atoms: O_2  and  C_3
REMARK    3  A    between atoms: C_7  and  C_8
REMARK    4  A    between atoms: C_8  and  C_9
REMARK    5  A    between atoms: C_9  and  C_10
REMARK    6  A    between atoms: C_10  and  C_11
REMARK    7  A    between atoms: C_14  and  C_15
REMARK    8  A    between atoms: C_15  and  N_16
REMARK    9  A    between atoms: C_17  and  C_19
REMARK   10  A    between atoms: C_26  and  O_27
REMARK                            x       y       z     vdW  Elec       q    Type
REMARK                         _______ _______ _______ _____ _____    ______ ____
ROOT
ATOM      1  C   UNL     1      44.480   5.713  11.876  0.00  0.00    +0.000 A 
ATOM      2  C   UNL     1      44.485   7.093  11.628  0.00  0.00    +0.000 A 
ATOM      3  C   UNL     1      45.458   7.918  12.203  0.00  0.00    +0.000 A 
ATOM      4  C   UNL     1      46.458   7.379  13.021  0.00  0.00    +0.000 A 
ATOM      5  C   UNL     1      46.435   6.003  13.292  0.00  0.00    +0.000 A 
ATOM      6  C   UNL     1      45.462   5.178  12.718  0.00  0.00    +0.000 A 
ENDROOT
BRANCH   1   7
ATOM      7  C   UNL     1      43.465   4.818  11.206  0.00  0.00    +0.000 C 
BRANCH   7   8
ATOM      8  C   UNL     1      43.915   4.403   9.804  0.00  0.00    +0.000 C 
BRANCH   8   9
ATOM      9  C   UNL     1      44.634   3.052   9.816  0.00  0.00    +0.000 C 
BRANCH   9  14
ATOM     10  C   UNL     1      46.836   1.599   7.260  0.00  0.00    +0.000 A 
ATOM     11  C   UNL     1      47.338   2.681   6.558  0.00  0.00    +0.000 A 
ATOM     12  C   UNL     1      46.949   3.956   6.951  0.00  0.00    +0.000 A 
ATOM     13  C   UNL     1      46.075   4.103   8.024  0.00  0.00    +0.000 A 
ATOM     14  C   UNL     1      45.621   2.961   8.680  0.00  0.00    +0.000 A 
ATOM     15  N   UNL     1      45.996   1.713   8.311  0.00  0.00    +0.000 NA
BRANCH  10  17
ATOM     16  C   UNL     1      46.764  -0.688   7.703  0.00  0.00    +0.000 C 
ATOM     17  O   UNL     1      47.223   0.345   6.834  0.00  0.00    +0.000 OA
ENDBRANCH  10  17
ENDBRANCH   9  14
ENDBRANCH   8   9
ENDBRANCH   7   8
ENDBRANCH   1   7
BRANCH   4  18
ATOM     18  C   UNL     1      47.528   8.261  13.613  0.00  0.00    +0.000 C 
BRANCH  18  19
ATOM     19  N   UNL     1      48.322   8.885  12.586  0.00  0.00    +0.000 N 
ATOM     20  C   UNL     1      49.692   8.808  12.593  0.00  0.00    +0.000 C 
ATOM     21  O   UNL     1      50.313   8.069  13.351  0.00  0.00    +0.000 OA
ATOM     22  H   UNL     1      47.867   9.581  12.009  0.00  0.00    +0.000 HD
BRANCH  20  23
ATOM     23  C   UNL     1      50.368   9.633  11.591  0.00  0.00    +0.000 A 
ATOM     24  C   UNL     1      50.004  10.957  11.396  0.00  0.00    +0.000 A 
ATOM     25  S   UNL     1      50.963  11.750  10.228  0.00  0.00    +0.000 S 
ATOM     26  C   UNL     1      51.841  10.330   9.908  0.00  0.00    +0.000 A 
ATOM     27  N   UNL     1      52.821  10.324   8.987  0.00  0.00    +0.000 NA
ATOM     28  C   UNL     1      53.387   9.122   8.841  0.00  0.00    +0.000 A 
ATOM     29  N   UNL     1      53.074   7.988   9.486  0.00  0.00    +0.000 NA
ATOM     30  C   UNL     1      52.095   8.066  10.389  0.00  0.00    +0.000 A 
ATOM     31  C   UNL     1      51.424   9.252  10.676  0.00  0.00    +0.000 A 
BRANCH  30  32
ATOM     32  O   UNL     1      51.822   6.884  11.012  0.00  0.00    +0.000 OA
ATOM     33  H   UNL     1      51.513   6.345  10.261  0.00  0.00    +0.000 HD
ENDBRANCH  30  32
ENDBRANCH  20  23
ENDBRANCH  18  19
ENDBRANCH   4  18
TORSDOF 9
ENDMDL
MODEL 9
REMARK VINA RESULT:    -5.987      3.468      7.581
REMARK INTER + INTRA:         -10.731
REMARK INTER:                  -8.741
REMARK INTRA:                  -1.990
REMARK UNBOUND:                -1.769
REMARK  Name = 
REMARK  10 active torsions:
REMARK  status: ('A' for Active; 'I' for Inactive)
REMARK    1  A    between atoms: C_1  and  O_2
REMARK    2  A    between atoms: O_2  and  C_3
REMARK    3  A    between atoms: C_7  and  C_8
REMARK    4  A    between atoms: C_8  and  C_9
REMARK    5  A    between atoms: C_9  and  C_10
REMARK    6  A    between atoms: C_10  and  C_11
REMARK    7  A    between atoms: C_14  and  C_15
REMARK    8  A    between atoms: C_15  and  N_16
REMARK    9  A    between atoms: C_17  and  C_19
REMARK   10  A    between atoms: C_26  and  O_27
REMARK                            x       y       z     vdW  Elec       q    Type
REMARK                         _______ _______ _______ _____ _____    ______ ____
ROOT
ATOM      1  C   UNL     1      49.941   8.687  16.615  0.00  0.00    +0.000 A 
ATOM      2  C   UNL     1      49.060   9.719  16.264  0.00  0.00    +0.000 A 
ATOM      3  C   UNL     1      48.632   9.873  14.940  0.00  0.00    +0.000 A 
ATOM      4  C   UNL     1      49.063   8.988  13.944  0.00  0.00    +0.000 A 
ATOM      5  C   UNL     1      49.967   7.974  14.292  0.00  0.00    +0.000 A 
ATOM      6  C   UNL     1      50.394   7.820  15.615  0.00  0.00    +0.000 A 
ENDROOT
BRANCH   1   7
ATOM      7  C   UNL     1      50.352   8.488  18.055  0.00  0.00    +0.000 C 
BRANCH   7   8
ATOM      8  C   UNL     1      49.519   7.398  18.735  0.00  0.00    +0.000 C 
BRANCH   8   9
ATOM      9  C   UNL     1      50.215   6.036  18.679  0.00  0.00    +0.000 C 
BRANCH   9  14
ATOM     10  C   UNL     1      49.199   3.001  16.878  0.00  0.00    +0.000 A 
ATOM     11  C   UNL     1      47.816   3.043  16.848  0.00  0.00    +0.000 A 
ATOM     12  C   UNL     1      47.180   4.132  17.434  0.00  0.00    +0.000 A 
ATOM     13  C   UNL     1      47.946   5.131  18.028  0.00  0.00    +0.000 A 
ATOM     14  C   UNL     1      49.333   5.013  18.008  0.00  0.00    +0.000 A 
ATOM     15  N   UNL     1      49.966   3.961  17.437  0.00  0.00    +0.000 NA
BRANCH  10  17
ATOM     16  C   UNL     1      50.943   1.464  17.043  0.00  0.00    +0.000 C 
ATOM     17  O   UNL     1      49.800   1.898  16.308  0.00  0.00    +0.000 OA
ENDBRANCH  10  17
ENDBRANCH   9  14
ENDBRANCH   8   9
ENDBRANCH   7   8
ENDBRANCH   1   7
BRANCH   4  18
ATOM     18  C   UNL     1      48.577   9.130  12.524  0.00  0.00    +0.000 C 
BRANCH  18  19
ATOM     19  N   UNL     1      47.683   8.059  12.164  0.00  0.00    +0.000 N 
ATOM     20  C   UNL     1      46.363   8.069  12.540  0.00  0.00    +0.000 C 
ATOM     21  O   UNL     1      45.821   9.051  13.039  0.00  0.00    +0.000 OA
ATOM     22  H   UNL     1      48.102   7.194  11.849  0.00  0.00    +0.000 HD
BRANCH  20  23
ATOM     23  C   UNL     1      45.624   6.839  12.255  0.00  0.00    +0.000 A 
ATOM     24  C   UNL     1      44.443   6.871  11.527  0.00  0.00    +0.000 A 
ATOM     25  S   UNL     1      43.782   5.321  11.257  0.00  0.00    +0.000 S 
ATOM     26  C   UNL     1      45.017   4.579  12.158  0.00  0.00    +0.000 A 
ATOM     27  N   UNL     1      45.035   3.245  12.326  0.00  0.00    +0.000 NA
ATOM     28  C   UNL     1      46.055   2.832  13.083  0.00  0.00    +0.000 A 
ATOM     29  N   UNL     1      46.999   3.587  13.665  0.00  0.00    +0.000 NA
ATOM     30  C   UNL     1      46.924   4.902  13.455  0.00  0.00    +0.000 A 
ATOM     31  C   UNL     1      45.935   5.487  12.667  0.00  0.00    +0.000 A 
BRANCH  30  32
ATOM     32  O   UNL     1      47.909   5.618  14.068  0.00  0.00    +0.000 OA
ATOM     33  H   UNL     1      47.442   5.930  14.866  0.00  0.00    +0.000 HD
ENDBRANCH  30  32
ENDBRANCH  20  23
ENDBRANCH  18  19
ENDBRANCH   4  18
TORSDOF 9
ENDMDL
