MODEL 1
REMARK VINA RESULT:    -8.455      0.000      0.000
REMARK INTER + INTRA:         -10.935
REMARK INTER:                 -10.926
REMARK INTRA:                  -0.009
REMARK UNBOUND:                -0.009
REMARK  Name = 
REMARK  5 active torsions:
REMARK  status: ('A' for Active; 'I' for Inactive)
REMARK    1  A    between atoms: C_2  and  C_18
REMARK    2  A    between atoms: N_3  and  C_4
REMARK    3  A    between atoms: C_4  and  C_5
REMARK    4  A    between atoms: C_8  and  C_9
REMARK    5  A    between atoms: C_9  and  C_10
REMARK                            x       y       z     vdW  Elec       q    Type
REMARK                         _______ _______ _______ _____ _____    ______ ____
ROOT
ATOM      1  O   UNL     1      46.687   3.152  13.869  0.00  0.00    +0.000 OA
ATOM      2  C   UNL     1      46.423   4.277  14.266  0.00  0.00    +0.000 C 
ATOM      3  N   UNL     1      45.191   4.854  14.087  0.00  0.00    +0.000 N 
ATOM      4  H   UNL     1      45.068   5.846  14.262  0.00  0.00    +0.000 HD
ENDROOT
BRANCH   2   5
ATOM      5  C   UNL     1      47.408   5.069  15.013  0.00  0.00    +0.000 A 
ATOM      6  C   UNL     1      48.098   6.099  14.383  0.00  0.00    +0.000 A 
ATOM      7  S   UNL     1      49.162   6.941  15.416  0.00  0.00    +0.000 S 
ATOM      8  C   UNL     1      48.710   5.986  16.746  0.00  0.00    +0.000 A 
ATOM      9  N   UNL     1      49.213   6.223  17.987  0.00  0.00    +0.000 NA
ATOM     10  C   UNL     1      48.758   5.450  18.911  0.00  0.00    +0.000 A 
ATOM     11  N   UNL     1      47.857   4.434  18.705  0.00  0.00    +0.000 N 
ATOM     12  C   UNL     1      47.368   4.116  17.460  0.00  0.00    +0.000 A 
ATOM     13  O   UNL     1      46.642   3.143  17.297  0.00  0.00    +0.000 OA
ATOM     14  C   UNL     1      47.808   5.003  16.399  0.00  0.00    +0.000 A 
ATOM     15  H   UNL     1      47.571   3.835  19.463  0.00  0.00    +0.000 HD
ENDBRANCH   2   5
BRANCH   3  16
ATOM     16  C   UNL     1      44.218   4.218  13.233  0.00  0.00    +0.000 C 
BRANCH  16  17
ATOM     17  C   UNL     1      44.588   4.313  11.775  0.00  0.00    +0.000 A 
ATOM     18  C   UNL     1      45.417   5.344  11.318  0.00  0.00    +0.000 A 
ATOM     19  C   UNL     1      45.799   5.410   9.973  0.00  0.00    +0.000 A 
ATOM     20  C   UNL     1      45.348   4.453   9.054  0.00  0.00    +0.000 A 
ATOM     21  C   UNL     1      44.495   3.440   9.506  0.00  0.00    +0.000 A 
ATOM     22  C   UNL     1      44.109   3.377  10.849  0.00  0.00    +0.000 A 
BRANCH  20  23
ATOM     23  C   UNL     1      45.751   4.525   7.601  0.00  0.00    +0.000 C 
BRANCH  23  24
ATOM     24  C   UNL     1      46.039   3.164   6.921  0.00  0.00    +0.000 C 
ATOM     25  C   UNL     1      46.467   2.100   7.947  0.00  0.00    +0.000 C 
ATOM     26  C   UNL     1      47.200   0.917   7.334  0.00  0.00    +0.000 C 
ATOM     27  O   UNL     1      48.265   1.361   6.501  0.00  0.00    +0.000 OA
ATOM     28  C   UNL     1      47.769   2.076   5.375  0.00  0.00    +0.000 C 
ATOM     29  C   UNL     1      47.099   3.367   5.820  0.00  0.00    +0.000 C 
ENDBRANCH  23  24
ENDBRANCH  20  23
ENDBRANCH  16  17
ENDBRANCH   3  16
TORSDOF 5
ENDMDL
MODEL 2
REMARK VINA RESULT:    -8.446      1.620      2.272
REMARK INTER + INTRA:         -10.924
REMARK INTER:                 -10.000
REMARK INTRA:                  -0.924
REMARK UNBOUND:                -0.009
REMARK  Name = 
REMARK  5 active torsions:
REMARK  status: ('A' for Active; 'I' for Inactive)
REMARK    1  A    between atoms: C_2  and  C_18
REMARK    2  A    between atoms: N_3  and  C_4
REMARK    3  A    between atoms: C_4  and  C_5
REMARK    4  A    between atoms: C_8  and  C_9
REMARK    5  A    between atoms: C_9  and  C_10
REMARK                            x       y       z     vdW  Elec       q    Type
REMARK                         _______ _______ _______ _____ _____    ______ ____
ROOT
ATOM      1  O   UNL     1      48.136   7.770  12.930  0.00  0.00    +0.000 OA
ATOM      2  C   UNL     1      47.533   7.170  13.807  0.00  0.00    +0.000 C 
ATOM      3  N   UNL     1      46.201   6.855  13.705  0.00  0.00    +0.000 N 
ATOM      4  H   UNL     1      45.696   6.526  14.521  0.00  0.00    +0.000 HD
ENDROOT
BRANCH   2   5
ATOM      5  C   UNL     1      48.220   6.700  15.016  0.00  0.00    +0.000 A 
ATOM      6  C   UNL     1      49.125   7.528  15.671  0.00  0.00    +0.000 A 
ATOM      7  S   UNL     1      49.786   6.836  17.083  0.00  0.00    +0.000 S 
ATOM      8  C   UNL     1      48.860   5.426  16.890  0.00  0.00    +0.000 A 
ATOM      9  N   UNL     1      48.900   4.425  17.808  0.00  0.00    +0.000 NA
ATOM     10  C   UNL     1      48.120   3.430  17.559  0.00  0.00    +0.000 A 
ATOM     11  N   UNL     1      47.313   3.331  16.452  0.00  0.00    +0.000 N 
ATOM     12  C   UNL     1      47.283   4.288  15.466  0.00  0.00    +0.000 A 
ATOM     13  O   UNL     1      46.626   4.122  14.445  0.00  0.00    +0.000 OA
ATOM     14  C   UNL     1      48.101   5.454  15.737  0.00  0.00    +0.000 A 
ATOM     15  H   UNL     1      46.756   2.506  16.291  0.00  0.00    +0.000 HD
ENDBRANCH   2   5
BRANCH   3  16
ATOM     16  C   UNL     1      45.413   7.410  12.631  0.00  0.00    +0.000 C 
BRANCH  16  17
ATOM     17  C   UNL     1      45.259   6.448  11.480  0.00  0.00    +0.000 A 
ATOM     18  C   UNL     1      46.231   6.381  10.476  0.00  0.00    +0.000 A 
ATOM     19  C   UNL     1      46.114   5.458   9.430  0.00  0.00    +0.000 A 
ATOM     20  C   UNL     1      45.014   4.593   9.360  0.00  0.00    +0.000 A 
ATOM     21  C   UNL     1      44.027   4.682  10.348  0.00  0.00    +0.000 A 
ATOM     22  C   UNL     1      44.142   5.607  11.391  0.00  0.00    +0.000 A 
BRANCH  20  23
ATOM     23  C   UNL     1      44.879   3.602   8.229  0.00  0.00    +0.000 C 
BRANCH  23  24
ATOM     24  C   UNL     1      46.178   2.856   7.838  0.00  0.00    +0.000 C 
ATOM     25  C   UNL     1      46.541   3.090   6.361  0.00  0.00    +0.000 C 
ATOM     26  C   UNL     1      47.498   2.053   5.793  0.00  0.00    +0.000 C 
ATOM     27  O   UNL     1      47.028   0.736   6.059  0.00  0.00    +0.000 OA
ATOM     28  C   UNL     1      47.024   0.467   7.456  0.00  0.00    +0.000 C 
ATOM     29  C   UNL     1      46.014   1.358   8.165  0.00  0.00    +0.000 C 
ENDBRANCH  23  24
ENDBRANCH  20  23
ENDBRANCH  16  17
ENDBRANCH   3  16
TORSDOF 5
ENDMDL
MODEL 3
REMARK VINA RESULT:    -7.946      2.094      3.067
REMARK INTER + INTRA:         -10.278
REMARK INTER:                  -9.815
REMARK INTRA:                  -0.463
REMARK UNBOUND:                -0.009
REMARK  Name = 
REMARK  5 active torsions:
REMARK  status: ('A' for Active; 'I' for Inactive)
REMARK    1  A    between atoms: C_2  and  C_18
REMARK    2  A    between atoms: N_3  and  C_4
REMARK    3  A    between atoms: C_4  and  C_5
REMARK    4  A    between atoms: C_8  and  C_9
REMARK    5  A    between atoms: C_9  and  C_10
REMARK                            x       y       z     vdW  Elec       q    Type
REMARK                         _______ _______ _______ _____ _____    ______ ____
ROOT
ATOM      1  O   UNL     1      50.277   6.577  15.318  0.00  0.00    +0.000 OA
ATOM      2  C   UNL     1      49.127   6.687  15.718  0.00  0.00    +0.000 C 
ATOM      3  N   UNL     1      48.047   6.682  14.871  0.00  0.00    +0.000 N 
ATOM      4  H   UNL     1      47.134   6.958  15.216  0.00  0.00    +0.000 HD
ENDROOT
BRANCH   2   5
ATOM      5  C   UNL     1      48.827   6.781  17.151  0.00  0.00    +0.000 A 
ATOM      6  C   UNL     1      48.396   7.985  17.696  0.00  0.00    +0.000 A 
ATOM      7  S   UNL     1      48.047   7.894  19.364  0.00  0.00    +0.000 S 
ATOM      8  C   UNL     1      48.422   6.239  19.406  0.00  0.00    +0.000 A 
ATOM      9  N   UNL     1      48.275   5.512  20.544  0.00  0.00    +0.000 NA
ATOM     10  C   UNL     1      48.558   4.260  20.428  0.00  0.00    +0.000 A 
ATOM     11  N   UNL     1      49.005   3.667  19.273  0.00  0.00    +0.000 N 
ATOM     12  C   UNL     1      49.228   4.370  18.114  0.00  0.00    +0.000 A 
ATOM     13  O   UNL     1      49.719   3.829  17.131  0.00  0.00    +0.000 OA
ATOM     14  C   UNL     1      48.863   5.772  18.185  0.00  0.00    +0.000 A 
ATOM     15  H   UNL     1      49.252   2.689  19.256  0.00  0.00    +0.000 HD
ENDBRANCH   2   5
BRANCH   3  16
ATOM     16  C   UNL     1      48.253   6.752  13.445  0.00  0.00    +0.000 C 
BRANCH  16  17
ATOM     17  C   UNL     1      47.112   6.139  12.672  0.00  0.00    +0.000 A 
ATOM     18  C   UNL     1      46.605   6.773  11.532  0.00  0.00    +0.000 A 
ATOM     19  C   UNL     1      45.577   6.185  10.787  0.00  0.00    +0.000 A 
ATOM     20  C   UNL     1      45.024   4.956  11.174  0.00  0.00    +0.000 A 
ATOM     21  C   UNL     1      45.512   4.338  12.332  0.00  0.00    +0.000 A 
ATOM     22  C   UNL     1      46.537   4.928  13.079  0.00  0.00    +0.000 A 
BRANCH  20  23
ATOM     23  C   UNL     1      43.910   4.322  10.378  0.00  0.00    +0.000 C 
BRANCH  23  24
ATOM     24  C   UNL     1      44.351   3.550   9.111  0.00  0.00    +0.000 C 
ATOM     25  C   UNL     1      44.815   2.123   9.453  0.00  0.00    +0.000 C 
ATOM     26  C   UNL     1      45.680   1.486   8.377  0.00  0.00    +0.000 C 
ATOM     27  O   UNL     1      46.745   2.354   8.006  0.00  0.00    +0.000 OA
ATOM     28  C   UNL     1      46.248   3.536   7.389  0.00  0.00    +0.000 C 
ATOM     29  C   UNL     1      45.446   4.358   8.386  0.00  0.00    +0.000 C 
ENDBRANCH  23  24
ENDBRANCH  20  23
ENDBRANCH  16  17
ENDBRANCH   3  16
TORSDOF 5
ENDMDL
MODEL 4
REMARK VINA RESULT:    -7.774      2.191      3.071
REMARK INTER + INTRA:         -10.055
REMARK INTER:                  -9.736
REMARK INTRA:                  -0.319
REMARK UNBOUND:                -0.009
REMARK  Name = 
REMARK  5 active torsions:
REMARK  status: ('A' for Active; 'I' for Inactive)
REMARK    1  A    between atoms: C_2  and  C_18
REMARK    2  A    between atoms: N_3  and  C_4
REMARK    3  A    between atoms: C_4  and  C_5
REMARK    4  A    between atoms: C_8  and  C_9
REMARK    5  A    between atoms: C_9  and  C_10
REMARK                            x       y       z     vdW  Elec       q    Type
REMARK                         _______ _______ _______ _____ _____    ______ ____
ROOT
ATOM      1  O   UNL     1      49.595   6.536  15.316  0.00  0.00    +0.000 OA
ATOM      2  C   UNL     1      48.579   5.978  15.705  0.00  0.00    +0.000 C 
ATOM      3  N   UNL     1      47.490   5.779  14.895  0.00  0.00    +0.000 N 
ATOM      4  H   UNL     1      46.608   5.484  15.299  0.00  0.00    +0.000 HD
ENDROOT
BRANCH   2   5
ATOM      5  C   UNL     1      48.484   5.438  17.066  0.00  0.00    +0.000 A 
ATOM      6  C   UNL     1      48.582   4.068  17.282  0.00  0.00    +0.000 A 
ATOM      7  S   UNL     1      48.501   3.627  18.928  0.00  0.00    +0.000 S 
ATOM      8  C   UNL     1      48.370   5.251  19.410  0.00  0.00    +0.000 A 
ATOM      9  N   UNL     1      48.324   5.594  20.724  0.00  0.00    +0.000 NA
ATOM     10  C   UNL     1      48.263   6.860  20.951  0.00  0.00    +0.000 A 
ATOM     11  N   UNL     1      48.218   7.826  19.975  0.00  0.00    +0.000 N 
ATOM     12  C   UNL     1      48.201   7.526  18.634  0.00  0.00    +0.000 A 
ATOM     13  O   UNL     1      48.062   8.405  17.792  0.00  0.00    +0.000 OA
ATOM     14  C   UNL     1      48.330   6.113  18.334  0.00  0.00    +0.000 A 
ATOM     15  H   UNL     1      48.128   8.800  20.216  0.00  0.00    +0.000 HD
ENDBRANCH   2   5
BRANCH   3  16
ATOM     16  C   UNL     1      47.433   6.411  13.599  0.00  0.00    +0.000 C 
BRANCH  16  17
ATOM     17  C   UNL     1      46.582   5.639  12.623  0.00  0.00    +0.000 A 
ATOM     18  C   UNL     1      46.212   4.317  12.895  0.00  0.00    +0.000 A 
ATOM     19  C   UNL     1      45.385   3.612  12.012  0.00  0.00    +0.000 A 
ATOM     20  C   UNL     1      44.922   4.211  10.833  0.00  0.00    +0.000 A 
ATOM     21  C   UNL     1      45.317   5.523  10.548  0.00  0.00    +0.000 A 
ATOM     22  C   UNL     1      46.148   6.226  11.428  0.00  0.00    +0.000 A 
BRANCH  20  23
ATOM     23  C   UNL     1      44.036   3.452   9.875  0.00  0.00    +0.000 C 
BRANCH  23  24
ATOM     24  C   UNL     1      44.721   2.971   8.573  0.00  0.00    +0.000 C 
ATOM     25  C   UNL     1      45.516   1.672   8.800  0.00  0.00    +0.000 C 
ATOM     26  C   UNL     1      46.566   1.402   7.734  0.00  0.00    +0.000 C 
ATOM     27  O   UNL     1      47.392   2.545   7.540  0.00  0.00    +0.000 OA
ATOM     28  C   UNL     1      46.642   3.633   7.012  0.00  0.00    +0.000 C 
ATOM     29  C   UNL     1      45.608   4.105   8.023  0.00  0.00    +0.000 C 
ENDBRANCH  23  24
ENDBRANCH  20  23
ENDBRANCH  16  17
ENDBRANCH   3  16
TORSDOF 5
ENDMDL
MODEL 5
REMARK VINA RESULT:    -7.746      4.118      8.588
REMARK INTER + INTRA:         -10.020
REMARK INTER:                  -9.012
REMARK INTRA:                  -1.008
REMARK UNBOUND:                -0.009
REMARK  Name = 
REMARK  5 active torsions:
REMARK  status: ('A' for Active; 'I' for Inactive)
REMARK    1  A    between atoms: C_2  and  C_18
REMARK    2  A    between atoms: N_3  and  C_4
REMARK    3  A    between atoms: C_4  and  C_5
REMARK    4  A    between atoms: C_8  and  C_9
REMARK    5  A    between atoms: C_9  and  C_10
REMARK                            x       y       z     vdW  Elec       q    Type
REMARK                         _______ _______ _______ _____ _____    ______ ____
ROOT
ATOM      1  O   UNL     1      47.909   6.810  11.865  0.00  0.00    +0.000 OA
ATOM      2  C   UNL     1      46.956   6.889  12.626  0.00  0.00    +0.000 C 
ATOM      3  N   UNL     1      47.046   7.477  13.863  0.00  0.00    +0.000 N 
ATOM      4  H   UNL     1      46.293   7.360  14.533  0.00  0.00    +0.000 HD
ENDROOT
BRANCH   2   5
ATOM      5  C   UNL     1      45.630   6.397  12.235  0.00  0.00    +0.000 A 
ATOM      6  C   UNL     1      44.699   7.267  11.679  0.00  0.00    +0.000 A 
ATOM      7  S   UNL     1      43.234   6.511  11.240  0.00  0.00    +0.000 S 
ATOM      8  C   UNL     1      43.807   4.993  11.741  0.00  0.00    +0.000 A 
ATOM      9  N   UNL     1      43.057   3.870  11.584  0.00  0.00    +0.000 NA
ATOM     10  C   UNL     1      43.626   2.781  11.971  0.00  0.00    +0.000 A 
ATOM     11  N   UNL     1      44.878   2.712  12.531  0.00  0.00    +0.000 N 
ATOM     12  C   UNL     1      45.649   3.825  12.767  0.00  0.00    +0.000 A 
ATOM     13  O   UNL     1      46.719   3.738  13.356  0.00  0.00    +0.000 OA
ATOM     14  C   UNL     1      45.071   5.067  12.289  0.00  0.00    +0.000 A 
ATOM     15  H   UNL     1      45.252   1.834  12.854  0.00  0.00    +0.000 HD
ENDBRANCH   2   5
BRANCH   3  16
ATOM     16  C   UNL     1      48.337   7.844  14.391  0.00  0.00    +0.000 C 
BRANCH  16  17
ATOM     17  C   UNL     1      48.849   6.843  15.396  0.00  0.00    +0.000 A 
ATOM     18  C   UNL     1      48.031   5.797  15.837  0.00  0.00    +0.000 A 
ATOM     19  C   UNL     1      48.518   4.840  16.735  0.00  0.00    +0.000 A 
ATOM     20  C   UNL     1      49.830   4.917  17.220  0.00  0.00    +0.000 A 
ATOM     21  C   UNL     1      50.638   5.981  16.801  0.00  0.00    +0.000 A 
ATOM     22  C   UNL     1      50.149   6.940  15.908  0.00  0.00    +0.000 A 
BRANCH  20  23
ATOM     23  C   UNL     1      50.357   3.892  18.195  0.00  0.00    +0.000 C 
BRANCH  23  24
ATOM     24  C   UNL     1      51.660   3.175  17.768  0.00  0.00    +0.000 C 
ATOM     25  C   UNL     1      51.413   1.685  17.470  0.00  0.00    +0.000 C 
ATOM     26  C   UNL     1      52.674   0.836  17.506  0.00  0.00    +0.000 C 
ATOM     27  O   UNL     1      53.398   1.059  18.711  0.00  0.00    +0.000 OA
ATOM     28  C   UNL     1      53.885   2.395  18.773  0.00  0.00    +0.000 C 
ATOM     29  C   UNL     1      52.727   3.378  18.863  0.00  0.00    +0.000 C 
ENDBRANCH  23  24
ENDBRANCH  20  23
ENDBRANCH  16  17
ENDBRANCH   3  16
TORSDOF 5
ENDMDL
MODEL 6
REMARK VINA RESULT:    -7.623      4.101      6.324
REMARK INTER + INTRA:          -9.860
REMARK INTER:                  -8.871
REMARK INTRA:                  -0.989
REMARK UNBOUND:                -0.009
REMARK  Name = 
REMARK  5 active torsions:
REMARK  status: ('A' for Active; 'I' for Inactive)
REMARK    1  A    between atoms: C_2  and  C_18
REMARK    2  A    between atoms: N_3  and  C_4
REMARK    3  A    between atoms: C_4  and  C_5
REMARK    4  A    between atoms: C_8  and  C_9
REMARK    5  A    between atoms: C_9  and  C_10
REMARK                            x       y       z     vdW  Elec       q    Type
REMARK                         _______ _______ _______ _____ _____    ______ ____
ROOT
ATOM      1  O   UNL     1      51.769   6.046  16.681  0.00  0.00    +0.000 OA
ATOM      2  C   UNL     1      51.491   5.174  17.491  0.00  0.00    +0.000 C 
ATOM      3  N   UNL     1      50.225   5.012  17.997  0.00  0.00    +0.000 N 
ATOM      4  H   UNL     1      50.074   4.406  18.796  0.00  0.00    +0.000 HD
ENDROOT
BRANCH   2   5
ATOM      5  C   UNL     1      52.497   4.204  17.940  0.00  0.00    +0.000 A 
ATOM      6  C   UNL     1      53.663   4.643  18.556  0.00  0.00    +0.000 A 
ATOM      7  S   UNL     1      54.691   3.377  19.056  0.00  0.00    +0.000 S 
ATOM      8  C   UNL     1      53.598   2.201  18.501  0.00  0.00    +0.000 A 
ATOM      9  N   UNL     1      53.841   0.875  18.677  0.00  0.00    +0.000 NA
ATOM     10  C   UNL     1      52.913   0.093  18.243  0.00  0.00    +0.000 A 
ATOM     11  N   UNL     1      51.765   0.517  17.620  0.00  0.00    +0.000 N 
ATOM     12  C   UNL     1      51.503   1.842  17.365  0.00  0.00    +0.000 A 
ATOM     13  O   UNL     1      50.517   2.178  16.721  0.00  0.00    +0.000 OA
ATOM     14  C   UNL     1      52.494   2.760  17.892  0.00  0.00    +0.000 A 
ATOM     15  H   UNL     1      51.095  -0.147  17.264  0.00  0.00    +0.000 HD
ENDBRANCH   2   5
BRANCH   3  16
ATOM     16  C   UNL     1      49.215   6.009  17.736  0.00  0.00    +0.000 C 
BRANCH  16  17
ATOM     17  C   UNL     1      48.523   5.789  16.414  0.00  0.00    +0.000 A 
ATOM     18  C   UNL     1      47.701   4.673  16.220  0.00  0.00    +0.000 A 
ATOM     19  C   UNL     1      47.022   4.489  15.011  0.00  0.00    +0.000 A 
ATOM     20  C   UNL     1      47.160   5.412  13.965  0.00  0.00    +0.000 A 
ATOM     21  C   UNL     1      48.006   6.511  14.150  0.00  0.00    +0.000 A 
ATOM     22  C   UNL     1      48.689   6.693  15.357  0.00  0.00    +0.000 A 
BRANCH  20  23
ATOM     23  C   UNL     1      46.435   5.213  12.656  0.00  0.00    +0.000 C 
BRANCH  23  24
ATOM     24  C   UNL     1      44.981   4.695  12.771  0.00  0.00    +0.000 C 
ATOM     25  C   UNL     1      44.845   3.267  12.212  0.00  0.00    +0.000 C 
ATOM     26  C   UNL     1      43.417   2.880  11.863  0.00  0.00    +0.000 C 
ATOM     27  O   UNL     1      42.813   3.871  11.038  0.00  0.00    +0.000 OA
ATOM     28  C   UNL     1      42.671   5.101  11.740  0.00  0.00    +0.000 C 
ATOM     29  C   UNL     1      44.037   5.687  12.064  0.00  0.00    +0.000 C 
ENDBRANCH  23  24
ENDBRANCH  20  23
ENDBRANCH  16  17
ENDBRANCH   3  16
TORSDOF 5
ENDMDL
MODEL 7
REMARK VINA RESULT:    -7.620      3.399      4.864
REMARK INTER + INTRA:          -9.856
REMARK INTER:                  -8.548
REMARK INTRA:                  -1.308
REMARK UNBOUND:                -0.009
REMARK  Name = 
REMARK  5 active torsions:
REMARK  status: ('A' for Active; 'I' for Inactive)
REMARK    1  A    between atoms: C_2  and  C_18
REMARK    2  A    between atoms: N_3  and  C_4
REMARK    3  A    between atoms: C_4  and  C_5
REMARK    4  A    between atoms: C_8  and  C_9
REMARK    5  A    between atoms: C_9  and  C_10
REMARK                            x       y       z     vdW  Elec       q    Type
REMARK                         _______ _______ _______ _____ _____    ______ ____
ROOT
ATOM      1  O   UNL     1      48.547   8.604  16.251  0.00  0.00    +0.000 OA
ATOM      2  C   UNL     1      48.991   7.522  15.898  0.00  0.00    +0.000 C 
ATOM      3  N   UNL     1      49.370   7.265  14.604  0.00  0.00    +0.000 N 
ATOM      4  H   UNL     1      49.556   6.312  14.313  0.00  0.00    +0.000 HD
ENDROOT
BRANCH   2   5
ATOM      5  C   UNL     1      49.194   6.433  16.862  0.00  0.00    +0.000 A 
ATOM      6  C   UNL     1      50.073   6.599  17.926  0.00  0.00    +0.000 A 
ATOM      7  S   UNL     1      50.142   5.252  18.971  0.00  0.00    +0.000 S 
ATOM      8  C   UNL     1      48.975   4.419  18.061  0.00  0.00    +0.000 A 
ATOM      9  N   UNL     1      48.518   3.199  18.448  0.00  0.00    +0.000 NA
ATOM     10  C   UNL     1      47.607   2.697  17.689  0.00  0.00    +0.000 A 
ATOM     11  N   UNL     1      47.122   3.296  16.552  0.00  0.00    +0.000 N 
ATOM     12  C   UNL     1      47.595   4.500  16.086  0.00  0.00    +0.000 A 
ATOM     13  O   UNL     1      47.210   4.958  15.018  0.00  0.00    +0.000 OA
ATOM     14  C   UNL     1      48.580   5.129  16.946  0.00  0.00    +0.000 A 
ATOM     15  H   UNL     1      46.438   2.832  15.975  0.00  0.00    +0.000 HD
ENDBRANCH   2   5
BRANCH   3  16
ATOM     16  C   UNL     1      49.062   8.216  13.564  0.00  0.00    +0.000 C 
BRANCH  16  17
ATOM     17  C   UNL     1      47.729   7.941  12.915  0.00  0.00    +0.000 A 
ATOM     18  C   UNL     1      47.587   6.888  12.003  0.00  0.00    +0.000 A 
ATOM     19  C   UNL     1      46.341   6.602  11.433  0.00  0.00    +0.000 A 
ATOM     20  C   UNL     1      45.214   7.371  11.753  0.00  0.00    +0.000 A 
ATOM     21  C   UNL     1      45.364   8.441  12.642  0.00  0.00    +0.000 A 
ATOM     22  C   UNL     1      46.610   8.731  13.208  0.00  0.00    +0.000 A 
BRANCH  20  23
ATOM     23  C   UNL     1      43.870   7.070  11.134  0.00  0.00    +0.000 C 
BRANCH  23  24
ATOM     24  C   UNL     1      43.252   5.703  11.515  0.00  0.00    +0.000 C 
ATOM     25  C   UNL     1      43.474   5.377  13.003  0.00  0.00    +0.000 C 
ATOM     26  C   UNL     1      43.325   3.901  13.335  0.00  0.00    +0.000 C 
ATOM     27  O   UNL     1      44.112   3.104  12.457  0.00  0.00    +0.000 OA
ATOM     28  C   UNL     1      43.640   3.202  11.119  0.00  0.00    +0.000 C 
ATOM     29  C   UNL     1      43.832   4.615  10.589  0.00  0.00    +0.000 C 
ENDBRANCH  23  24
ENDBRANCH  20  23
ENDBRANCH  16  17
ENDBRANCH   3  16
TORSDOF 5
ENDMDL
MODEL 8
REMARK VINA RESULT:    -7.527      4.124      5.236
REMARK INTER + INTRA:          -9.736
REMARK INTER:                  -8.808
REMARK INTRA:                  -0.928
REMARK UNBOUND:                -0.009
REMARK  Name = 
REMARK  5 active torsions:
REMARK  status: ('A' for Active; 'I' for Inactive)
REMARK    1  A    between atoms: C_2  and  C_18
REMARK    2  A    between atoms: N_3  and  C_4
REMARK    3  A    between atoms: C_4  and  C_5
REMARK    4  A    between atoms: C_8  and  C_9
REMARK    5  A    between atoms: C_9  and  C_10
REMARK                            x       y       z     vdW  Elec       q    Type
REMARK                         _______ _______ _______ _____ _____    ______ ____
ROOT
ATOM      1  O   UNL     1      47.406   8.280  13.930  0.00  0.00    +0.000 OA
ATOM      2  C   UNL     1      47.118   8.901  12.917  0.00  0.00    +0.000 C 
ATOM      3  N   UNL     1      45.921   8.738  12.266  0.00  0.00    +0.000 N 
ATOM      4  H   UNL     1      45.795   9.127  11.338  0.00  0.00    +0.000 HD
ENDROOT
BRANCH   2   5
ATOM      5  C   UNL     1      48.030   9.906  12.358  0.00  0.00    +0.000 A 
ATOM      6  C   UNL     1      47.697  11.255  12.409  0.00  0.00    +0.000 A 
ATOM      7  S   UNL     1      48.897  12.280  11.760  0.00  0.00    +0.000 S 
ATOM      8  C   UNL     1      49.915  10.963  11.424  0.00  0.00    +0.000 A 
ATOM      9  N   UNL     1      51.157  11.147  10.905  0.00  0.00    +0.000 NA
ATOM     10  C   UNL     1      51.838  10.067  10.735  0.00  0.00    +0.000 A 
ATOM     11  N   UNL     1      51.378   8.803  11.014  0.00  0.00    +0.000 N 
ATOM     12  C   UNL     1      50.109   8.561  11.482  0.00  0.00    +0.000 A 
ATOM     13  O   UNL     1      49.698   7.417  11.628  0.00  0.00    +0.000 OA
ATOM     14  C   UNL     1      49.330   9.756  11.746  0.00  0.00    +0.000 A 
ATOM     15  H   UNL     1      51.944   7.992  10.819  0.00  0.00    +0.000 HD
ENDBRANCH   2   5
BRANCH   3  16
ATOM     16  C   UNL     1      45.035   7.666  12.649  0.00  0.00    +0.000 C 
BRANCH  16  17
ATOM     17  C   UNL     1      44.964   6.582  11.604  0.00  0.00    +0.000 A 
ATOM     18  C   UNL     1      43.849   5.739  11.530  0.00  0.00    +0.000 A 
ATOM     19  C   UNL     1      43.760   4.761  10.532  0.00  0.00    +0.000 A 
ATOM     20  C   UNL     1      44.790   4.597   9.597  0.00  0.00    +0.000 A 
ATOM     21  C   UNL     1      45.918   5.421   9.691  0.00  0.00    +0.000 A 
ATOM     22  C   UNL     1      46.010   6.395  10.691  0.00  0.00    +0.000 A 
BRANCH  20  23
ATOM     23  C   UNL     1      44.701   3.538   8.525  0.00  0.00    +0.000 C 
BRANCH  23  24
ATOM     24  C   UNL     1      46.041   2.868   8.137  0.00  0.00    +0.000 C 
ATOM     25  C   UNL     1      46.482   3.266   6.717  0.00  0.00    +0.000 C 
ATOM     26  C   UNL     1      47.499   2.318   6.102  0.00  0.00    +0.000 C 
ATOM     27  O   UNL     1      47.053   0.969   6.199  0.00  0.00    +0.000 OA
ATOM     28  C   UNL     1      46.978   0.554   7.558  0.00  0.00    +0.000 C 
ATOM     29  C   UNL     1      45.903   1.340   8.294  0.00  0.00    +0.000 C 
ENDBRANCH  23  24
ENDBRANCH  20  23
ENDBRANCH  16  17
ENDBRANCH   3  16
TORSDOF 5
ENDMDL
MODEL 9
REMARK VINA RESULT:    -7.482      4.941      7.554
REMARK INTER + INTRA:          -9.678
REMARK INTER:                  -8.719
REMARK INTRA:                  -0.959
REMARK UNBOUND:                -0.009
REMARK  Name = 
REMARK  5 active torsions:
REMARK  status: ('A' for Active; 'I' for Inactive)
REMARK    1  A    between atoms: C_2  and  C_18
REMARK    2  A    between atoms: N_3  and  C_4
REMARK    3  A    between atoms: C_4  and  C_5
REMARK    4  A    between atoms: C_8  and  C_9
REMARK    5  A    between atoms: C_9  and  C_10
REMARK                            x       y       z     vdW  Elec       q    Type
REMARK                         _______ _______ _______ _____ _____    ______ ____
ROOT
ATOM      1  O   UNL     1      44.473   7.707  11.301  0.00  0.00    +0.000 OA
ATOM      2  C   UNL     1      44.958   6.805  11.970  0.00  0.00    +0.000 C 
ATOM      3  N   UNL     1      45.851   7.037  12.985  0.00  0.00    +0.000 N 
ATOM      4  H   UNL     1      46.367   6.263  13.389  0.00  0.00    +0.000 HD
ENDROOT
BRANCH   2   5
ATOM      5  C   UNL     1      44.568   5.406  11.754  0.00  0.00    +0.000 A 
ATOM      6  C   UNL     1      43.855   4.722  12.732  0.00  0.00    +0.000 A 
ATOM      7  S   UNL     1      43.445   3.127  12.288  0.00  0.00    +0.000 S 
ATOM      8  C   UNL     1      44.169   3.309  10.763  0.00  0.00    +0.000 A 
ATOM      9  N   UNL     1      44.123   2.315   9.837  0.00  0.00    +0.000 NA
ATOM     10  C   UNL     1      44.678   2.598   8.710  0.00  0.00    +0.000 A 
ATOM     11  N   UNL     1      45.306   3.787   8.427  0.00  0.00    +0.000 N 
ATOM     12  C   UNL     1      45.432   4.798   9.350  0.00  0.00    +0.000 A 
ATOM     13  O   UNL     1      46.082   5.805   9.097  0.00  0.00    +0.000 OA
ATOM     14  C   UNL     1      44.766   4.543  10.613  0.00  0.00    +0.000 A 
ATOM     15  H   UNL     1      45.760   3.933   7.540  0.00  0.00    +0.000 HD
ENDBRANCH   2   5
BRANCH   3  16
ATOM     16  C   UNL     1      46.409   8.355  13.164  0.00  0.00    +0.000 C 
BRANCH  16  17
ATOM     17  C   UNL     1      47.757   8.500  12.505  0.00  0.00    +0.000 A 
ATOM     18  C   UNL     1      48.251   9.765  12.168  0.00  0.00    +0.000 A 
ATOM     19  C   UNL     1      49.521   9.907  11.598  0.00  0.00    +0.000 A 
ATOM     20  C   UNL     1      50.319   8.783  11.340  0.00  0.00    +0.000 A 
ATOM     21  C   UNL     1      49.811   7.516  11.649  0.00  0.00    +0.000 A 
ATOM     22  C   UNL     1      48.539   7.374  12.215  0.00  0.00    +0.000 A 
BRANCH  20  23
ATOM     23  C   UNL     1      51.686   8.931  10.717  0.00  0.00    +0.000 C 
BRANCH  23  24
ATOM     24  C   UNL     1      52.505   7.624  10.590  0.00  0.00    +0.000 C 
ATOM     25  C   UNL     1      53.926   7.790  11.160  0.00  0.00    +0.000 C 
ATOM     26  C   UNL     1      54.911   6.745  10.663  0.00  0.00    +0.000 C 
ATOM     27  O   UNL     1      54.878   6.655   9.242  0.00  0.00    +0.000 OA
ATOM     28  C   UNL     1      53.616   6.176   8.791  0.00  0.00    +0.000 C 
ATOM     29  C   UNL     1      52.521   7.182   9.113  0.00  0.00    +0.000 C 
ENDBRANCH  23  24
ENDBRANCH  20  23
ENDBRANCH  16  17
ENDBRANCH   3  16
TORSDOF 5
ENDMDL
