MODEL 1
REMARK VINA RESULT:    -8.479      0.000      0.000
REMARK INTER + INTRA:         -13.112
REMARK INTER:                 -11.949
REMARK INTRA:                  -1.164
REMARK UNBOUND:                -1.164
REMARK  Name = 
REMARK  8 active torsions:
REMARK  status: ('A' for Active; 'I' for Inactive)
REMARK    1  A    between atoms: C_1  and  C_2
REMARK    2  A    between atoms: C_2  and  N_3
REMARK    3  A    between atoms: C_2  and  C_11
REMARK    4  A    between atoms: N_3  and  C_4
REMARK    5  A    between atoms: C_4  and  C_5
REMARK    6  A    between atoms: C_14  and  C_15
REMARK    7  A    between atoms: C_15  and  N_16
REMARK    8  A    between atoms: C_17  and  C_19
REMARK                            x       y       z     vdW  Elec       q    Type
REMARK                         _______ _______ _______ _____ _____    ______ ____
ROOT
ATOM      1  C   UNL     1      44.882   4.844  11.971  0.00  0.00    +0.000 A 
ATOM      2  C   UNL     1      45.395   4.296  13.156  0.00  0.00    +0.000 A 
ATOM      3  C   UNL     1      46.545   4.812  13.761  0.00  0.00    +0.000 A 
ATOM      4  C   UNL     1      47.195   5.924  13.224  0.00  0.00    +0.000 A 
ATOM      5  C   UNL     1      46.744   6.437  12.009  0.00  0.00    +0.000 A 
ATOM      6  C   UNL     1      45.639   5.869  11.372  0.00  0.00    +0.000 A 
ENDROOT
BRANCH   1   8
ATOM      7  C   UNL     1      42.440   5.389  11.406  0.00  0.00    +0.000 C 
ATOM      8  C   UNL     1      43.577   4.350  11.329  0.00  0.00    +0.000 C 
BRANCH   8   9
ATOM      9  N   UNL     1      43.688   4.007   9.889  0.00  0.00    +0.000 NA
ATOM     10  H   UNL     1      44.183   4.761   9.415  0.00  0.00    +0.000 HD
BRANCH   9  11
ATOM     11  C   UNL     1      44.354   2.736   9.628  0.00  0.00    +0.000 C 
BRANCH  11  12
ATOM     12  C   UNL     1      45.100   2.631   8.290  0.00  0.00    +0.000 C 
ATOM     13  C   UNL     1      46.076   1.438   8.392  0.00  0.00    +0.000 C 
ATOM     14  C   UNL     1      46.934   1.291   7.144  0.00  0.00    +0.000 C 
ATOM     15  C   UNL     1      47.685   2.581   6.834  0.00  0.00    +0.000 C 
ATOM     16  C   UNL     1      46.733   3.766   6.722  0.00  0.00    +0.000 C 
ATOM     17  C   UNL     1      45.873   3.920   7.971  0.00  0.00    +0.000 C 
ENDBRANCH  11  12
ENDBRANCH   9  11
ENDBRANCH   8   9
ENDBRANCH   1   8
BRANCH   4  18
ATOM     18  C   UNL     1      48.402   6.513  13.895  0.00  0.00    +0.000 C 
BRANCH  18  19
ATOM     19  N   UNL     1      48.157   6.695  15.300  0.00  0.00    +0.000 N 
ATOM     20  C   UNL     1      49.158   6.524  16.218  0.00  0.00    +0.000 C 
ATOM     21  O   UNL     1      50.304   6.233  15.889  0.00  0.00    +0.000 OA
ATOM     22  H   UNL     1      47.189   6.694  15.606  0.00  0.00    +0.000 HD
BRANCH  20  23
ATOM     23  C   UNL     1      48.800   6.773  17.618  0.00  0.00    +0.000 A 
ATOM     24  C   UNL     1      48.529   8.070  18.033  0.00  0.00    +0.000 A 
ATOM     25  S   UNL     1      48.097   8.182  19.679  0.00  0.00    +0.000 S 
ATOM     26  C   UNL     1      48.289   6.508  19.903  0.00  0.00    +0.000 A 
ATOM     27  N   UNL     1      48.113   5.937  21.122  0.00  0.00    +0.000 NA
ATOM     28  C   UNL     1      48.321   4.664  21.159  0.00  0.00    +0.000 A 
ATOM     29  N   UNL     1      48.699   3.907  20.080  0.00  0.00    +0.000 N 
ATOM     30  C   UNL     1      48.882   4.437  18.821  0.00  0.00    +0.000 A 
ATOM     31  O   UNL     1      49.186   3.725  17.870  0.00  0.00    +0.000 OA
ATOM     32  C   UNL     1      48.670   5.869  18.735  0.00  0.00    +0.000 A 
ATOM     33  H   UNL     1      48.841   2.910  20.167  0.00  0.00    +0.000 HD
ENDBRANCH  20  23
ENDBRANCH  18  19
ENDBRANCH   4  18
TORSDOF 7
ENDMDL
MODEL 2
REMARK VINA RESULT:    -8.219      1.340      2.228
REMARK INTER + INTRA:         -12.746
REMARK INTER:                 -11.432
REMARK INTRA:                  -1.314
REMARK UNBOUND:                -1.164
REMARK  Name = 
REMARK  8 active torsions:
REMARK  status: ('A' for Active; 'I' for Inactive)
REMARK    1  A    between atoms: C_1  and  C_2
REMARK    2  A    between atoms: C_2  and  N_3
REMARK    3  A    between atoms: C_2  and  C_11
REMARK    4  A    between atoms: N_3  and  C_4
REMARK    5  A    between atoms: C_4  and  C_5
REMARK    6  A    between atoms: C_14  and  C_15
REMARK    7  A    between atoms: C_15  and  N_16
REMARK    8  A    between atoms: C_17  and  C_19
REMARK                            x       y       z     vdW  Elec       q    Type
REMARK                         _______ _______ _______ _____ _____    ______ ____
ROOT
ATOM      1  C   UNL     1      44.974   4.770  12.001  0.00  0.00    +0.000 A 
ATOM      2  C   UNL     1      45.400   4.365  13.275  0.00  0.00    +0.000 A 
ATOM      3  C   UNL     1      46.495   4.964  13.904  0.00  0.00    +0.000 A 
ATOM      4  C   UNL     1      47.175   6.022  13.297  0.00  0.00    +0.000 A 
ATOM      5  C   UNL     1      46.814   6.390  12.002  0.00  0.00    +0.000 A 
ATOM      6  C   UNL     1      45.766   5.736  11.351  0.00  0.00    +0.000 A 
ENDROOT
BRANCH   1   8
ATOM      7  C   UNL     1      42.500   5.115  11.419  0.00  0.00    +0.000 C 
ATOM      8  C   UNL     1      43.728   4.186  11.321  0.00  0.00    +0.000 C 
BRANCH   8   9
ATOM      9  N   UNL     1      43.886   3.910   9.872  0.00  0.00    +0.000 NA
ATOM     10  H   UNL     1      44.483   4.630   9.469  0.00  0.00    +0.000 HD
BRANCH   9  11
ATOM     11  C   UNL     1      44.429   2.591   9.571  0.00  0.00    +0.000 C 
BRANCH  11  12
ATOM     12  C   UNL     1      45.748   2.569   8.786  0.00  0.00    +0.000 C 
ATOM     13  C   UNL     1      45.648   3.635   7.672  0.00  0.00    +0.000 C 
ATOM     14  C   UNL     1      46.876   3.643   6.774  0.00  0.00    +0.000 C 
ATOM     15  C   UNL     1      47.136   2.263   6.181  0.00  0.00    +0.000 C 
ATOM     16  C   UNL     1      47.247   1.201   7.269  0.00  0.00    +0.000 C 
ATOM     17  C   UNL     1      46.018   1.187   8.171  0.00  0.00    +0.000 C 
ENDBRANCH  11  12
ENDBRANCH   9  11
ENDBRANCH   8   9
ENDBRANCH   1   8
BRANCH   4  18
ATOM     18  C   UNL     1      48.320   6.703  13.987  0.00  0.00    +0.000 C 
BRANCH  18  19
ATOM     19  N   UNL     1      48.193   6.579  15.414  0.00  0.00    +0.000 N 
ATOM     20  C   UNL     1      49.293   6.402  16.208  0.00  0.00    +0.000 C 
ATOM     21  O   UNL     1      50.431   6.362  15.749  0.00  0.00    +0.000 OA
ATOM     22  H   UNL     1      47.270   6.369  15.780  0.00  0.00    +0.000 HD
BRANCH  20  23
ATOM     23  C   UNL     1      49.044   6.327  17.652  0.00  0.00    +0.000 A 
ATOM     24  C   UNL     1      49.397   5.179  18.347  0.00  0.00    +0.000 A 
ATOM     25  S   UNL     1      49.074   5.270  20.019  0.00  0.00    +0.000 S 
ATOM     26  C   UNL     1      48.419   6.831  19.867  0.00  0.00    +0.000 A 
ATOM     27  N   UNL     1      47.903   7.485  20.939  0.00  0.00    +0.000 NA
ATOM     28  C   UNL     1      47.410   8.648  20.677  0.00  0.00    +0.000 A 
ATOM     29  N   UNL     1      47.383   9.218  19.431  0.00  0.00    +0.000 N 
ATOM     30  C   UNL     1      47.902   8.600  18.314  0.00  0.00    +0.000 A 
ATOM     31  O   UNL     1      47.891   9.153  17.219  0.00  0.00    +0.000 OA
ATOM     32  C   UNL     1      48.456   7.283  18.558  0.00  0.00    +0.000 A 
ATOM     33  H   UNL     1      46.989  10.139  19.287  0.00  0.00    +0.000 HD
ENDBRANCH  20  23
ENDBRANCH  18  19
ENDBRANCH   4  18
TORSDOF 7
ENDMDL
MODEL 3
REMARK VINA RESULT:    -7.616      1.417      1.774
REMARK INTER + INTRA:         -11.896
REMARK INTER:                 -10.938
REMARK INTRA:                  -0.959
REMARK UNBOUND:                -1.164
REMARK  Name = 
REMARK  8 active torsions:
REMARK  status: ('A' for Active; 'I' for Inactive)
REMARK    1  A    between atoms: C_1  and  C_2
REMARK    2  A    between atoms: C_2  and  N_3
REMARK    3  A    between atoms: C_2  and  C_11
REMARK    4  A    between atoms: N_3  and  C_4
REMARK    5  A    between atoms: C_4  and  C_5
REMARK    6  A    between atoms: C_14  and  C_15
REMARK    7  A    between atoms: C_15  and  N_16
REMARK    8  A    between atoms: C_17  and  C_19
REMARK                            x       y       z     vdW  Elec       q    Type
REMARK                         _______ _______ _______ _____ _____    ______ ____
ROOT
ATOM      1  C   UNL     1      45.599   5.722  11.788  0.00  0.00    +0.000 A 
ATOM      2  C   UNL     1      45.354   7.102  11.768  0.00  0.00    +0.000 A 
ATOM      3  C   UNL     1      46.088   7.986  12.565  0.00  0.00    +0.000 A 
ATOM      4  C   UNL     1      47.126   7.521  13.374  0.00  0.00    +0.000 A 
ATOM      5  C   UNL     1      47.337   6.146  13.463  0.00  0.00    +0.000 A 
ATOM      6  C   UNL     1      46.549   5.264  12.721  0.00  0.00    +0.000 A 
ENDROOT
BRANCH   1   8
ATOM      7  C   UNL     1      43.329   4.835  10.987  0.00  0.00    +0.000 C 
ATOM      8  C   UNL     1      44.863   4.738  10.866  0.00  0.00    +0.000 C 
BRANCH   8   9
ATOM      9  N   UNL     1      45.147   4.914   9.420  0.00  0.00    +0.000 NA
ATOM     10  H   UNL     1      46.141   4.754   9.265  0.00  0.00    +0.000 HD
BRANCH   9  11
ATOM     11  C   UNL     1      44.363   4.048   8.547  0.00  0.00    +0.000 C 
BRANCH  11  12
ATOM     12  C   UNL     1      45.164   3.085   7.660  0.00  0.00    +0.000 C 
ATOM     13  C   UNL     1      45.671   1.934   8.556  0.00  0.00    +0.000 C 
ATOM     14  C   UNL     1      46.553   0.958   7.791  0.00  0.00    +0.000 C 
ATOM     15  C   UNL     1      47.719   1.676   7.120  0.00  0.00    +0.000 C 
ATOM     16  C   UNL     1      47.233   2.811   6.225  0.00  0.00    +0.000 C 
ATOM     17  C   UNL     1      46.351   3.792   6.986  0.00  0.00    +0.000 C 
ENDBRANCH  11  12
ENDBRANCH   9  11
ENDBRANCH   8   9
ENDBRANCH   1   8
BRANCH   4  18
ATOM     18  C   UNL     1      47.951   8.469  14.194  0.00  0.00    +0.000 C 
BRANCH  18  19
ATOM     19  N   UNL     1      48.252   7.894  15.477  0.00  0.00    +0.000 N 
ATOM     20  C   UNL     1      49.525   7.507  15.796  0.00  0.00    +0.000 C 
ATOM     21  O   UNL     1      50.466   7.652  15.020  0.00  0.00    +0.000 OA
ATOM     22  H   UNL     1      47.470   7.548  16.025  0.00  0.00    +0.000 HD
BRANCH  20  23
ATOM     23  C   UNL     1      49.719   6.970  17.147  0.00  0.00    +0.000 A 
ATOM     24  C   UNL     1      50.594   7.607  18.017  0.00  0.00    +0.000 A 
ATOM     25  S   UNL     1      50.676   6.876  19.555  0.00  0.00    +0.000 S 
ATOM     26  C   UNL     1      49.573   5.664  19.102  0.00  0.00    +0.000 A 
ATOM     27  N   UNL     1      49.234   4.667  19.959  0.00  0.00    +0.000 NA
ATOM     28  C   UNL     1      48.413   3.796  19.478  0.00  0.00    +0.000 A 
ATOM     29  N   UNL     1      47.903   3.829  18.206  0.00  0.00    +0.000 N 
ATOM     30  C   UNL     1      48.209   4.823  17.302  0.00  0.00    +0.000 A 
ATOM     31  O   UNL     1      47.708   4.841  16.183  0.00  0.00    +0.000 OA
ATOM     32  C   UNL     1      49.139   5.819  17.796  0.00  0.00    +0.000 A 
ATOM     33  H   UNL     1      47.256   3.121  17.885  0.00  0.00    +0.000 HD
ENDBRANCH  20  23
ENDBRANCH  18  19
ENDBRANCH   4  18
TORSDOF 7
ENDMDL
MODEL 4
REMARK VINA RESULT:    -7.464      3.783      9.881
REMARK INTER + INTRA:         -11.683
REMARK INTER:                  -9.626
REMARK INTRA:                  -2.056
REMARK UNBOUND:                -1.164
REMARK  Name = 
REMARK  8 active torsions:
REMARK  status: ('A' for Active; 'I' for Inactive)
REMARK    1  A    between atoms: C_1  and  C_2
REMARK    2  A    between atoms: C_2  and  N_3
REMARK    3  A    between atoms: C_2  and  C_11
REMARK    4  A    between atoms: N_3  and  C_4
REMARK    5  A    between atoms: C_4  and  C_5
REMARK    6  A    between atoms: C_14  and  C_15
REMARK    7  A    between atoms: C_15  and  N_16
REMARK    8  A    between atoms: C_17  and  C_19
REMARK                            x       y       z     vdW  Elec       q    Type
REMARK                         _______ _______ _______ _____ _____    ______ ____
ROOT
ATOM      1  C   UNL     1      51.150   4.384  17.924  0.00  0.00    +0.000 A 
ATOM      2  C   UNL     1      50.255   5.400  17.561  0.00  0.00    +0.000 A 
ATOM      3  C   UNL     1      48.959   5.111  17.123  0.00  0.00    +0.000 A 
ATOM      4  C   UNL     1      48.500   3.794  17.077  0.00  0.00    +0.000 A 
ATOM      5  C   UNL     1      49.396   2.765  17.364  0.00  0.00    +0.000 A 
ATOM      6  C   UNL     1      50.711   3.060  17.729  0.00  0.00    +0.000 A 
ENDROOT
BRANCH   1   8
ATOM      7  C   UNL     1      53.436   5.467  17.501  0.00  0.00    +0.000 C 
ATOM      8  C   UNL     1      52.550   4.675  18.484  0.00  0.00    +0.000 C 
BRANCH   8   9
ATOM      9  N   UNL     1      52.561   5.468  19.738  0.00  0.00    +0.000 NA
ATOM     10  H   UNL     1      52.147   6.379  19.548  0.00  0.00    +0.000 HD
BRANCH   9  11
ATOM     11  C   UNL     1      51.870   4.832  20.854  0.00  0.00    +0.000 C 
BRANCH  11  12
ATOM     12  C   UNL     1      50.602   5.540  21.350  0.00  0.00    +0.000 C 
ATOM     13  C   UNL     1      49.395   4.648  20.985  0.00  0.00    +0.000 C 
ATOM     14  C   UNL     1      48.069   5.296  21.358  0.00  0.00    +0.000 C 
ATOM     15  C   UNL     1      47.933   6.678  20.728  0.00  0.00    +0.000 C 
ATOM     16  C   UNL     1      49.113   7.573  21.087  0.00  0.00    +0.000 C 
ATOM     17  C   UNL     1      50.443   6.930  20.714  0.00  0.00    +0.000 C 
ENDBRANCH  11  12
ENDBRANCH   9  11
ENDBRANCH   8   9
ENDBRANCH   1   8
BRANCH   4  18
ATOM     18  C   UNL     1      47.094   3.479  16.655  0.00  0.00    +0.000 C 
BRANCH  18  19
ATOM     19  N   UNL     1      46.629   4.444  15.696  0.00  0.00    +0.000 N 
ATOM     20  C   UNL     1      46.800   4.243  14.353  0.00  0.00    +0.000 C 
ATOM     21  O   UNL     1      47.332   3.230  13.907  0.00  0.00    +0.000 OA
ATOM     22  H   UNL     1      46.414   5.374  16.042  0.00  0.00    +0.000 HD
BRANCH  20  23
ATOM     23  C   UNL     1      46.251   5.276  13.470  0.00  0.00    +0.000 A 
ATOM     24  C   UNL     1      47.013   6.398  13.174  0.00  0.00    +0.000 A 
ATOM     25  S   UNL     1      46.243   7.482  12.106  0.00  0.00    +0.000 S 
ATOM     26  C   UNL     1      44.852   6.509  12.029  0.00  0.00    +0.000 A 
ATOM     27  N   UNL     1      43.767   6.889  11.307  0.00  0.00    +0.000 NA
ATOM     28  C   UNL     1      42.768   6.074  11.360  0.00  0.00    +0.000 A 
ATOM     29  N   UNL     1      42.756   4.908  12.080  0.00  0.00    +0.000 N 
ATOM     30  C   UNL     1      43.833   4.473  12.821  0.00  0.00    +0.000 A 
ATOM     31  O   UNL     1      43.800   3.407  13.426  0.00  0.00    +0.000 OA
ATOM     32  C   UNL     1      44.975   5.365  12.800  0.00  0.00    +0.000 A 
ATOM     33  H   UNL     1      41.945   4.303  12.078  0.00  0.00    +0.000 HD
ENDBRANCH  20  23
ENDBRANCH  18  19
ENDBRANCH   4  18
TORSDOF 7
ENDMDL
MODEL 5
REMARK VINA RESULT:    -7.379      2.386      2.977
REMARK INTER + INTRA:         -11.562
REMARK INTER:                 -10.471
REMARK INTRA:                  -1.091
REMARK UNBOUND:                -1.164
REMARK  Name = 
REMARK  8 active torsions:
REMARK  status: ('A' for Active; 'I' for Inactive)
REMARK    1  A    between atoms: C_1  and  C_2
REMARK    2  A    between atoms: C_2  and  N_3
REMARK    3  A    between atoms: C_2  and  C_11
REMARK    4  A    between atoms: N_3  and  C_4
REMARK    5  A    between atoms: C_4  and  C_5
REMARK    6  A    between atoms: C_14  and  C_15
REMARK    7  A    between atoms: C_15  and  N_16
REMARK    8  A    between atoms: C_17  and  C_19
REMARK                            x       y       z     vdW  Elec       q    Type
REMARK                         _______ _______ _______ _____ _____    ______ ____
ROOT
ATOM      1  C   UNL     1      45.220   5.102  11.928  0.00  0.00    +0.000 A 
ATOM      2  C   UNL     1      45.813   4.748  13.148  0.00  0.00    +0.000 A 
ATOM      3  C   UNL     1      46.911   5.448  13.658  0.00  0.00    +0.000 A 
ATOM      4  C   UNL     1      47.424   6.557  12.983  0.00  0.00    +0.000 A 
ATOM      5  C   UNL     1      46.896   6.881  11.734  0.00  0.00    +0.000 A 
ATOM      6  C   UNL     1      45.848   6.130  11.198  0.00  0.00    +0.000 A 
ENDROOT
BRANCH   1   8
ATOM      7  C   UNL     1      42.673   5.206  11.640  0.00  0.00    +0.000 C 
ATOM      8  C   UNL     1      43.965   4.403  11.384  0.00  0.00    +0.000 C 
BRANCH   8   9
ATOM      9  N   UNL     1      43.981   4.155   9.921  0.00  0.00    +0.000 NA
ATOM     10  H   UNL     1      44.629   4.811   9.490  0.00  0.00    +0.000 HD
BRANCH   9  11
ATOM     11  C   UNL     1      44.337   2.790   9.551  0.00  0.00    +0.000 C 
BRANCH  11  12
ATOM     12  C   UNL     1      45.117   2.631   8.239  0.00  0.00    +0.000 C 
ATOM     13  C   UNL     1      46.076   1.433   8.407  0.00  0.00    +0.000 C 
ATOM     14  C   UNL     1      46.965   1.234   7.188  0.00  0.00    +0.000 C 
ATOM     15  C   UNL     1      47.739   2.504   6.856  0.00  0.00    +0.000 C 
ATOM     16  C   UNL     1      46.805   3.696   6.678  0.00  0.00    +0.000 C 
ATOM     17  C   UNL     1      45.914   3.900   7.897  0.00  0.00    +0.000 C 
ENDBRANCH  11  12
ENDBRANCH   9  11
ENDBRANCH   8   9
ENDBRANCH   1   8
BRANCH   4  18
ATOM     18  C   UNL     1      48.571   7.343  13.548  0.00  0.00    +0.000 C 
BRANCH  18  19
ATOM     19  N   UNL     1      49.256   6.580  14.555  0.00  0.00    +0.000 N 
ATOM     20  C   UNL     1      49.782   7.186  15.664  0.00  0.00    +0.000 C 
ATOM     21  O   UNL     1      49.677   8.394  15.860  0.00  0.00    +0.000 OA
ATOM     22  H   UNL     1      49.561   5.646  14.302  0.00  0.00    +0.000 HD
BRANCH  20  23
ATOM     23  C   UNL     1      50.425   6.302  16.641  0.00  0.00    +0.000 A 
ATOM     24  C   UNL     1      49.639   5.586  17.534  0.00  0.00    +0.000 A 
ATOM     25  S   UNL     1      50.538   4.581  18.578  0.00  0.00    +0.000 S 
ATOM     26  C   UNL     1      52.009   5.092  17.897  0.00  0.00    +0.000 A 
ATOM     27  N   UNL     1      53.198   4.641  18.372  0.00  0.00    +0.000 NA
ATOM     28  C   UNL     1      54.237   5.133  17.786  0.00  0.00    +0.000 A 
ATOM     29  N   UNL     1      54.193   6.047  16.766  0.00  0.00    +0.000 N 
ATOM     30  C   UNL     1      53.013   6.529  16.243  0.00  0.00    +0.000 A 
ATOM     31  O   UNL     1      53.009   7.321  15.306  0.00  0.00    +0.000 OA
ATOM     32  C   UNL     1      51.818   6.012  16.879  0.00  0.00    +0.000 A 
ATOM     33  H   UNL     1      55.042   6.394  16.339  0.00  0.00    +0.000 HD
ENDBRANCH  20  23
ENDBRANCH  18  19
ENDBRANCH   4  18
TORSDOF 7
ENDMDL
MODEL 6
REMARK VINA RESULT:    -7.292      3.766      9.135
REMARK INTER + INTRA:         -11.440
REMARK INTER:                  -8.978
REMARK INTRA:                  -2.461
REMARK UNBOUND:                -1.164
REMARK  Name = 
REMARK  8 active torsions:
REMARK  status: ('A' for Active; 'I' for Inactive)
REMARK    1  A    between atoms: C_1  and  C_2
REMARK    2  A    between atoms: C_2  and  N_3
REMARK    3  A    between atoms: C_2  and  C_11
REMARK    4  A    between atoms: N_3  and  C_4
REMARK    5  A    between atoms: C_4  and  C_5
REMARK    6  A    between atoms: C_14  and  C_15
REMARK    7  A    between atoms: C_15  and  N_16
REMARK    8  A    between atoms: C_17  and  C_19
REMARK                            x       y       z     vdW  Elec       q    Type
REMARK                         _______ _______ _______ _____ _____    ______ ____
ROOT
ATOM      1  C   UNL     1      51.024   4.291  18.689  0.00  0.00    +0.000 A 
ATOM      2  C   UNL     1      50.908   3.296  17.707  0.00  0.00    +0.000 A 
ATOM      3  C   UNL     1      49.671   2.962  17.148  0.00  0.00    +0.000 A 
ATOM      4  C   UNL     1      48.512   3.645  17.521  0.00  0.00    +0.000 A 
ATOM      5  C   UNL     1      48.594   4.586  18.546  0.00  0.00    +0.000 A 
ATOM      6  C   UNL     1      49.822   4.861  19.152  0.00  0.00    +0.000 A 
ENDROOT
BRANCH   1   8
ATOM      7  C   UNL     1      53.572   4.288  18.393  0.00  0.00    +0.000 C 
ATOM      8  C   UNL     1      52.378   4.735  19.262  0.00  0.00    +0.000 C 
BRANCH   8   9
ATOM      9  N   UNL     1      52.536   6.202  19.409  0.00  0.00    +0.000 NA
ATOM     10  H   UNL     1      53.171   6.382  20.184  0.00  0.00    +0.000 HD
BRANCH   9  11
ATOM     11  C   UNL     1      53.017   6.875  18.208  0.00  0.00    +0.000 C 
BRANCH  11  12
ATOM     12  C   UNL     1      51.953   7.592  17.366  0.00  0.00    +0.000 C 
ATOM     13  C   UNL     1      50.813   8.019  18.316  0.00  0.00    +0.000 C 
ATOM     14  C   UNL     1      49.658   8.669  17.571  0.00  0.00    +0.000 C 
ATOM     15  C   UNL     1      49.130   7.759  16.467  0.00  0.00    +0.000 C 
ATOM     16  C   UNL     1      50.243   7.336  15.515  0.00  0.00    +0.000 C 
ATOM     17  C   UNL     1      51.402   6.682  16.256  0.00  0.00    +0.000 C 
ENDBRANCH  11  12
ENDBRANCH   9  11
ENDBRANCH   8   9
ENDBRANCH   1   8
BRANCH   4  18
ATOM     18  C   UNL     1      47.189   3.326  16.889  0.00  0.00    +0.000 C 
BRANCH  18  19
ATOM     19  N   UNL     1      46.826   4.343  15.940  0.00  0.00    +0.000 N 
ATOM     20  C   UNL     1      46.911   4.114  14.594  0.00  0.00    +0.000 C 
ATOM     21  O   UNL     1      47.277   3.035  14.136  0.00  0.00    +0.000 OA
ATOM     22  H   UNL     1      46.758   5.295  16.285  0.00  0.00    +0.000 HD
BRANCH  20  23
ATOM     23  C   UNL     1      46.478   5.212  13.723  0.00  0.00    +0.000 A 
ATOM     24  C   UNL     1      47.314   6.304  13.533  0.00  0.00    +0.000 A 
ATOM     25  S   UNL     1      46.676   7.472  12.466  0.00  0.00    +0.000 S 
ATOM     26  C   UNL     1      45.248   6.575  12.247  0.00  0.00    +0.000 A 
ATOM     27  N   UNL     1      44.237   7.042  11.469  0.00  0.00    +0.000 NA
ATOM     28  C   UNL     1      43.200   6.278  11.415  0.00  0.00    +0.000 A 
ATOM     29  N   UNL     1      43.078   5.084  12.077  0.00  0.00    +0.000 N 
ATOM     30  C   UNL     1      44.077   4.563  12.870  0.00  0.00    +0.000 A 
ATOM     31  O   UNL     1      43.949   3.475  13.421  0.00  0.00    +0.000 OA
ATOM     32  C   UNL     1      45.260   5.395  12.971  0.00  0.00    +0.000 A 
ATOM     33  H   UNL     1      42.241   4.523  11.991  0.00  0.00    +0.000 HD
ENDBRANCH  20  23
ENDBRANCH  18  19
ENDBRANCH   4  18
TORSDOF 7
ENDMDL
MODEL 7
REMARK VINA RESULT:    -7.287      3.197      8.954
REMARK INTER + INTRA:         -11.432
REMARK INTER:                  -9.514
REMARK INTRA:                  -1.918
REMARK UNBOUND:                -1.164
REMARK  Name = 
REMARK  8 active torsions:
REMARK  status: ('A' for Active; 'I' for Inactive)
REMARK    1  A    between atoms: C_1  and  C_2
REMARK    2  A    between atoms: C_2  and  N_3
REMARK    3  A    between atoms: C_2  and  C_11
REMARK    4  A    between atoms: N_3  and  C_4
REMARK    5  A    between atoms: C_4  and  C_5
REMARK    6  A    between atoms: C_14  and  C_15
REMARK    7  A    between atoms: C_15  and  N_16
REMARK    8  A    between atoms: C_17  and  C_19
REMARK                            x       y       z     vdW  Elec       q    Type
REMARK                         _______ _______ _______ _____ _____    ______ ____
ROOT
ATOM      1  C   UNL     1      49.297   7.917  16.639  0.00  0.00    +0.000 A 
ATOM      2  C   UNL     1      48.409   8.866  16.111  0.00  0.00    +0.000 A 
ATOM      3  C   UNL     1      48.021   8.835  14.768  0.00  0.00    +0.000 A 
ATOM      4  C   UNL     1      48.474   7.824  13.919  0.00  0.00    +0.000 A 
ATOM      5  C   UNL     1      49.413   6.916  14.405  0.00  0.00    +0.000 A 
ATOM      6  C   UNL     1      49.853   6.999  15.728  0.00  0.00    +0.000 A 
ENDROOT
BRANCH   1   8
ATOM      7  C   UNL     1      48.483   8.163  19.060  0.00  0.00    +0.000 C 
ATOM      8  C   UNL     1      49.678   7.879  18.127  0.00  0.00    +0.000 C 
BRANCH   8   9
ATOM      9  N   UNL     1      50.229   6.581  18.591  0.00  0.00    +0.000 NA
ATOM     10  H   UNL     1      51.086   6.762  19.110  0.00  0.00    +0.000 HD
BRANCH   9  11
ATOM     11  C   UNL     1      49.309   5.801  19.410  0.00  0.00    +0.000 C 
BRANCH  11  12
ATOM     12  C   UNL     1      48.917   4.424  18.856  0.00  0.00    +0.000 C 
ATOM     13  C   UNL     1      50.088   3.921  17.983  0.00  0.00    +0.000 C 
ATOM     14  C   UNL     1      49.773   2.593  17.311  0.00  0.00    +0.000 C 
ATOM     15  C   UNL     1      48.487   2.677  16.496  0.00  0.00    +0.000 C 
ATOM     16  C   UNL     1      47.319   3.164  17.348  0.00  0.00    +0.000 C 
ATOM     17  C   UNL     1      47.629   4.495  18.021  0.00  0.00    +0.000 C 
ENDBRANCH  11  12
ENDBRANCH   9  11
ENDBRANCH   8   9
ENDBRANCH   1   8
BRANCH   4  18
ATOM     18  C   UNL     1      48.023   7.756  12.489  0.00  0.00    +0.000 C 
BRANCH  18  19
ATOM     19  N   UNL     1      47.246   6.567  12.263  0.00  0.00    +0.000 N 
ATOM     20  C   UNL     1      45.878   6.608  12.257  0.00  0.00    +0.000 C 
ATOM     21  O   UNL     1      45.255   7.654  12.419  0.00  0.00    +0.000 OA
ATOM     22  H   UNL     1      47.721   5.676  12.369  0.00  0.00    +0.000 HD
BRANCH  20  23
ATOM     23  C   UNL     1      45.194   5.342  11.978  0.00  0.00    +0.000 A 
ATOM     24  C   UNL     1      44.540   4.678  13.007  0.00  0.00    +0.000 A 
ATOM     25  S   UNL     1      43.768   3.241  12.508  0.00  0.00    +0.000 S 
ATOM     26  C   UNL     1      44.308   3.439  10.908  0.00  0.00    +0.000 A 
ATOM     27  N   UNL     1      44.029   2.514   9.954  0.00  0.00    +0.000 NA
ATOM     28  C   UNL     1      44.526   2.771   8.791  0.00  0.00    +0.000 A 
ATOM     29  N   UNL     1      45.285   3.873   8.497  0.00  0.00    +0.000 N 
ATOM     30  C   UNL     1      45.588   4.844   9.427  0.00  0.00    +0.000 A 
ATOM     31  O   UNL     1      46.242   5.835   9.121  0.00  0.00    +0.000 OA
ATOM     32  C   UNL     1      45.060   4.591  10.753  0.00  0.00    +0.000 A 
ATOM     33  H   UNL     1      45.643   4.026   7.563  0.00  0.00    +0.000 HD
ENDBRANCH  20  23
ENDBRANCH  18  19
ENDBRANCH   4  18
TORSDOF 7
ENDMDL
MODEL 8
REMARK VINA RESULT:    -7.271      2.316      2.713
REMARK INTER + INTRA:         -11.411
REMARK INTER:                 -10.352
REMARK INTRA:                  -1.058
REMARK UNBOUND:                -1.164
REMARK  Name = 
REMARK  8 active torsions:
REMARK  status: ('A' for Active; 'I' for Inactive)
REMARK    1  A    between atoms: C_1  and  C_2
REMARK    2  A    between atoms: C_2  and  N_3
REMARK    3  A    between atoms: C_2  and  C_11
REMARK    4  A    between atoms: N_3  and  C_4
REMARK    5  A    between atoms: C_4  and  C_5
REMARK    6  A    between atoms: C_14  and  C_15
REMARK    7  A    between atoms: C_15  and  N_16
REMARK    8  A    between atoms: C_17  and  C_19
REMARK                            x       y       z     vdW  Elec       q    Type
REMARK                         _______ _______ _______ _____ _____    ______ ____
ROOT
ATOM      1  C   UNL     1      45.465   5.384  12.012  0.00  0.00    +0.000 A 
ATOM      2  C   UNL     1      46.507   4.764  12.715  0.00  0.00    +0.000 A 
ATOM      3  C   UNL     1      47.403   5.501  13.495  0.00  0.00    +0.000 A 
ATOM      4  C   UNL     1      47.257   6.883  13.633  0.00  0.00    +0.000 A 
ATOM      5  C   UNL     1      46.274   7.527  12.884  0.00  0.00    +0.000 A 
ATOM      6  C   UNL     1      45.430   6.791  12.050  0.00  0.00    +0.000 A 
ENDROOT
BRANCH   1   8
ATOM      7  C   UNL     1      42.970   4.964  11.587  0.00  0.00    +0.000 C 
ATOM      8  C   UNL     1      44.420   4.592  11.213  0.00  0.00    +0.000 C 
BRANCH   8   9
ATOM      9  N   UNL     1      44.496   4.775   9.742  0.00  0.00    +0.000 NA
ATOM     10  H   UNL     1      45.370   5.249   9.521  0.00  0.00    +0.000 HD
BRANCH   9  11
ATOM     11  C   UNL     1      44.399   3.535   8.980  0.00  0.00    +0.000 C 
BRANCH  11  12
ATOM     12  C   UNL     1      45.728   2.925   8.514  0.00  0.00    +0.000 C 
ATOM     13  C   UNL     1      46.092   3.574   7.161  0.00  0.00    +0.000 C 
ATOM     14  C   UNL     1      47.357   2.980   6.562  0.00  0.00    +0.000 C 
ATOM     15  C   UNL     1      47.245   1.466   6.423  0.00  0.00    +0.000 C 
ATOM     16  C   UNL     1      46.894   0.809   7.754  0.00  0.00    +0.000 C 
ATOM     17  C   UNL     1      45.626   1.400   8.358  0.00  0.00    +0.000 C 
ENDBRANCH  11  12
ENDBRANCH   9  11
ENDBRANCH   8   9
ENDBRANCH   1   8
BRANCH   4  18
ATOM     18  C   UNL     1      48.185   7.675  14.508  0.00  0.00    +0.000 C 
BRANCH  18  19
ATOM     19  N   UNL     1      49.184   6.818  15.086  0.00  0.00    +0.000 N 
ATOM     20  C   UNL     1      49.242   6.615  16.438  0.00  0.00    +0.000 C 
ATOM     21  O   UNL     1      48.439   7.130  17.212  0.00  0.00    +0.000 OA
ATOM     22  H   UNL     1      49.986   6.585  14.509  0.00  0.00    +0.000 HD
BRANCH  20  23
ATOM     23  C   UNL     1      50.279   5.691  16.910  0.00  0.00    +0.000 A 
ATOM     24  C   UNL     1      51.506   6.195  17.321  0.00  0.00    +0.000 A 
ATOM     25  S   UNL     1      52.584   4.993  17.872  0.00  0.00    +0.000 S 
ATOM     26  C   UNL     1      51.462   3.757  17.549  0.00  0.00    +0.000 A 
ATOM     27  N   UNL     1      51.776   2.452  17.757  0.00  0.00    +0.000 NA
ATOM     28  C   UNL     1      50.846   1.616  17.440  0.00  0.00    +0.000 A 
ATOM     29  N   UNL     1      49.625   1.969  16.927  0.00  0.00    +0.000 N 
ATOM     30  C   UNL     1      49.256   3.278  16.706  0.00  0.00    +0.000 A 
ATOM     31  O   UNL     1      48.143   3.561  16.277  0.00  0.00    +0.000 OA
ATOM     32  C   UNL     1      50.276   4.254  17.036  0.00  0.00    +0.000 A 
ATOM     33  H   UNL     1      48.931   1.268  16.703  0.00  0.00    +0.000 HD
ENDBRANCH  20  23
ENDBRANCH  18  19
ENDBRANCH   4  18
TORSDOF 7
ENDMDL
MODEL 9
REMARK VINA RESULT:    -7.164      3.719      9.770
REMARK INTER + INTRA:         -11.260
REMARK INTER:                  -9.345
REMARK INTRA:                  -1.914
REMARK UNBOUND:                -1.164
REMARK  Name = 
REMARK  8 active torsions:
REMARK  status: ('A' for Active; 'I' for Inactive)
REMARK    1  A    between atoms: C_1  and  C_2
REMARK    2  A    between atoms: C_2  and  N_3
REMARK    3  A    between atoms: C_2  and  C_11
REMARK    4  A    between atoms: N_3  and  C_4
REMARK    5  A    between atoms: C_4  and  C_5
REMARK    6  A    between atoms: C_14  and  C_15
REMARK    7  A    between atoms: C_15  and  N_16
REMARK    8  A    between atoms: C_17  and  C_19
REMARK                            x       y       z     vdW  Elec       q    Type
REMARK                         _______ _______ _______ _____ _____    ______ ____
ROOT
ATOM      1  C   UNL     1      48.366   5.300  20.270  0.00  0.00    +0.000 A 
ATOM      2  C   UNL     1      47.308   5.753  19.467  0.00  0.00    +0.000 A 
ATOM      3  C   UNL     1      47.065   5.207  18.203  0.00  0.00    +0.000 A 
ATOM      4  C   UNL     1      47.846   4.158  17.718  0.00  0.00    +0.000 A 
ATOM      5  C   UNL     1      48.946   3.744  18.467  0.00  0.00    +0.000 A 
ATOM      6  C   UNL     1      49.226   4.345  19.696  0.00  0.00    +0.000 A 
ENDROOT
BRANCH   1   8
ATOM      7  C   UNL     1      50.085   5.728  22.124  0.00  0.00    +0.000 C 
ATOM      8  C   UNL     1      48.608   5.824  21.693  0.00  0.00    +0.000 C 
BRANCH   8   9
ATOM      9  N   UNL     1      48.238   7.246  21.899  0.00  0.00    +0.000 NA
ATOM     10  H   UNL     1      47.904   7.357  22.855  0.00  0.00    +0.000 HD
BRANCH   9  11
ATOM     11  C   UNL     1      49.321   8.189  21.640  0.00  0.00    +0.000 C 
BRANCH  11  12
ATOM     12  C   UNL     1      49.189   9.029  20.363  0.00  0.00    +0.000 C 
ATOM     13  C   UNL     1      47.683   9.241  20.095  0.00  0.00    +0.000 C 
ATOM     14  C   UNL     1      47.433   9.996  18.798  0.00  0.00    +0.000 C 
ATOM     15  C   UNL     1      48.101   9.302  17.616  0.00  0.00    +0.000 C 
ATOM     16  C   UNL     1      49.590   9.093  17.863  0.00  0.00    +0.000 C 
ATOM     17  C   UNL     1      49.847   8.336  19.160  0.00  0.00    +0.000 C 
ENDBRANCH  11  12
ENDBRANCH   9  11
ENDBRANCH   8   9
ENDBRANCH   1   8
BRANCH   4  18
ATOM     18  C   UNL     1      47.560   3.534  16.383  0.00  0.00    +0.000 C 
BRANCH  18  19
ATOM     19  N   UNL     1      46.957   4.494  15.498  0.00  0.00    +0.000 N 
ATOM     20  C   UNL     1      46.705   4.186  14.189  0.00  0.00    +0.000 C 
ATOM     21  O   UNL     1      46.958   3.081  13.717  0.00  0.00    +0.000 OA
ATOM     22  H   UNL     1      46.966   5.465  15.793  0.00  0.00    +0.000 HD
BRANCH  20  23
ATOM     23  C   UNL     1      46.053   5.230  13.393  0.00  0.00    +0.000 A 
ATOM     24  C   UNL     1      46.724   6.420  13.145  0.00  0.00    +0.000 A 
ATOM     25  S   UNL     1      45.841   7.511  12.176  0.00  0.00    +0.000 S 
ATOM     26  C   UNL     1      44.518   6.447  12.082  0.00  0.00    +0.000 A 
ATOM     27  N   UNL     1      43.383   6.793  11.423  0.00  0.00    +0.000 NA
ATOM     28  C   UNL     1      42.446   5.906  11.456  0.00  0.00    +0.000 A 
ATOM     29  N   UNL     1      42.542   4.700  12.098  0.00  0.00    +0.000 N 
ATOM     30  C   UNL     1      43.674   4.298  12.774  0.00  0.00    +0.000 A 
ATOM     31  O   UNL     1      43.737   3.197  13.309  0.00  0.00    +0.000 OA
ATOM     32  C   UNL     1      44.750   5.269  12.773  0.00  0.00    +0.000 A 
ATOM     33  H   UNL     1      41.775   4.039  12.085  0.00  0.00    +0.000 HD
ENDBRANCH  20  23
ENDBRANCH  18  19
ENDBRANCH   4  18
TORSDOF 7
ENDMDL
