MODEL 1
REMARK VINA RESULT:    -8.490      0.000      0.000
REMARK INTER + INTRA:         -12.600
REMARK INTER:                 -11.467
REMARK INTRA:                  -1.133
REMARK UNBOUND:                -1.133
REMARK  Name = 
REMARK  6 active torsions:
REMARK  status: ('A' for Active; 'I' for Inactive)
REMARK    1  A    between atoms: C_2  and  C_4
REMARK    2  A    between atoms: C_7  and  N_8
REMARK    3  A    between atoms: N_8  and  C_9
REMARK    4  A    between atoms: C_9  and  C_10
REMARK    5  A    between atoms: C_10  and  C_11
REMARK    6  A    between atoms: C_13  and  C_14
REMARK                            x       y       z     vdW  Elec       q    Type
REMARK                         _______ _______ _______ _____ _____    ______ ____
ROOT
ATOM      1  C   UNL     1      43.686   3.119  11.908  0.00  0.00    +0.000 C 
ENDROOT
BRANCH   1   2
ATOM      2  N   UNL     1      43.606   3.729  10.583  0.00  0.00    +0.000 N 
ATOM      3  H   UNL     1      42.661   3.851  10.228  0.00  0.00    +0.000 HD
BRANCH   2   7
ATOM      4  C   UNL     1      46.423   2.680   7.619  0.00  0.00    +0.000 A 
ATOM      5  C   UNL     1      45.809   1.678   8.367  0.00  0.00    +0.000 A 
ATOM      6  C   UNL     1      44.864   2.010   9.344  0.00  0.00    +0.000 A 
ATOM      7  C   UNL     1      44.489   3.338   9.574  0.00  0.00    +0.000 A 
ATOM      8  C   UNL     1      45.132   4.336   8.826  0.00  0.00    +0.000 A 
ATOM      9  C   UNL     1      46.094   4.016   7.861  0.00  0.00    +0.000 A 
BRANCH   4  11
ATOM     10  N   UNL     1      47.370   3.031   5.405  0.00  0.00    +0.000 N 
ATOM     11  C   UNL     1      47.456   2.367   6.599  0.00  0.00    +0.000 C 
ATOM     12  O   UNL     1      48.363   1.576   6.818  0.00  0.00    +0.000 OA
ATOM     13  H   UNL     1      48.131   2.883   4.755  0.00  0.00    +0.000 HD
ATOM     14  H   UNL     1      46.800   3.855   5.284  0.00  0.00    +0.000 HD
ENDBRANCH   4  11
ENDBRANCH   2   7
ENDBRANCH   1   2
BRANCH   1  15
ATOM     15  C   UNL     1      43.734   4.202  12.984  0.00  0.00    +0.000 C 
BRANCH  15  16
ATOM     16  C   UNL     1      44.856   5.184  12.765  0.00  0.00    +0.000 A 
ATOM     17  C   UNL     1      44.584   6.490  12.323  0.00  0.00    +0.000 A 
ATOM     18  C   UNL     1      45.598   7.459  12.180  0.00  0.00    +0.000 A 
ATOM     19  C   UNL     1      46.918   7.053  12.459  0.00  0.00    +0.000 A 
ATOM     20  C   UNL     1      47.210   5.743  12.851  0.00  0.00    +0.000 A 
ATOM     21  C   UNL     1      46.181   4.823  13.000  0.00  0.00    +0.000 A 
ATOM     22  F   UNL     1      46.475   3.574  13.386  0.00  0.00    +0.000 F 
BRANCH  18  23
ATOM     23  C   UNL     1      45.280   8.854  11.790  0.00  0.00    +0.000 A 
ATOM     24  C   UNL     1      46.148   9.917  12.110  0.00  0.00    +0.000 A 
ATOM     25  C   UNL     1      45.871  11.233  11.729  0.00  0.00    +0.000 A 
ATOM     26  C   UNL     1      44.722  11.518  11.002  0.00  0.00    +0.000 A 
ATOM     27  C   UNL     1      43.844  10.492  10.670  0.00  0.00    +0.000 A 
ATOM     28  C   UNL     1      44.116   9.178  11.067  0.00  0.00    +0.000 A 
ENDBRANCH  18  23
ENDBRANCH  15  16
ENDBRANCH   1  15
TORSDOF 6
ENDMDL
MODEL 2
REMARK VINA RESULT:    -8.402      2.434      4.765
REMARK INTER + INTRA:         -12.483
REMARK INTER:                 -11.357
REMARK INTRA:                  -1.126
REMARK UNBOUND:                -1.133
REMARK  Name = 
REMARK  6 active torsions:
REMARK  status: ('A' for Active; 'I' for Inactive)
REMARK    1  A    between atoms: C_2  and  C_4
REMARK    2  A    between atoms: C_7  and  N_8
REMARK    3  A    between atoms: N_8  and  C_9
REMARK    4  A    between atoms: C_9  and  C_10
REMARK    5  A    between atoms: C_10  and  C_11
REMARK    6  A    between atoms: C_13  and  C_14
REMARK                            x       y       z     vdW  Elec       q    Type
REMARK                         _______ _______ _______ _____ _____    ______ ____
ROOT
ATOM      1  C   UNL     1      43.931   3.443  11.749  0.00  0.00    +0.000 C 
ENDROOT
BRANCH   1   2
ATOM      2  N   UNL     1      43.661   3.494  10.313  0.00  0.00    +0.000 N 
ATOM      3  H   UNL     1      42.795   3.043  10.028  0.00  0.00    +0.000 HD
BRANCH   2   7
ATOM      4  C   UNL     1      46.638   2.659   7.440  0.00  0.00    +0.000 A 
ATOM      5  C   UNL     1      46.241   3.977   7.653  0.00  0.00    +0.000 A 
ATOM      6  C   UNL     1      45.265   4.270   8.611  0.00  0.00    +0.000 A 
ATOM      7  C   UNL     1      44.688   3.265   9.396  0.00  0.00    +0.000 A 
ATOM      8  C   UNL     1      45.084   1.941   9.154  0.00  0.00    +0.000 A 
ATOM      9  C   UNL     1      46.045   1.634   8.183  0.00  0.00    +0.000 A 
BRANCH   4  11
ATOM     10  N   UNL     1      47.676   3.082   5.280  0.00  0.00    +0.000 N 
ATOM     11  C   UNL     1      47.645   2.306   6.407  0.00  0.00    +0.000 C 
ATOM     12  O   UNL     1      48.435   1.385   6.561  0.00  0.00    +0.000 OA
ATOM     13  H   UNL     1      48.427   2.895   4.628  0.00  0.00    +0.000 HD
ATOM     14  H   UNL     1      47.222   3.983   5.230  0.00  0.00    +0.000 HD
ENDBRANCH   4  11
ENDBRANCH   2   7
ENDBRANCH   1   2
BRANCH   1  15
ATOM     15  C   UNL     1      43.924   4.854  12.335  0.00  0.00    +0.000 C 
BRANCH  15  16
ATOM     16  C   UNL     1      45.299   5.315  12.747  0.00  0.00    +0.000 A 
ATOM     17  C   UNL     1      45.861   4.883  13.960  0.00  0.00    +0.000 A 
ATOM     18  C   UNL     1      47.173   5.230  14.343  0.00  0.00    +0.000 A 
ATOM     19  C   UNL     1      47.894   6.072  13.474  0.00  0.00    +0.000 A 
ATOM     20  C   UNL     1      47.329   6.551  12.289  0.00  0.00    +0.000 A 
ATOM     21  C   UNL     1      46.041   6.170  11.936  0.00  0.00    +0.000 A 
ATOM     22  F   UNL     1      45.517   6.629  10.791  0.00  0.00    +0.000 F 
BRANCH  18  23
ATOM     23  C   UNL     1      47.778   4.698  15.588  0.00  0.00    +0.000 A 
ATOM     24  C   UNL     1      47.694   3.329  15.914  0.00  0.00    +0.000 A 
ATOM     25  C   UNL     1      48.279   2.811  17.072  0.00  0.00    +0.000 A 
ATOM     26  C   UNL     1      48.977   3.650  17.932  0.00  0.00    +0.000 A 
ATOM     27  C   UNL     1      49.078   5.006  17.641  0.00  0.00    +0.000 A 
ATOM     28  C   UNL     1      48.478   5.524  16.487  0.00  0.00    +0.000 A 
ENDBRANCH  18  23
ENDBRANCH  15  16
ENDBRANCH   1  15
TORSDOF 6
ENDMDL
MODEL 3
REMARK VINA RESULT:    -8.318      1.671      2.291
REMARK INTER + INTRA:         -12.369
REMARK INTER:                 -11.202
REMARK INTRA:                  -1.167
REMARK UNBOUND:                -1.133
REMARK  Name = 
REMARK  6 active torsions:
REMARK  status: ('A' for Active; 'I' for Inactive)
REMARK    1  A    between atoms: C_2  and  C_4
REMARK    2  A    between atoms: C_7  and  N_8
REMARK    3  A    between atoms: N_8  and  C_9
REMARK    4  A    between atoms: C_9  and  C_10
REMARK    5  A    between atoms: C_10  and  C_11
REMARK    6  A    between atoms: C_13  and  C_14
REMARK                            x       y       z     vdW  Elec       q    Type
REMARK                         _______ _______ _______ _____ _____    ______ ____
ROOT
ATOM      1  C   UNL     1      43.244   5.243  10.643  0.00  0.00    +0.000 C 
ENDROOT
BRANCH   1   2
ATOM      2  N   UNL     1      43.640   3.840  10.555  0.00  0.00    +0.000 N 
ATOM      3  H   UNL     1      43.851   3.401  11.448  0.00  0.00    +0.000 HD
BRANCH   2   7
ATOM      4  C   UNL     1      46.434   2.701   7.604  0.00  0.00    +0.000 A 
ATOM      5  C   UNL     1      45.842   1.724   8.400  0.00  0.00    +0.000 A 
ATOM      6  C   UNL     1      44.904   2.086   9.374  0.00  0.00    +0.000 A 
ATOM      7  C   UNL     1      44.515   3.418   9.552  0.00  0.00    +0.000 A 
ATOM      8  C   UNL     1      45.137   4.391   8.756  0.00  0.00    +0.000 A 
ATOM      9  C   UNL     1      46.092   4.043   7.793  0.00  0.00    +0.000 A 
BRANCH   4  11
ATOM     10  N   UNL     1      47.539   3.171   5.487  0.00  0.00    +0.000 N 
ATOM     11  C   UNL     1      47.459   2.359   6.585  0.00  0.00    +0.000 C 
ATOM     12  O   UNL     1      48.222   1.412   6.727  0.00  0.00    +0.000 OA
ATOM     13  H   UNL     1      48.301   2.987   4.847  0.00  0.00    +0.000 HD
ATOM     14  H   UNL     1      47.109   4.084   5.457  0.00  0.00    +0.000 HD
ENDBRANCH   4  11
ENDBRANCH   2   7
ENDBRANCH   1   2
BRANCH   1  15
ATOM     15  C   UNL     1      43.442   5.757  12.069  0.00  0.00    +0.000 C 
BRANCH  15  16
ATOM     16  C   UNL     1      44.889   5.748  12.489  0.00  0.00    +0.000 A 
ATOM     17  C   UNL     1      45.759   6.769  12.070  0.00  0.00    +0.000 A 
ATOM     18  C   UNL     1      47.098   6.838  12.504  0.00  0.00    +0.000 A 
ATOM     19  C   UNL     1      47.552   5.807  13.351  0.00  0.00    +0.000 A 
ATOM     20  C   UNL     1      46.713   4.758  13.735  0.00  0.00    +0.000 A 
ATOM     21  C   UNL     1      45.394   4.737  13.303  0.00  0.00    +0.000 A 
ATOM     22  F   UNL     1      44.598   3.729  13.689  0.00  0.00    +0.000 F 
BRANCH  18  23
ATOM     23  C   UNL     1      47.977   7.968  12.115  0.00  0.00    +0.000 A 
ATOM     24  C   UNL     1      49.317   7.753  11.734  0.00  0.00    +0.000 A 
ATOM     25  C   UNL     1      50.148   8.806  11.344  0.00  0.00    +0.000 A 
ATOM     26  C   UNL     1      49.655  10.104  11.311  0.00  0.00    +0.000 A 
ATOM     27  C   UNL     1      48.338  10.351  11.682  0.00  0.00    +0.000 A 
ATOM     28  C   UNL     1      47.512   9.296  12.087  0.00  0.00    +0.000 A 
ENDBRANCH  18  23
ENDBRANCH  15  16
ENDBRANCH   1  15
TORSDOF 6
ENDMDL
MODEL 4
REMARK VINA RESULT:    -7.939      3.508      7.260
REMARK INTER + INTRA:         -11.856
REMARK INTER:                 -10.948
REMARK INTRA:                  -0.908
REMARK UNBOUND:                -1.133
REMARK  Name = 
REMARK  6 active torsions:
REMARK  status: ('A' for Active; 'I' for Inactive)
REMARK    1  A    between atoms: C_2  and  C_4
REMARK    2  A    between atoms: C_7  and  N_8
REMARK    3  A    between atoms: N_8  and  C_9
REMARK    4  A    between atoms: C_9  and  C_10
REMARK    5  A    between atoms: C_10  and  C_11
REMARK    6  A    between atoms: C_13  and  C_14
REMARK                            x       y       z     vdW  Elec       q    Type
REMARK                         _______ _______ _______ _____ _____    ______ ____
ROOT
ATOM      1  C   UNL     1      46.408   6.984  11.630  0.00  0.00    +0.000 C 
ENDROOT
BRANCH   1   2
ATOM      2  N   UNL     1      46.872   7.194  13.000  0.00  0.00    +0.000 N 
ATOM      3  H   UNL     1      47.546   7.949  13.108  0.00  0.00    +0.000 HD
BRANCH   2   7
ATOM      4  C   UNL     1      47.729   4.002  15.624  0.00  0.00    +0.000 A 
ATOM      5  C   UNL     1      47.004   3.757  14.460  0.00  0.00    +0.000 A 
ATOM      6  C   UNL     1      46.724   4.803  13.575  0.00  0.00    +0.000 A 
ATOM      7  C   UNL     1      47.184   6.103  13.812  0.00  0.00    +0.000 A 
ATOM      8  C   UNL     1      47.895   6.336  15.000  0.00  0.00    +0.000 A 
ATOM      9  C   UNL     1      48.163   5.301  15.903  0.00  0.00    +0.000 A 
BRANCH   4  11
ATOM     10  N   UNL     1      47.098   2.731  17.601  0.00  0.00    +0.000 N 
ATOM     11  C   UNL     1      48.015   2.924  16.605  0.00  0.00    +0.000 C 
ATOM     12  O   UNL     1      49.009   2.215  16.515  0.00  0.00    +0.000 OA
ATOM     13  H   UNL     1      47.253   1.934  18.205  0.00  0.00    +0.000 HD
ATOM     14  H   UNL     1      46.166   3.118  17.562  0.00  0.00    +0.000 HD
ENDBRANCH   4  11
ENDBRANCH   2   7
ENDBRANCH   1   2
BRANCH   1  15
ATOM     15  C   UNL     1      44.899   6.743  11.617  0.00  0.00    +0.000 C 
BRANCH  15  16
ATOM     16  C   UNL     1      44.539   5.364  11.129  0.00  0.00    +0.000 A 
ATOM     17  C   UNL     1      45.191   4.810  10.014  0.00  0.00    +0.000 A 
ATOM     18  C   UNL     1      44.937   3.495   9.574  0.00  0.00    +0.000 A 
ATOM     19  C   UNL     1      43.960   2.761  10.276  0.00  0.00    +0.000 A 
ATOM     20  C   UNL     1      43.267   3.316  11.355  0.00  0.00    +0.000 A 
ATOM     21  C   UNL     1      43.561   4.608  11.771  0.00  0.00    +0.000 A 
ATOM     22  F   UNL     1      42.895   5.123  12.814  0.00  0.00    +0.000 F 
BRANCH  18  23
ATOM     23  C   UNL     1      45.694   2.900   8.446  0.00  0.00    +0.000 A 
ATOM     24  C   UNL     1      46.088   3.680   7.340  0.00  0.00    +0.000 A 
ATOM     25  C   UNL     1      46.821   3.138   6.282  0.00  0.00    +0.000 A 
ATOM     26  C   UNL     1      47.193   1.799   6.308  0.00  0.00    +0.000 A 
ATOM     27  C   UNL     1      46.819   1.001   7.384  0.00  0.00    +0.000 A 
ATOM     28  C   UNL     1      46.071   1.544   8.435  0.00  0.00    +0.000 A 
ENDBRANCH  18  23
ENDBRANCH  15  16
ENDBRANCH   1  15
TORSDOF 6
ENDMDL
MODEL 5
REMARK VINA RESULT:    -7.844      3.325      7.031
REMARK INTER + INTRA:         -11.728
REMARK INTER:                 -10.779
REMARK INTRA:                  -0.950
REMARK UNBOUND:                -1.133
REMARK  Name = 
REMARK  6 active torsions:
REMARK  status: ('A' for Active; 'I' for Inactive)
REMARK    1  A    between atoms: C_2  and  C_4
REMARK    2  A    between atoms: C_7  and  N_8
REMARK    3  A    between atoms: N_8  and  C_9
REMARK    4  A    between atoms: C_9  and  C_10
REMARK    5  A    between atoms: C_10  and  C_11
REMARK    6  A    between atoms: C_13  and  C_14
REMARK                            x       y       z     vdW  Elec       q    Type
REMARK                         _______ _______ _______ _____ _____    ______ ____
ROOT
ATOM      1  C   UNL     1      45.084   6.805  12.667  0.00  0.00    +0.000 C 
ENDROOT
BRANCH   1   2
ATOM      2  N   UNL     1      45.673   8.142  12.638  0.00  0.00    +0.000 N 
ATOM      3  H   UNL     1      45.101   8.847  12.179  0.00  0.00    +0.000 HD
BRANCH   2   7
ATOM      4  C   UNL     1      49.748   8.502  11.602  0.00  0.00    +0.000 A 
ATOM      5  C   UNL     1      48.961   9.647  11.697  0.00  0.00    +0.000 A 
ATOM      6  C   UNL     1      47.612   9.544  12.052  0.00  0.00    +0.000 A 
ATOM      7  C   UNL     1      47.028   8.307  12.349  0.00  0.00    +0.000 A 
ATOM      8  C   UNL     1      47.830   7.162  12.229  0.00  0.00    +0.000 A 
ATOM      9  C   UNL     1      49.176   7.252  11.854  0.00  0.00    +0.000 A 
BRANCH   4  11
ATOM     10  N   UNL     1      51.828   7.380  11.021  0.00  0.00    +0.000 N 
ATOM     11  C   UNL     1      51.175   8.569  11.194  0.00  0.00    +0.000 C 
ATOM     12  O   UNL     1      51.739   9.635  10.990  0.00  0.00    +0.000 OA
ATOM     13  H   UNL     1      52.768   7.434  10.651  0.00  0.00    +0.000 HD
ATOM     14  H   UNL     1      51.339   6.501  10.936  0.00  0.00    +0.000 HD
ENDBRANCH   4  11
ENDBRANCH   2   7
ENDBRANCH   1   2
BRANCH   1  15
ATOM     15  C   UNL     1      44.216   6.585  11.428  0.00  0.00    +0.000 C 
BRANCH  15  16
ATOM     16  C   UNL     1      44.145   5.135  11.024  0.00  0.00    +0.000 A 
ATOM     17  C   UNL     1      44.848   4.675   9.897  0.00  0.00    +0.000 A 
ATOM     18  C   UNL     1      44.869   3.313   9.532  0.00  0.00    +0.000 A 
ATOM     19  C   UNL     1      44.113   2.425  10.323  0.00  0.00    +0.000 A 
ATOM     20  C   UNL     1      43.368   2.876  11.416  0.00  0.00    +0.000 A 
ATOM     21  C   UNL     1      43.390   4.222  11.756  0.00  0.00    +0.000 A 
ATOM     22  F   UNL     1      42.679   4.639  12.813  0.00  0.00    +0.000 F 
BRANCH  18  23
ATOM     23  C   UNL     1      45.682   2.835   8.388  0.00  0.00    +0.000 A 
ATOM     24  C   UNL     1      46.012   3.691   7.319  0.00  0.00    +0.000 A 
ATOM     25  C   UNL     1      46.797   3.260   6.246  0.00  0.00    +0.000 A 
ATOM     26  C   UNL     1      47.285   1.959   6.222  0.00  0.00    +0.000 A 
ATOM     27  C   UNL     1      46.977   1.088   7.261  0.00  0.00    +0.000 A 
ATOM     28  C   UNL     1      46.178   1.519   8.326  0.00  0.00    +0.000 A 
ENDBRANCH  18  23
ENDBRANCH  15  16
ENDBRANCH   1  15
TORSDOF 6
ENDMDL
MODEL 6
REMARK VINA RESULT:    -7.742      3.805      7.577
REMARK INTER + INTRA:         -11.590
REMARK INTER:                 -10.664
REMARK INTRA:                  -0.926
REMARK UNBOUND:                -1.133
REMARK  Name = 
REMARK  6 active torsions:
REMARK  status: ('A' for Active; 'I' for Inactive)
REMARK    1  A    between atoms: C_2  and  C_4
REMARK    2  A    between atoms: C_7  and  N_8
REMARK    3  A    between atoms: N_8  and  C_9
REMARK    4  A    between atoms: C_9  and  C_10
REMARK    5  A    between atoms: C_10  and  C_11
REMARK    6  A    between atoms: C_13  and  C_14
REMARK                            x       y       z     vdW  Elec       q    Type
REMARK                         _______ _______ _______ _____ _____    ______ ____
ROOT
ATOM      1  C   UNL     1      45.457   6.826  12.840  0.00  0.00    +0.000 C 
ENDROOT
BRANCH   1   2
ATOM      2  N   UNL     1      46.742   6.133  12.785  0.00  0.00    +0.000 N 
ATOM      3  H   UNL     1      46.879   5.558  11.957  0.00  0.00    +0.000 HD
BRANCH   2   7
ATOM      4  C   UNL     1      48.247   4.462  16.357  0.00  0.00    +0.000 A 
ATOM      5  C   UNL     1      47.386   3.713  15.559  0.00  0.00    +0.000 A 
ATOM      6  C   UNL     1      46.889   4.249  14.366  0.00  0.00    +0.000 A 
ATOM      7  C   UNL     1      47.263   5.524  13.928  0.00  0.00    +0.000 A 
ATOM      8  C   UNL     1      48.115   6.273  14.754  0.00  0.00    +0.000 A 
ATOM      9  C   UNL     1      48.600   5.755  15.961  0.00  0.00    +0.000 A 
BRANCH   4  11
ATOM     10  N   UNL     1      49.861   3.122  17.590  0.00  0.00    +0.000 N 
ATOM     11  C   UNL     1      48.765   3.939  17.647  0.00  0.00    +0.000 C 
ATOM     12  O   UNL     1      48.260   4.244  18.718  0.00  0.00    +0.000 OA
ATOM     13  H   UNL     1      50.264   2.850  18.477  0.00  0.00    +0.000 HD
ATOM     14  H   UNL     1      50.444   3.054  16.768  0.00  0.00    +0.000 HD
ENDBRANCH   4  11
ENDBRANCH   2   7
ENDBRANCH   1   2
BRANCH   1  15
ATOM     15  C   UNL     1      44.765   6.761  11.479  0.00  0.00    +0.000 C 
BRANCH  15  16
ATOM     16  C   UNL     1      44.496   5.346  11.036  0.00  0.00    +0.000 A 
ATOM     17  C   UNL     1      45.169   4.806   9.927  0.00  0.00    +0.000 A 
ATOM     18  C   UNL     1      45.001   3.464   9.529  0.00  0.00    +0.000 A 
ATOM     19  C   UNL     1      44.089   2.685  10.269  0.00  0.00    +0.000 A 
ATOM     20  C   UNL     1      43.375   3.222  11.343  0.00  0.00    +0.000 A 
ATOM     21  C   UNL     1      43.583   4.543  11.717  0.00  0.00    +0.000 A 
ATOM     22  F   UNL     1      42.899   5.042  12.756  0.00  0.00    +0.000 F 
BRANCH  18  23
ATOM     23  C   UNL     1      45.781   2.891   8.405  0.00  0.00    +0.000 A 
ATOM     24  C   UNL     1      46.165   1.535   8.400  0.00  0.00    +0.000 A 
ATOM     25  C   UNL     1      46.879   0.977   7.337  0.00  0.00    +0.000 A 
ATOM     26  C   UNL     1      47.218   1.761   6.241  0.00  0.00    +0.000 A 
ATOM     27  C   UNL     1      46.855   3.103   6.214  0.00  0.00    +0.000 A 
ATOM     28  C   UNL     1      46.152   3.662   7.288  0.00  0.00    +0.000 A 
ENDBRANCH  18  23
ENDBRANCH  15  16
ENDBRANCH   1  15
TORSDOF 6
ENDMDL
MODEL 7
REMARK VINA RESULT:    -7.474      2.411      3.621
REMARK INTER + INTRA:         -11.229
REMARK INTER:                 -10.724
REMARK INTRA:                  -0.504
REMARK UNBOUND:                -1.133
REMARK  Name = 
REMARK  6 active torsions:
REMARK  status: ('A' for Active; 'I' for Inactive)
REMARK    1  A    between atoms: C_2  and  C_4
REMARK    2  A    between atoms: C_7  and  N_8
REMARK    3  A    between atoms: N_8  and  C_9
REMARK    4  A    between atoms: C_9  and  C_10
REMARK    5  A    between atoms: C_10  and  C_11
REMARK    6  A    between atoms: C_13  and  C_14
REMARK                            x       y       z     vdW  Elec       q    Type
REMARK                         _______ _______ _______ _____ _____    ______ ____
ROOT
ATOM      1  C   UNL     1      44.093   5.556  11.101  0.00  0.00    +0.000 C 
ENDROOT
BRANCH   1   2
ATOM      2  N   UNL     1      43.677   4.724   9.974  0.00  0.00    +0.000 N 
ATOM      3  H   UNL     1      42.822   4.195  10.129  0.00  0.00    +0.000 HD
BRANCH   2   7
ATOM      4  C   UNL     1      46.370   2.349   7.756  0.00  0.00    +0.000 A 
ATOM      5  C   UNL     1      46.334   3.726   7.543  0.00  0.00    +0.000 A 
ATOM      6  C   UNL     1      45.455   4.527   8.280  0.00  0.00    +0.000 A 
ATOM      7  C   UNL     1      44.621   3.982   9.262  0.00  0.00    +0.000 A 
ATOM      8  C   UNL     1      44.655   2.591   9.448  0.00  0.00    +0.000 A 
ATOM      9  C   UNL     1      45.515   1.778   8.701  0.00  0.00    +0.000 A 
BRANCH   4  11
ATOM     10  N   UNL     1      48.397   2.028   6.448  0.00  0.00    +0.000 N 
ATOM     11  C   UNL     1      47.264   1.463   6.967  0.00  0.00    +0.000 C 
ATOM     12  O   UNL     1      47.022   0.275   6.809  0.00  0.00    +0.000 OA
ATOM     13  H   UNL     1      49.046   1.396   5.996  0.00  0.00    +0.000 HD
ATOM     14  H   UNL     1      48.750   2.920   6.762  0.00  0.00    +0.000 HD
ENDBRANCH   4  11
ENDBRANCH   2   7
ENDBRANCH   1   2
BRANCH   1  15
ATOM     15  C   UNL     1      45.585   5.870  11.001  0.00  0.00    +0.000 C 
BRANCH  15  16
ATOM     16  C   UNL     1      46.315   5.617  12.295  0.00  0.00    +0.000 A 
ATOM     17  C   UNL     1      47.139   6.609  12.853  0.00  0.00    +0.000 A 
ATOM     18  C   UNL     1      47.777   6.440  14.099  0.00  0.00    +0.000 A 
ATOM     19  C   UNL     1      47.590   5.206  14.753  0.00  0.00    +0.000 A 
ATOM     20  C   UNL     1      46.814   4.191  14.186  0.00  0.00    +0.000 A 
ATOM     21  C   UNL     1      46.185   4.404  12.967  0.00  0.00    +0.000 A 
ATOM     22  F   UNL     1      45.436   3.425  12.441  0.00  0.00    +0.000 F 
BRANCH  18  23
ATOM     23  C   UNL     1      48.577   7.529  14.709  0.00  0.00    +0.000 A 
ATOM     24  C   UNL     1      48.148   8.870  14.651  0.00  0.00    +0.000 A 
ATOM     25  C   UNL     1      48.881   9.903  15.241  0.00  0.00    +0.000 A 
ATOM     26  C   UNL     1      50.060   9.619  15.920  0.00  0.00    +0.000 A 
ATOM     27  C   UNL     1      50.512   8.306  15.995  0.00  0.00    +0.000 A 
ATOM     28  C   UNL     1      49.783   7.275  15.390  0.00  0.00    +0.000 A 
ENDBRANCH  18  23
ENDBRANCH  15  16
ENDBRANCH   1  15
TORSDOF 6
ENDMDL
MODEL 8
REMARK VINA RESULT:    -7.331      2.138      3.547
REMARK INTER + INTRA:         -11.036
REMARK INTER:                 -10.117
REMARK INTRA:                  -0.919
REMARK UNBOUND:                -1.133
REMARK  Name = 
REMARK  6 active torsions:
REMARK  status: ('A' for Active; 'I' for Inactive)
REMARK    1  A    between atoms: C_2  and  C_4
REMARK    2  A    between atoms: C_7  and  N_8
REMARK    3  A    between atoms: N_8  and  C_9
REMARK    4  A    between atoms: C_9  and  C_10
REMARK    5  A    between atoms: C_10  and  C_11
REMARK    6  A    between atoms: C_13  and  C_14
REMARK                            x       y       z     vdW  Elec       q    Type
REMARK                         _______ _______ _______ _____ _____    ______ ____
ROOT
ATOM      1  C   UNL     1      44.244   4.955  11.340  0.00  0.00    +0.000 C 
ENDROOT
BRANCH   1   2
ATOM      2  N   UNL     1      43.773   4.067  10.280  0.00  0.00    +0.000 N 
ATOM      3  H   UNL     1      43.116   3.352  10.585  0.00  0.00    +0.000 HD
BRANCH   2   7
ATOM      4  C   UNL     1      46.625   2.702   7.484  0.00  0.00    +0.000 A 
ATOM      5  C   UNL     1      45.920   1.778   8.252  0.00  0.00    +0.000 A 
ATOM      6  C   UNL     1      44.963   2.215   9.173  0.00  0.00    +0.000 A 
ATOM      7  C   UNL     1      44.666   3.574   9.326  0.00  0.00    +0.000 A 
ATOM      8  C   UNL     1      45.399   4.492   8.560  0.00  0.00    +0.000 A 
ATOM      9  C   UNL     1      46.375   4.067   7.651  0.00  0.00    +0.000 A 
BRANCH   4  11
ATOM     10  N   UNL     1      47.808   3.021   5.381  0.00  0.00    +0.000 N 
ATOM     11  C   UNL     1      47.673   2.277   6.522  0.00  0.00    +0.000 C 
ATOM     12  O   UNL     1      48.407   1.324   6.744  0.00  0.00    +0.000 OA
ATOM     13  H   UNL     1      48.586   2.782   4.780  0.00  0.00    +0.000 HD
ATOM     14  H   UNL     1      47.402   3.940   5.284  0.00  0.00    +0.000 HD
ENDBRANCH   4  11
ENDBRANCH   2   7
ENDBRANCH   1   2
BRANCH   1  15
ATOM     15  C   UNL     1      43.479   6.277  11.297  0.00  0.00    +0.000 C 
BRANCH  15  16
ATOM     16  C   UNL     1      44.374   7.469  11.516  0.00  0.00    +0.000 A 
ATOM     17  C   UNL     1      45.653   7.307  12.077  0.00  0.00    +0.000 A 
ATOM     18  C   UNL     1      46.548   8.386  12.226  0.00  0.00    +0.000 A 
ATOM     19  C   UNL     1      46.092   9.658  11.827  0.00  0.00    +0.000 A 
ATOM     20  C   UNL     1      44.805   9.843  11.315  0.00  0.00    +0.000 A 
ATOM     21  C   UNL     1      43.960   8.752  11.164  0.00  0.00    +0.000 A 
ATOM     22  F   UNL     1      42.732   8.944  10.662  0.00  0.00    +0.000 F 
BRANCH  18  23
ATOM     23  C   UNL     1      47.922   8.180  12.745  0.00  0.00    +0.000 A 
ATOM     24  C   UNL     1      49.046   8.669  12.049  0.00  0.00    +0.000 A 
ATOM     25  C   UNL     1      50.344   8.502  12.539  0.00  0.00    +0.000 A 
ATOM     26  C   UNL     1      50.551   7.850  13.749  0.00  0.00    +0.000 A 
ATOM     27  C   UNL     1      49.464   7.354  14.460  0.00  0.00    +0.000 A 
ATOM     28  C   UNL     1      48.166   7.510  13.958  0.00  0.00    +0.000 A 
ENDBRANCH  18  23
ENDBRANCH  15  16
ENDBRANCH   1  15
TORSDOF 6
ENDMDL
MODEL 9
REMARK VINA RESULT:    -7.059      4.903      8.202
REMARK INTER + INTRA:         -10.667
REMARK INTER:                  -9.991
REMARK INTRA:                  -0.676
REMARK UNBOUND:                -1.133
REMARK  Name = 
REMARK  6 active torsions:
REMARK  status: ('A' for Active; 'I' for Inactive)
REMARK    1  A    between atoms: C_2  and  C_4
REMARK    2  A    between atoms: C_7  and  N_8
REMARK    3  A    between atoms: N_8  and  C_9
REMARK    4  A    between atoms: C_9  and  C_10
REMARK    5  A    between atoms: C_10  and  C_11
REMARK    6  A    between atoms: C_13  and  C_14
REMARK                            x       y       z     vdW  Elec       q    Type
REMARK                         _______ _______ _______ _____ _____    ______ ____
ROOT
ATOM      1  C   UNL     1      46.792   4.343  14.009  0.00  0.00    +0.000 C 
ENDROOT
BRANCH   1   2
ATOM      2  N   UNL     1      46.696   4.265  15.465  0.00  0.00    +0.000 N 
ATOM      3  H   UNL     1      45.997   4.878  15.878  0.00  0.00    +0.000 HD
BRANCH   2   7
ATOM      4  C   UNL     1      50.104   4.219  17.955  0.00  0.00    +0.000 A 
ATOM      5  C   UNL     1      49.479   3.019  17.626  0.00  0.00    +0.000 A 
ATOM      6  C   UNL     1      48.356   3.017  16.791  0.00  0.00    +0.000 A 
ATOM      7  C   UNL     1      47.853   4.203  16.243  0.00  0.00    +0.000 A 
ATOM      8  C   UNL     1      48.482   5.405  16.601  0.00  0.00    +0.000 A 
ATOM      9  C   UNL     1      49.593   5.419  17.453  0.00  0.00    +0.000 A 
BRANCH   4  11
ATOM     10  N   UNL     1      52.110   3.178  18.856  0.00  0.00    +0.000 N 
ATOM     11  C   UNL     1      51.276   4.263  18.866  0.00  0.00    +0.000 C 
ATOM     12  O   UNL     1      51.509   5.232  19.575  0.00  0.00    +0.000 OA
ATOM     13  H   UNL     1      52.955   3.258  19.408  0.00  0.00    +0.000 HD
ATOM     14  H   UNL     1      52.091   2.487  18.121  0.00  0.00    +0.000 HD
ENDBRANCH   4  11
ENDBRANCH   2   7
ENDBRANCH   1   2
BRANCH   1  15
ATOM     15  C   UNL     1      45.898   5.465  13.482  0.00  0.00    +0.000 C 
BRANCH  15  16
ATOM     16  C   UNL     1      45.058   5.031  12.309  0.00  0.00    +0.000 A 
ATOM     17  C   UNL     1      45.661   4.483  11.165  0.00  0.00    +0.000 A 
ATOM     18  C   UNL     1      44.904   3.995  10.080  0.00  0.00    +0.000 A 
ATOM     19  C   UNL     1      43.504   4.118  10.168  0.00  0.00    +0.000 A 
ATOM     20  C   UNL     1      42.892   4.707  11.277  0.00  0.00    +0.000 A 
ATOM     21  C   UNL     1      43.671   5.157  12.335  0.00  0.00    +0.000 A 
ATOM     22  F   UNL     1      43.069   5.711  13.397  0.00  0.00    +0.000 F 
BRANCH  18  23
ATOM     23  C   UNL     1      45.556   3.346   8.916  0.00  0.00    +0.000 A 
ATOM     24  C   UNL     1      46.029   4.105   7.827  0.00  0.00    +0.000 A 
ATOM     25  C   UNL     1      46.666   3.508   6.736  0.00  0.00    +0.000 A 
ATOM     26  C   UNL     1      46.859   2.133   6.712  0.00  0.00    +0.000 A 
ATOM     27  C   UNL     1      46.403   1.354   7.770  0.00  0.00    +0.000 A 
ATOM     28  C   UNL     1      45.752   1.953   8.854  0.00  0.00    +0.000 A 
ENDBRANCH  18  23
ENDBRANCH  15  16
ENDBRANCH   1  15
TORSDOF 6
ENDMDL
