MODEL 1
REMARK VINA RESULT:    -7.817      0.000      0.000
REMARK INTER + INTRA:         -12.444
REMARK INTER:                 -11.015
REMARK INTRA:                  -1.429
REMARK UNBOUND:                -1.429
REMARK  Name = 
REMARK  7 active torsions:
REMARK  status: ('A' for Active; 'I' for Inactive)
REMARK    1  A    between atoms: C_2  and  C_4
REMARK    2  A    between atoms: C_9  and  N_10
REMARK    3  A    between atoms: N_10  and  C_11
REMARK    4  A    between atoms: C_11  and  C_12
REMARK    5  A    between atoms: C_15  and  C_16
REMARK    6  A    between atoms: C_16  and  N_17
REMARK    7  A    between atoms: C_18  and  C_20
REMARK                            x       y       z     vdW  Elec       q    Type
REMARK                         _______ _______ _______ _____ _____    ______ ____
ROOT
ATOM      1  C   UNL     1      49.845   6.815  16.039  0.00  0.00    +0.000 A 
ATOM      2  C   UNL     1      48.547   6.507  15.608  0.00  0.00    +0.000 A 
ATOM      3  C   UNL     1      48.126   6.855  14.320  0.00  0.00    +0.000 A 
ATOM      4  C   UNL     1      49.000   7.499  13.434  0.00  0.00    +0.000 A 
ATOM      5  C   UNL     1      50.287   7.831  13.877  0.00  0.00    +0.000 A 
ATOM      6  C   UNL     1      50.709   7.483  15.160  0.00  0.00    +0.000 A 
ENDROOT
BRANCH   1   7
ATOM      7  C   UNL     1      50.316   6.451  17.426  0.00  0.00    +0.000 C 
BRANCH   7   8
ATOM      8  N   UNL     1      49.559   5.301  17.932  0.00  0.00    +0.000 N 
ATOM      9  H   UNL     1      49.363   5.435  18.927  0.00  0.00    +0.000 HD
BRANCH   8  15
ATOM     10  C   UNL     1      49.463   2.933  17.180  0.00  0.00    +0.000 A 
ATOM     11  C   UNL     1      50.092   1.680  17.054  0.00  0.00    +0.000 A 
ATOM     12  C   UNL     1      51.436   1.521  17.386  0.00  0.00    +0.000 A 
ATOM     13  C   UNL     1      52.168   2.617  17.818  0.00  0.00    +0.000 A 
ATOM     14  C   UNL     1      51.541   3.858  17.971  0.00  0.00    +0.000 A 
ATOM     15  C   UNL     1      50.165   4.034  17.728  0.00  0.00    +0.000 A 
BRANCH  10  17
ATOM     16  N   UNL     1      47.072   2.852  17.651  0.00  0.00    +0.000 N 
ATOM     17  C   UNL     1      48.050   2.994  16.707  0.00  0.00    +0.000 C 
ATOM     18  O   UNL     1      47.765   3.225  15.539  0.00  0.00    +0.000 OA
ATOM     19  H   UNL     1      46.131   3.090  17.365  0.00  0.00    +0.000 HD
ATOM     20  H   UNL     1      47.301   2.926  18.638  0.00  0.00    +0.000 HD
ENDBRANCH  10  17
ENDBRANCH   8  15
ENDBRANCH   7   8
ENDBRANCH   1   7
BRANCH   4  21
ATOM     21  C   UNL     1      48.556   7.892  12.049  0.00  0.00    +0.000 C 
BRANCH  21  22
ATOM     22  N   UNL     1      47.761   6.844  11.465  0.00  0.00    +0.000 N 
ATOM     23  C   UNL     1      46.393   6.906  11.421  0.00  0.00    +0.000 C 
ATOM     24  O   UNL     1      45.767   7.877  11.835  0.00  0.00    +0.000 OA
ATOM     25  H   UNL     1      48.219   5.947  11.350  0.00  0.00    +0.000 HD
BRANCH  23  26
ATOM     26  C   UNL     1      45.722   5.768  10.778  0.00  0.00    +0.000 A 
ATOM     27  C   UNL     1      45.873   5.557   9.415  0.00  0.00    +0.000 A 
ATOM     28  S   UNL     1      45.114   4.134   8.857  0.00  0.00    +0.000 S 
ATOM     29  C   UNL     1      44.509   3.782  10.408  0.00  0.00    +0.000 A 
ATOM     30  N   UNL     1      43.755   2.672  10.631  0.00  0.00    +0.000 NA
ATOM     31  C   UNL     1      43.339   2.544  11.847  0.00  0.00    +0.000 A 
ATOM     32  N   UNL     1      43.602   3.430  12.859  0.00  0.00    +0.000 N 
ATOM     33  C   UNL     1      44.368   4.555  12.684  0.00  0.00    +0.000 A 
ATOM     34  O   UNL     1      44.601   5.316  13.618  0.00  0.00    +0.000 OA
ATOM     35  C   UNL     1      44.876   4.738  11.336  0.00  0.00    +0.000 A 
ATOM     36  H   UNL     1      43.242   3.278  13.790  0.00  0.00    +0.000 HD
ENDBRANCH  23  26
ENDBRANCH  21  22
ENDBRANCH   4  21
TORSDOF 7
ENDMDL
MODEL 2
REMARK VINA RESULT:    -7.798      3.245      8.633
REMARK INTER + INTRA:         -12.418
REMARK INTER:                 -11.021
REMARK INTRA:                  -1.397
REMARK UNBOUND:                -1.429
REMARK  Name = 
REMARK  7 active torsions:
REMARK  status: ('A' for Active; 'I' for Inactive)
REMARK    1  A    between atoms: C_2  and  C_4
REMARK    2  A    between atoms: C_9  and  N_10
REMARK    3  A    between atoms: N_10  and  C_11
REMARK    4  A    between atoms: C_11  and  C_12
REMARK    5  A    between atoms: C_15  and  C_16
REMARK    6  A    between atoms: C_16  and  N_17
REMARK    7  A    between atoms: C_18  and  C_20
REMARK                            x       y       z     vdW  Elec       q    Type
REMARK                         _______ _______ _______ _____ _____    ______ ____
ROOT
ATOM      1  C   UNL     1      46.876   5.948  12.670  0.00  0.00    +0.000 A 
ATOM      2  C   UNL     1      46.263   4.788  13.164  0.00  0.00    +0.000 A 
ATOM      3  C   UNL     1      46.535   4.339  14.460  0.00  0.00    +0.000 A 
ATOM      4  C   UNL     1      47.410   5.051  15.292  0.00  0.00    +0.000 A 
ATOM      5  C   UNL     1      48.043   6.194  14.787  0.00  0.00    +0.000 A 
ATOM      6  C   UNL     1      47.770   6.644  13.495  0.00  0.00    +0.000 A 
ENDROOT
BRANCH   1   7
ATOM      7  C   UNL     1      46.597   6.447  11.273  0.00  0.00    +0.000 C 
BRANCH   7   8
ATOM      8  N   UNL     1      45.274   5.994  10.828  0.00  0.00    +0.000 N 
ATOM      9  H   UNL     1      44.706   5.754  11.644  0.00  0.00    +0.000 HD
BRANCH   8  15
ATOM     10  C   UNL     1      44.463   3.767  10.078  0.00  0.00    +0.000 A 
ATOM     11  C   UNL     1      44.547   2.695   9.170  0.00  0.00    +0.000 A 
ATOM     12  C   UNL     1      45.368   2.774   8.047  0.00  0.00    +0.000 A 
ATOM     13  C   UNL     1      46.088   3.936   7.808  0.00  0.00    +0.000 A 
ATOM     14  C   UNL     1      46.028   4.995   8.720  0.00  0.00    +0.000 A 
ATOM     15  C   UNL     1      45.277   4.913   9.909  0.00  0.00    +0.000 A 
BRANCH  10  17
ATOM     16  N   UNL     1      43.556   2.435  11.907  0.00  0.00    +0.000 N 
ATOM     17  C   UNL     1      43.482   3.594  11.188  0.00  0.00    +0.000 C 
ATOM     18  O   UNL     1      42.685   4.472  11.494  0.00  0.00    +0.000 OA
ATOM     19  H   UNL     1      43.031   2.406  12.772  0.00  0.00    +0.000 HD
ATOM     20  H   UNL     1      44.372   1.836  11.827  0.00  0.00    +0.000 HD
ENDBRANCH  10  17
ENDBRANCH   8  15
ENDBRANCH   7   8
ENDBRANCH   1   7
BRANCH   4  21
ATOM     21  C   UNL     1      47.723   4.571  16.686  0.00  0.00    +0.000 C 
BRANCH  21  22
ATOM     22  N   UNL     1      49.127   4.279  16.809  0.00  0.00    +0.000 N 
ATOM     23  C   UNL     1      49.802   4.438  17.990  0.00  0.00    +0.000 C 
ATOM     24  O   UNL     1      49.243   4.793  19.023  0.00  0.00    +0.000 OA
ATOM     25  H   UNL     1      49.651   4.230  15.943  0.00  0.00    +0.000 HD
BRANCH  23  26
ATOM     26  C   UNL     1      51.228   4.083  17.964  0.00  0.00    +0.000 A 
ATOM     27  C   UNL     1      52.187   5.049  18.231  0.00  0.00    +0.000 A 
ATOM     28  S   UNL     1      53.780   4.439  18.263  0.00  0.00    +0.000 S 
ATOM     29  C   UNL     1      53.248   2.873  17.863  0.00  0.00    +0.000 A 
ATOM     30  N   UNL     1      54.129   1.846  17.730  0.00  0.00    +0.000 NA
ATOM     31  C   UNL     1      53.592   0.720  17.395  0.00  0.00    +0.000 A 
ATOM     32  N   UNL     1      52.252   0.530  17.175  0.00  0.00    +0.000 N 
ATOM     33  C   UNL     1      51.325   1.533  17.311  0.00  0.00    +0.000 A 
ATOM     34  O   UNL     1      50.130   1.322  17.127  0.00  0.00    +0.000 OA
ATOM     35  C   UNL     1      51.876   2.818  17.702  0.00  0.00    +0.000 A 
ATOM     36  H   UNL     1      51.892  -0.375  16.909  0.00  0.00    +0.000 HD
ENDBRANCH  23  26
ENDBRANCH  21  22
ENDBRANCH   4  21
TORSDOF 7
ENDMDL
MODEL 3
REMARK VINA RESULT:    -7.675      3.930      8.530
REMARK INTER + INTRA:         -12.244
REMARK INTER:                 -10.861
REMARK INTRA:                  -1.383
REMARK UNBOUND:                -1.429
REMARK  Name = 
REMARK  7 active torsions:
REMARK  status: ('A' for Active; 'I' for Inactive)
REMARK    1  A    between atoms: C_2  and  C_4
REMARK    2  A    between atoms: C_9  and  N_10
REMARK    3  A    between atoms: N_10  and  C_11
REMARK    4  A    between atoms: C_11  and  C_12
REMARK    5  A    between atoms: C_15  and  C_16
REMARK    6  A    between atoms: C_16  and  N_17
REMARK    7  A    between atoms: C_18  and  C_20
REMARK                            x       y       z     vdW  Elec       q    Type
REMARK                         _______ _______ _______ _____ _____    ______ ____
ROOT
ATOM      1  C   UNL     1      46.684   6.001  12.302  0.00  0.00    +0.000 A 
ATOM      2  C   UNL     1      46.064   4.911  12.929  0.00  0.00    +0.000 A 
ATOM      3  C   UNL     1      46.458   4.513  14.210  0.00  0.00    +0.000 A 
ATOM      4  C   UNL     1      47.464   5.208  14.895  0.00  0.00    +0.000 A 
ATOM      5  C   UNL     1      48.101   6.279  14.256  0.00  0.00    +0.000 A 
ATOM      6  C   UNL     1      47.707   6.679  12.978  0.00  0.00    +0.000 A 
ENDROOT
BRANCH   1   7
ATOM      7  C   UNL     1      46.274   6.444  10.918  0.00  0.00    +0.000 C 
BRANCH   7   8
ATOM      8  N   UNL     1      45.014   5.799  10.532  0.00  0.00    +0.000 N 
ATOM      9  H   UNL     1      44.472   5.585  11.372  0.00  0.00    +0.000 HD
BRANCH   8  15
ATOM     10  C   UNL     1      44.466   3.427  10.029  0.00  0.00    +0.000 A 
ATOM     11  C   UNL     1      44.677   2.280   9.240  0.00  0.00    +0.000 A 
ATOM     12  C   UNL     1      45.489   2.332   8.109  0.00  0.00    +0.000 A 
ATOM     13  C   UNL     1      46.073   3.535   7.743  0.00  0.00    +0.000 A 
ATOM     14  C   UNL     1      45.888   4.672   8.537  0.00  0.00    +0.000 A 
ATOM     15  C   UNL     1      45.145   4.634   9.733  0.00  0.00    +0.000 A 
BRANCH  10  17
ATOM     16  N   UNL     1      43.509   2.061  11.808  0.00  0.00    +0.000 N 
ATOM     17  C   UNL     1      43.505   3.263  11.158  0.00  0.00    +0.000 C 
ATOM     18  O   UNL     1      42.786   4.179  11.538  0.00  0.00    +0.000 OA
ATOM     19  H   UNL     1      43.008   2.022  12.686  0.00  0.00    +0.000 HD
ATOM     20  H   UNL     1      44.275   1.409  11.669  0.00  0.00    +0.000 HD
ENDBRANCH  10  17
ENDBRANCH   8  15
ENDBRANCH   7   8
ENDBRANCH   1   7
BRANCH   4  21
ATOM     21  C   UNL     1      47.908   4.782  16.271  0.00  0.00    +0.000 C 
BRANCH  21  22
ATOM     22  N   UNL     1      47.616   5.813  17.231  0.00  0.00    +0.000 N 
ATOM     23  C   UNL     1      48.566   6.296  18.092  0.00  0.00    +0.000 C 
ATOM     24  O   UNL     1      49.732   5.913  18.064  0.00  0.00    +0.000 OA
ATOM     25  H   UNL     1      46.636   5.963  17.443  0.00  0.00    +0.000 HD
BRANCH  23  26
ATOM     26  C   UNL     1      48.122   7.360  19.002  0.00  0.00    +0.000 A 
ATOM     27  C   UNL     1      47.911   7.079  20.344  0.00  0.00    +0.000 A 
ATOM     28  S   UNL     1      47.503   8.450  21.274  0.00  0.00    +0.000 S 
ATOM     29  C   UNL     1      47.536   9.458  19.903  0.00  0.00    +0.000 A 
ATOM     30  N   UNL     1      47.271  10.788  20.003  0.00  0.00    +0.000 NA
ATOM     31  C   UNL     1      47.302  11.426  18.881  0.00  0.00    +0.000 A 
ATOM     32  N   UNL     1      47.569  10.853  17.665  0.00  0.00    +0.000 N 
ATOM     33  C   UNL     1      47.856   9.519  17.517  0.00  0.00    +0.000 A 
ATOM     34  O   UNL     1      48.111   9.043  16.415  0.00  0.00    +0.000 OA
ATOM     35  C   UNL     1      47.849   8.757  18.753  0.00  0.00    +0.000 A 
ATOM     36  H   UNL     1      47.574  11.405  16.820  0.00  0.00    +0.000 HD
ENDBRANCH  23  26
ENDBRANCH  21  22
ENDBRANCH   4  21
TORSDOF 7
ENDMDL
MODEL 4
REMARK VINA RESULT:    -7.561      1.679      1.891
REMARK INTER + INTRA:         -12.083
REMARK INTER:                 -10.147
REMARK INTRA:                  -1.936
REMARK UNBOUND:                -1.429
REMARK  Name = 
REMARK  7 active torsions:
REMARK  status: ('A' for Active; 'I' for Inactive)
REMARK    1  A    between atoms: C_2  and  C_4
REMARK    2  A    between atoms: C_9  and  N_10
REMARK    3  A    between atoms: N_10  and  C_11
REMARK    4  A    between atoms: C_11  and  C_12
REMARK    5  A    between atoms: C_15  and  C_16
REMARK    6  A    between atoms: C_16  and  N_17
REMARK    7  A    between atoms: C_18  and  C_20
REMARK                            x       y       z     vdW  Elec       q    Type
REMARK                         _______ _______ _______ _____ _____    ______ ____
ROOT
ATOM      1  C   UNL     1      49.671   7.204  17.186  0.00  0.00    +0.000 A 
ATOM      2  C   UNL     1      50.184   6.882  15.921  0.00  0.00    +0.000 A 
ATOM      3  C   UNL     1      49.648   7.468  14.769  0.00  0.00    +0.000 A 
ATOM      4  C   UNL     1      48.604   8.398  14.862  0.00  0.00    +0.000 A 
ATOM      5  C   UNL     1      48.075   8.697  16.124  0.00  0.00    +0.000 A 
ATOM      6  C   UNL     1      48.610   8.116  17.274  0.00  0.00    +0.000 A 
ENDROOT
BRANCH   1   7
ATOM      7  C   UNL     1      50.234   6.580  18.440  0.00  0.00    +0.000 C 
BRANCH   7   8
ATOM      8  N   UNL     1      49.459   5.389  18.805  0.00  0.00    +0.000 N 
ATOM      9  H   UNL     1      49.472   5.274  19.821  0.00  0.00    +0.000 HD
BRANCH   8  15
ATOM     10  C   UNL     1      48.983   3.395  17.399  0.00  0.00    +0.000 A 
ATOM     11  C   UNL     1      49.418   2.173  16.849  0.00  0.00    +0.000 A 
ATOM     12  C   UNL     1      50.741   1.758  16.991  0.00  0.00    +0.000 A 
ATOM     13  C   UNL     1      51.644   2.572  17.658  0.00  0.00    +0.000 A 
ATOM     14  C   UNL     1      51.212   3.774  18.228  0.00  0.00    +0.000 A 
ATOM     15  C   UNL     1      49.865   4.182  18.179  0.00  0.00    +0.000 A 
BRANCH  10  17
ATOM     16  N   UNL     1      47.371   4.812  16.242  0.00  0.00    +0.000 N 
ATOM     17  C   UNL     1      47.571   3.767  17.100  0.00  0.00    +0.000 C 
ATOM     18  O   UNL     1      46.623   3.132  17.546  0.00  0.00    +0.000 OA
ATOM     19  H   UNL     1      46.430   4.932  15.890  0.00  0.00    +0.000 HD
ATOM     20  H   UNL     1      48.139   5.159  15.675  0.00  0.00    +0.000 HD
ENDBRANCH  10  17
ENDBRANCH   8  15
ENDBRANCH   7   8
ENDBRANCH   1   7
BRANCH   4  21
ATOM     21  C   UNL     1      48.009   9.026  13.628  0.00  0.00    +0.000 C 
BRANCH  21  22
ATOM     22  N   UNL     1      46.814   8.325  13.238  0.00  0.00    +0.000 N 
ATOM     23  C   UNL     1      46.834   7.302  12.328  0.00  0.00    +0.000 C 
ATOM     24  O   UNL     1      47.876   6.891  11.826  0.00  0.00    +0.000 OA
ATOM     25  H   UNL     1      45.937   8.793  13.436  0.00  0.00    +0.000 HD
BRANCH  23  26
ATOM     26  C   UNL     1      45.537   6.673  12.045  0.00  0.00    +0.000 A 
ATOM     27  C   UNL     1      44.507   7.426  11.500  0.00  0.00    +0.000 A 
ATOM     28  S   UNL     1      43.112   6.513  11.138  0.00  0.00    +0.000 S 
ATOM     29  C   UNL     1      43.816   5.090  11.751  0.00  0.00    +0.000 A 
ATOM     30  N   UNL     1      43.137   3.912  11.742  0.00  0.00    +0.000 NA
ATOM     31  C   UNL     1      43.779   2.921  12.264  0.00  0.00    +0.000 A 
ATOM     32  N   UNL     1      45.038   3.003  12.801  0.00  0.00    +0.000 N 
ATOM     33  C   UNL     1      45.765   4.166  12.821  0.00  0.00    +0.000 A 
ATOM     34  O   UNL     1      46.898   4.198  13.291  0.00  0.00    +0.000 OA
ATOM     35  C   UNL     1      45.094   5.310  12.230  0.00  0.00    +0.000 A 
ATOM     36  H   UNL     1      45.486   2.191  13.201  0.00  0.00    +0.000 HD
ENDBRANCH  23  26
ENDBRANCH  21  22
ENDBRANCH   4  21
TORSDOF 7
ENDMDL
MODEL 5
REMARK VINA RESULT:    -7.263      3.643      8.482
REMARK INTER + INTRA:         -11.664
REMARK INTER:                 -10.318
REMARK INTRA:                  -1.346
REMARK UNBOUND:                -1.429
REMARK  Name = 
REMARK  7 active torsions:
REMARK  status: ('A' for Active; 'I' for Inactive)
REMARK    1  A    between atoms: C_2  and  C_4
REMARK    2  A    between atoms: C_9  and  N_10
REMARK    3  A    between atoms: N_10  and  C_11
REMARK    4  A    between atoms: C_11  and  C_12
REMARK    5  A    between atoms: C_15  and  C_16
REMARK    6  A    between atoms: C_16  and  N_17
REMARK    7  A    between atoms: C_18  and  C_20
REMARK                            x       y       z     vdW  Elec       q    Type
REMARK                         _______ _______ _______ _____ _____    ______ ____
ROOT
ATOM      1  C   UNL     1      46.401   6.112  12.064  0.00  0.00    +0.000 A 
ATOM      2  C   UNL     1      47.703   6.413  12.489  0.00  0.00    +0.000 A 
ATOM      3  C   UNL     1      48.167   5.954  13.726  0.00  0.00    +0.000 A 
ATOM      4  C   UNL     1      47.347   5.172  14.550  0.00  0.00    +0.000 A 
ATOM      5  C   UNL     1      46.038   4.896  14.136  0.00  0.00    +0.000 A 
ATOM      6  C   UNL     1      45.574   5.351  12.901  0.00  0.00    +0.000 A 
ENDROOT
BRANCH   1   7
ATOM      7  C   UNL     1      45.880   6.601  10.733  0.00  0.00    +0.000 C 
BRANCH   7   8
ATOM      8  N   UNL     1      44.723   5.801  10.318  0.00  0.00    +0.000 N 
ATOM      9  H   UNL     1      44.131   5.613  11.130  0.00  0.00    +0.000 HD
BRANCH   8  15
ATOM     10  C   UNL     1      44.523   3.335  10.083  0.00  0.00    +0.000 A 
ATOM     11  C   UNL     1      44.906   2.149   9.426  0.00  0.00    +0.000 A 
ATOM     12  C   UNL     1      45.720   2.191   8.296  0.00  0.00    +0.000 A 
ATOM     13  C   UNL     1      46.133   3.417   7.797  0.00  0.00    +0.000 A 
ATOM     14  C   UNL     1      45.778   4.597   8.460  0.00  0.00    +0.000 A 
ATOM     15  C   UNL     1      45.030   4.585   9.653  0.00  0.00    +0.000 A 
BRANCH  10  17
ATOM     16  N   UNL     1      43.934   2.269  12.195  0.00  0.00    +0.000 N 
ATOM     17  C   UNL     1      43.578   3.161  11.223  0.00  0.00    +0.000 C 
ATOM     18  O   UNL     1      42.558   3.830  11.330  0.00  0.00    +0.000 OA
ATOM     19  H   UNL     1      43.399   2.300  13.054  0.00  0.00    +0.000 HD
ATOM     20  H   UNL     1      44.887   1.919  12.242  0.00  0.00    +0.000 HD
ENDBRANCH  10  17
ENDBRANCH   8  15
ENDBRANCH   7   8
ENDBRANCH   1   7
BRANCH   4  21
ATOM     21  C   UNL     1      47.831   4.683  15.891  0.00  0.00    +0.000 C 
BRANCH  21  22
ATOM     22  N   UNL     1      47.665   5.709  16.886  0.00  0.00    +0.000 N 
ATOM     23  C   UNL     1      48.679   6.564  17.227  0.00  0.00    +0.000 C 
ATOM     24  O   UNL     1      49.774   6.537  16.672  0.00  0.00    +0.000 OA
ATOM     25  H   UNL     1      46.882   5.594  17.520  0.00  0.00    +0.000 HD
BRANCH  23  26
ATOM     26  C   UNL     1      48.352   7.569  18.247  0.00  0.00    +0.000 A 
ATOM     27  C   UNL     1      48.355   8.917  17.916  0.00  0.00    +0.000 A 
ATOM     28  S   UNL     1      47.849   9.933  19.190  0.00  0.00    +0.000 S 
ATOM     29  C   UNL     1      47.666   8.611  20.246  0.00  0.00    +0.000 A 
ATOM     30  N   UNL     1      47.248   8.791  21.528  0.00  0.00    +0.000 NA
ATOM     31  C   UNL     1      47.182   7.706  22.225  0.00  0.00    +0.000 A 
ATOM     32  N   UNL     1      47.501   6.458  21.758  0.00  0.00    +0.000 N 
ATOM     33  C   UNL     1      47.914   6.227  20.470  0.00  0.00    +0.000 A 
ATOM     34  O   UNL     1      48.171   5.092  20.080  0.00  0.00    +0.000 OA
ATOM     35  C   UNL     1      47.990   7.413  19.637  0.00  0.00    +0.000 A 
ATOM     36  H   UNL     1      47.434   5.646  22.356  0.00  0.00    +0.000 HD
ENDBRANCH  23  26
ENDBRANCH  21  22
ENDBRANCH   4  21
TORSDOF 7
ENDMDL
MODEL 6
REMARK VINA RESULT:    -7.230      2.969      7.362
REMARK INTER + INTRA:         -11.617
REMARK INTER:                  -9.741
REMARK INTRA:                  -1.877
REMARK UNBOUND:                -1.429
REMARK  Name = 
REMARK  7 active torsions:
REMARK  status: ('A' for Active; 'I' for Inactive)
REMARK    1  A    between atoms: C_2  and  C_4
REMARK    2  A    between atoms: C_9  and  N_10
REMARK    3  A    between atoms: N_10  and  C_11
REMARK    4  A    between atoms: C_11  and  C_12
REMARK    5  A    between atoms: C_15  and  C_16
REMARK    6  A    between atoms: C_16  and  N_17
REMARK    7  A    between atoms: C_18  and  C_20
REMARK                            x       y       z     vdW  Elec       q    Type
REMARK                         _______ _______ _______ _____ _____    ______ ____
ROOT
ATOM      1  C   UNL     1      45.361   7.286  11.476  0.00  0.00    +0.000 A 
ATOM      2  C   UNL     1      46.445   6.401  11.406  0.00  0.00    +0.000 A 
ATOM      3  C   UNL     1      47.635   6.682  12.085  0.00  0.00    +0.000 A 
ATOM      4  C   UNL     1      47.756   7.843  12.861  0.00  0.00    +0.000 A 
ATOM      5  C   UNL     1      46.682   8.741  12.906  0.00  0.00    +0.000 A 
ATOM      6  C   UNL     1      45.493   8.460  12.232  0.00  0.00    +0.000 A 
ENDROOT
BRANCH   1   7
ATOM      7  C   UNL     1      44.070   7.002  10.748  0.00  0.00    +0.000 C 
BRANCH   7   8
ATOM      8  N   UNL     1      43.589   5.655  11.077  0.00  0.00    +0.000 N 
ATOM      9  H   UNL     1      43.742   5.474  12.072  0.00  0.00    +0.000 HD
BRANCH   8  15
ATOM     10  C   UNL     1      44.664   3.422  10.890  0.00  0.00    +0.000 A 
ATOM     11  C   UNL     1      45.263   2.434  10.085  0.00  0.00    +0.000 A 
ATOM     12  C   UNL     1      45.283   2.560   8.697  0.00  0.00    +0.000 A 
ATOM     13  C   UNL     1      44.681   3.659   8.103  0.00  0.00    +0.000 A 
ATOM     14  C   UNL     1      44.108   4.657   8.898  0.00  0.00    +0.000 A 
ATOM     15  C   UNL     1      44.147   4.603  10.305  0.00  0.00    +0.000 A 
BRANCH  10  17
ATOM     16  N   UNL     1      45.830   2.990  12.987  0.00  0.00    +0.000 N 
ATOM     17  C   UNL     1      44.628   3.126  12.351  0.00  0.00    +0.000 C 
ATOM     18  O   UNL     1      43.577   3.070  12.977  0.00  0.00    +0.000 OA
ATOM     19  H   UNL     1      45.806   2.989  13.999  0.00  0.00    +0.000 HD
ATOM     20  H   UNL     1      46.685   3.295  12.533  0.00  0.00    +0.000 HD
ENDBRANCH  10  17
ENDBRANCH   8  15
ENDBRANCH   7   8
ENDBRANCH   1   7
BRANCH   4  21
ATOM     21  C   UNL     1      49.037   8.165  13.586  0.00  0.00    +0.000 C 
BRANCH  21  22
ATOM     22  N   UNL     1      49.239   7.245  14.674  0.00  0.00    +0.000 N 
ATOM     23  C   UNL     1      48.916   7.564  15.966  0.00  0.00    +0.000 C 
ATOM     24  O   UNL     1      48.393   8.633  16.267  0.00  0.00    +0.000 OA
ATOM     25  H   UNL     1      49.883   6.481  14.500  0.00  0.00    +0.000 HD
BRANCH  23  26
ATOM     26  C   UNL     1      49.165   6.515  16.965  0.00  0.00    +0.000 A 
ATOM     27  C   UNL     1      50.078   6.735  17.986  0.00  0.00    +0.000 A 
ATOM     28  S   UNL     1      50.162   5.456  19.113  0.00  0.00    +0.000 S 
ATOM     29  C   UNL     1      49.023   4.540  18.242  0.00  0.00    +0.000 A 
ATOM     30  N   UNL     1      48.635   3.309  18.673  0.00  0.00    +0.000 NA
ATOM     31  C   UNL     1      47.788   2.714  17.901  0.00  0.00    +0.000 A 
ATOM     32  N   UNL     1      47.298   3.236  16.732  0.00  0.00    +0.000 N 
ATOM     33  C   UNL     1      47.649   4.478  16.265  0.00  0.00    +0.000 A 
ATOM     34  O   UNL     1      47.174   4.923  15.224  0.00  0.00    +0.000 OA
ATOM     35  C   UNL     1      48.589   5.197  17.106  0.00  0.00    +0.000 A 
ATOM     36  H   UNL     1      46.640   2.718  16.167  0.00  0.00    +0.000 HD
ENDBRANCH  23  26
ENDBRANCH  21  22
ENDBRANCH   4  21
TORSDOF 7
ENDMDL
MODEL 7
REMARK VINA RESULT:    -7.176      2.268      3.158
REMARK INTER + INTRA:         -11.541
REMARK INTER:                  -9.689
REMARK INTRA:                  -1.853
REMARK UNBOUND:                -1.429
REMARK  Name = 
REMARK  7 active torsions:
REMARK  status: ('A' for Active; 'I' for Inactive)
REMARK    1  A    between atoms: C_2  and  C_4
REMARK    2  A    between atoms: C_9  and  N_10
REMARK    3  A    between atoms: N_10  and  C_11
REMARK    4  A    between atoms: C_11  and  C_12
REMARK    5  A    between atoms: C_15  and  C_16
REMARK    6  A    between atoms: C_16  and  N_17
REMARK    7  A    between atoms: C_18  and  C_20
REMARK                            x       y       z     vdW  Elec       q    Type
REMARK                         _______ _______ _______ _____ _____    ______ ____
ROOT
ATOM      1  C   UNL     1      49.746   8.295  15.680  0.00  0.00    +0.000 A 
ATOM      2  C   UNL     1      48.471   8.864  15.562  0.00  0.00    +0.000 A 
ATOM      3  C   UNL     1      47.771   8.791  14.353  0.00  0.00    +0.000 A 
ATOM      4  C   UNL     1      48.325   8.132  13.247  0.00  0.00    +0.000 A 
ATOM      5  C   UNL     1      49.611   7.589  13.359  0.00  0.00    +0.000 A 
ATOM      6  C   UNL     1      50.309   7.658  14.565  0.00  0.00    +0.000 A 
ENDROOT
BRANCH   1   7
ATOM      7  C   UNL     1      50.518   8.366  16.975  0.00  0.00    +0.000 C 
BRANCH   7   8
ATOM      8  N   UNL     1      50.526   7.055  17.633  0.00  0.00    +0.000 N 
ATOM      9  H   UNL     1      50.619   6.321  16.926  0.00  0.00    +0.000 HD
BRANCH   8  15
ATOM     10  C   UNL     1      48.393   5.865  18.099  0.00  0.00    +0.000 A 
ATOM     11  C   UNL     1      47.273   5.676  18.931  0.00  0.00    +0.000 A 
ATOM     12  C   UNL     1      47.183   6.322  20.163  0.00  0.00    +0.000 A 
ATOM     13  C   UNL     1      48.223   7.137  20.584  0.00  0.00    +0.000 A 
ATOM     14  C   UNL     1      49.326   7.350  19.751  0.00  0.00    +0.000 A 
ATOM     15  C   UNL     1      49.408   6.783  18.464  0.00  0.00    +0.000 A 
BRANCH  10  17
ATOM     16  N   UNL     1      47.317   5.132  16.038  0.00  0.00    +0.000 N 
ATOM     17  C   UNL     1      48.412   5.049  16.851  0.00  0.00    +0.000 C 
ATOM     18  O   UNL     1      49.386   4.382  16.526  0.00  0.00    +0.000 OA
ATOM     19  H   UNL     1      47.414   4.742  15.110  0.00  0.00    +0.000 HD
ATOM     20  H   UNL     1      46.638   5.876  16.171  0.00  0.00    +0.000 HD
ENDBRANCH  10  17
ENDBRANCH   8  15
ENDBRANCH   7   8
ENDBRANCH   1   7
BRANCH   4  21
ATOM     21  C   UNL     1      47.588   8.059  11.935  0.00  0.00    +0.000 C 
BRANCH  21  22
ATOM     22  N   UNL     1      46.889   6.805  11.825  0.00  0.00    +0.000 N 
ATOM     23  C   UNL     1      45.528   6.741  11.689  0.00  0.00    +0.000 C 
ATOM     24  O   UNL     1      44.829   7.746  11.605  0.00  0.00    +0.000 OA
ATOM     25  H   UNL     1      47.394   5.983  12.137  0.00  0.00    +0.000 HD
BRANCH  23  26
ATOM     26  C   UNL     1      44.960   5.391  11.572  0.00  0.00    +0.000 A 
ATOM     27  C   UNL     1      44.313   4.816  12.656  0.00  0.00    +0.000 A 
ATOM     28  S   UNL     1      43.624   3.293  12.311  0.00  0.00    +0.000 S 
ATOM     29  C   UNL     1      44.218   3.324  10.717  0.00  0.00    +0.000 A 
ATOM     30  N   UNL     1      43.978   2.296   9.859  0.00  0.00    +0.000 NA
ATOM     31  C   UNL     1      44.512   2.437   8.692  0.00  0.00    +0.000 A 
ATOM     32  N   UNL     1      45.270   3.512   8.306  0.00  0.00    +0.000 N 
ATOM     33  C   UNL     1      45.527   4.578   9.131  0.00  0.00    +0.000 A 
ATOM     34  O   UNL     1      46.193   5.534   8.746  0.00  0.00    +0.000 OA
ATOM     35  C   UNL     1      44.935   4.476  10.453  0.00  0.00    +0.000 A 
ATOM     36  H   UNL     1      45.667   3.562   7.378  0.00  0.00    +0.000 HD
ENDBRANCH  23  26
ENDBRANCH  21  22
ENDBRANCH   4  21
TORSDOF 7
ENDMDL
MODEL 8
REMARK VINA RESULT:    -7.031      3.052      7.764
REMARK INTER + INTRA:         -11.337
REMARK INTER:                  -9.941
REMARK INTRA:                  -1.396
REMARK UNBOUND:                -1.429
REMARK  Name = 
REMARK  7 active torsions:
REMARK  status: ('A' for Active; 'I' for Inactive)
REMARK    1  A    between atoms: C_2  and  C_4
REMARK    2  A    between atoms: C_9  and  N_10
REMARK    3  A    between atoms: N_10  and  C_11
REMARK    4  A    between atoms: C_11  and  C_12
REMARK    5  A    between atoms: C_15  and  C_16
REMARK    6  A    between atoms: C_16  and  N_17
REMARK    7  A    between atoms: C_18  and  C_20
REMARK                            x       y       z     vdW  Elec       q    Type
REMARK                         _______ _______ _______ _____ _____    ______ ____
ROOT
ATOM      1  C   UNL     1      46.254   7.955  12.022  0.00  0.00    +0.000 A 
ATOM      2  C   UNL     1      47.202   6.964  11.730  0.00  0.00    +0.000 A 
ATOM      3  C   UNL     1      48.554   7.169  12.022  0.00  0.00    +0.000 A 
ATOM      4  C   UNL     1      48.981   8.360  12.626  0.00  0.00    +0.000 A 
ATOM      5  C   UNL     1      48.037   9.360  12.891  0.00  0.00    +0.000 A 
ATOM      6  C   UNL     1      46.687   9.155  12.603  0.00  0.00    +0.000 A 
ENDROOT
BRANCH   1   7
ATOM      7  C   UNL     1      44.791   7.754  11.711  0.00  0.00    +0.000 C 
BRANCH   7   8
ATOM      8  N   UNL     1      44.630   6.739  10.664  0.00  0.00    +0.000 N 
ATOM      9  H   UNL     1      43.954   7.071   9.971  0.00  0.00    +0.000 HD
BRANCH   8  15
ATOM     10  C   UNL     1      44.384   4.291  10.310  0.00  0.00    +0.000 A 
ATOM     11  C   UNL     1      43.945   3.041  10.785  0.00  0.00    +0.000 A 
ATOM     12  C   UNL     1      43.459   2.902  12.084  0.00  0.00    +0.000 A 
ATOM     13  C   UNL     1      43.434   4.004  12.925  0.00  0.00    +0.000 A 
ATOM     14  C   UNL     1      43.845   5.255  12.450  0.00  0.00    +0.000 A 
ATOM     15  C   UNL     1      44.259   5.447  11.118  0.00  0.00    +0.000 A 
BRANCH  10  17
ATOM     16  N   UNL     1      44.393   3.453   8.021  0.00  0.00    +0.000 N 
ATOM     17  C   UNL     1      44.965   4.289   8.937  0.00  0.00    +0.000 C 
ATOM     18  O   UNL     1      45.873   5.046   8.614  0.00  0.00    +0.000 OA
ATOM     19  H   UNL     1      44.653   3.597   7.054  0.00  0.00    +0.000 HD
ATOM     20  H   UNL     1      43.489   3.031   8.211  0.00  0.00    +0.000 HD
ENDBRANCH  10  17
ENDBRANCH   8  15
ENDBRANCH   7   8
ENDBRANCH   1   7
BRANCH   4  21
ATOM     21  C   UNL     1      50.437   8.599  12.933  0.00  0.00    +0.000 C 
BRANCH  21  22
ATOM     22  N   UNL     1      50.902   7.652  13.913  0.00  0.00    +0.000 N 
ATOM     23  C   UNL     1      50.957   7.954  15.248  0.00  0.00    +0.000 C 
ATOM     24  O   UNL     1      50.569   9.029  15.694  0.00  0.00    +0.000 OA
ATOM     25  H   UNL     1      51.449   6.875  13.559  0.00  0.00    +0.000 HD
BRANCH  23  26
ATOM     26  C   UNL     1      51.438   6.879  16.126  0.00  0.00    +0.000 A 
ATOM     27  C   UNL     1      52.791   6.777  16.417  0.00  0.00    +0.000 A 
ATOM     28  S   UNL     1      53.158   5.541  17.535  0.00  0.00    +0.000 S 
ATOM     29  C   UNL     1      51.527   5.061  17.623  0.00  0.00    +0.000 A 
ATOM     30  N   UNL     1      51.142   4.030  18.422  0.00  0.00    +0.000 NA
ATOM     31  C   UNL     1      49.882   3.755  18.370  0.00  0.00    +0.000 A 
ATOM     32  N   UNL     1      48.971   4.414  17.586  0.00  0.00    +0.000 N 
ATOM     33  C   UNL     1      49.311   5.468  16.775  0.00  0.00    +0.000 A 
ATOM     34  O   UNL     1      48.465   6.050  16.102  0.00  0.00    +0.000 OA
ATOM     35  C   UNL     1      50.717   5.829  16.809  0.00  0.00    +0.000 A 
ATOM     36  H   UNL     1      47.997   4.148  17.584  0.00  0.00    +0.000 HD
ENDBRANCH  23  26
ENDBRANCH  21  22
ENDBRANCH   4  21
TORSDOF 7
ENDMDL
MODEL 9
REMARK VINA RESULT:    -6.968      3.442      8.244
REMARK INTER + INTRA:         -11.248
REMARK INTER:                 -10.145
REMARK INTRA:                  -1.102
REMARK UNBOUND:                -1.429
REMARK  Name = 
REMARK  7 active torsions:
REMARK  status: ('A' for Active; 'I' for Inactive)
REMARK    1  A    between atoms: C_2  and  C_4
REMARK    2  A    between atoms: C_9  and  N_10
REMARK    3  A    between atoms: N_10  and  C_11
REMARK    4  A    between atoms: C_11  and  C_12
REMARK    5  A    between atoms: C_15  and  C_16
REMARK    6  A    between atoms: C_16  and  N_17
REMARK    7  A    between atoms: C_18  and  C_20
REMARK                            x       y       z     vdW  Elec       q    Type
REMARK                         _______ _______ _______ _____ _____    ______ ____
ROOT
ATOM      1  C   UNL     1      46.659   6.886  11.930  0.00  0.00    +0.000 A 
ATOM      2  C   UNL     1      46.681   5.985  13.004  0.00  0.00    +0.000 A 
ATOM      3  C   UNL     1      47.699   6.047  13.960  0.00  0.00    +0.000 A 
ATOM      4  C   UNL     1      48.703   7.021  13.872  0.00  0.00    +0.000 A 
ATOM      5  C   UNL     1      48.695   7.902  12.783  0.00  0.00    +0.000 A 
ATOM      6  C   UNL     1      47.678   7.844  11.829  0.00  0.00    +0.000 A 
ENDROOT
BRANCH   1   7
ATOM      7  C   UNL     1      45.570   6.833  10.886  0.00  0.00    +0.000 C 
BRANCH   7   8
ATOM      8  N   UNL     1      44.786   5.603  11.034  0.00  0.00    +0.000 N 
ATOM      9  H   UNL     1      44.899   5.241  11.984  0.00  0.00    +0.000 HD
BRANCH   8  15
ATOM     10  C   UNL     1      44.727   3.225  10.312  0.00  0.00    +0.000 A 
ATOM     11  C   UNL     1      45.087   2.238   9.374  0.00  0.00    +0.000 A 
ATOM     12  C   UNL     1      45.711   2.586   8.178  0.00  0.00    +0.000 A 
ATOM     13  C   UNL     1      45.954   3.923   7.898  0.00  0.00    +0.000 A 
ATOM     14  C   UNL     1      45.623   4.905   8.837  0.00  0.00    +0.000 A 
ATOM     15  C   UNL     1      45.071   4.580  10.092  0.00  0.00    +0.000 A 
BRANCH  10  17
ATOM     16  N   UNL     1      44.655   2.737  12.700  0.00  0.00    +0.000 N 
ATOM     17  C   UNL     1      43.986   2.733  11.509  0.00  0.00    +0.000 C 
ATOM     18  O   UNL     1      42.808   2.400  11.452  0.00  0.00    +0.000 OA
ATOM     19  H   UNL     1      44.096   2.595  13.532  0.00  0.00    +0.000 HD
ATOM     20  H   UNL     1      45.524   3.253  12.795  0.00  0.00    +0.000 HD
ENDBRANCH  10  17
ENDBRANCH   8  15
ENDBRANCH   7   8
ENDBRANCH   1   7
BRANCH   4  21
ATOM     21  C   UNL     1      49.813   7.090  14.888  0.00  0.00    +0.000 C 
BRANCH  21  22
ATOM     22  N   UNL     1      49.300   6.823  16.206  0.00  0.00    +0.000 N 
ATOM     23  C   UNL     1      49.959   6.014  17.094  0.00  0.00    +0.000 C 
ATOM     24  O   UNL     1      51.047   5.507  16.836  0.00  0.00    +0.000 OA
ATOM     25  H   UNL     1      48.315   7.014  16.350  0.00  0.00    +0.000 HD
BRANCH  23  26
ATOM     26  C   UNL     1      49.319   5.851  18.406  0.00  0.00    +0.000 A 
ATOM     27  C   UNL     1      49.288   4.602  19.009  0.00  0.00    +0.000 A 
ATOM     28  S   UNL     1      48.603   4.616  20.572  0.00  0.00    +0.000 S 
ATOM     29  C   UNL     1      48.273   6.282  20.473  0.00  0.00    +0.000 A 
ATOM     30  N   UNL     1      47.678   6.942  21.503  0.00  0.00    +0.000 NA
ATOM     31  C   UNL     1      47.460   8.195  21.281  0.00  0.00    +0.000 A 
ATOM     32  N   UNL     1      47.779   8.848  20.119  0.00  0.00    +0.000 N 
ATOM     33  C   UNL     1      48.392   8.228  19.059  0.00  0.00    +0.000 A 
ATOM     34  O   UNL     1      48.683   8.849  18.041  0.00  0.00    +0.000 OA
ATOM     35  C   UNL     1      48.674   6.819  19.264  0.00  0.00    +0.000 A 
ATOM     36  H   UNL     1      47.578   9.831  20.003  0.00  0.00    +0.000 HD
ENDBRANCH  23  26
ENDBRANCH  21  22
ENDBRANCH   4  21
TORSDOF 7
ENDMDL
