MODEL 1
REMARK VINA RESULT:    -7.723      0.000      0.000
REMARK INTER + INTRA:         -10.575
REMARK INTER:                  -9.980
REMARK INTRA:                  -0.594
REMARK UNBOUND:                -0.594
REMARK  Name = 
REMARK  6 active torsions:
REMARK  status: ('A' for Active; 'I' for Inactive)
REMARK    1  A    between atoms: C_1  and  C_2
REMARK    2  A    between atoms: C_2  and  N_3
REMARK    3  A    between atoms: C_2  and  C_16
REMARK    4  A    between atoms: C_4  and  C_6
REMARK    5  A    between atoms: C_19  and  C_20
REMARK    6  A    between atoms: C_20  and  N_21
REMARK                            x       y       z     vdW  Elec       q    Type
REMARK                         _______ _______ _______ _____ _____    ______ ____
ROOT
ATOM      1  C   UNL     1      48.788   8.313  12.904  0.00  0.00    +0.000 C 
ATOM      2  C   UNL     1      48.429   6.942  13.489  0.00  0.00    +0.000 C 
ENDROOT
BRANCH   2   3
ATOM      3  C   UNL     1      47.173   6.400  12.820  0.00  0.00    +0.000 A 
ATOM      4  C   UNL     1      46.466   7.172  11.891  0.00  0.00    +0.000 A 
ATOM      5  C   UNL     1      45.354   6.643  11.226  0.00  0.00    +0.000 A 
ATOM      6  C   UNL     1      44.931   5.329  11.473  0.00  0.00    +0.000 A 
ATOM      7  C   UNL     1      45.618   4.566  12.424  0.00  0.00    +0.000 A 
ATOM      8  C   UNL     1      46.725   5.095  13.089  0.00  0.00    +0.000 A 
BRANCH   6   9
ATOM      9  C   UNL     1      43.748   4.746  10.731  0.00  0.00    +0.000 C 
BRANCH   9  10
ATOM     10  N   UNL     1      44.112   3.938   9.545  0.00  0.00    +0.000 NA
ATOM     11  C   UNL     1      45.287   4.508   8.862  0.00  0.00    +0.000 C 
ATOM     12  C   UNL     1      45.789   3.634   7.710  0.00  0.00    +0.000 C 
ATOM     13  C   UNL     1      46.074   2.216   8.181  0.00  0.00    +0.000 C 
ATOM     14  C   UNL     1      44.828   1.642   8.838  0.00  0.00    +0.000 C 
ATOM     15  C   UNL     1      44.340   2.545   9.970  0.00  0.00    +0.000 C 
ENDBRANCH   9  10
ENDBRANCH   6   9
ENDBRANCH   2   3
BRANCH   2  16
ATOM     16  N   UNL     1      48.211   6.971  14.929  0.00  0.00    +0.000 N 
ATOM     17  C   UNL     1      49.198   6.748  15.853  0.00  0.00    +0.000 C 
ATOM     18  O   UNL     1      50.372   6.570  15.543  0.00  0.00    +0.000 OA
ATOM     19  H   UNL     1      47.251   6.810  15.223  0.00  0.00    +0.000 HD
BRANCH  17  20
ATOM     20  C   UNL     1      48.792   6.801  17.263  0.00  0.00    +0.000 A 
ATOM     21  C   UNL     1      48.370   8.005  17.809  0.00  0.00    +0.000 A 
ATOM     22  S   UNL     1      47.925   7.895  19.452  0.00  0.00    +0.000 S 
ATOM     23  C   UNL     1      48.322   6.242  19.505  0.00  0.00    +0.000 A 
ATOM     24  N   UNL     1      48.210   5.532  20.659  0.00  0.00    +0.000 NA
ATOM     25  C   UNL     1      48.572   4.297  20.563  0.00  0.00    +0.000 A 
ATOM     26  N   UNL     1      49.023   3.703  19.412  0.00  0.00    +0.000 N 
ATOM     27  C   UNL     1      49.115   4.369  18.214  0.00  0.00    +0.000 A 
ATOM     28  O   UNL     1      49.457   3.794  17.186  0.00  0.00    +0.000 OA
ATOM     29  C   UNL     1      48.754   5.773  18.275  0.00  0.00    +0.000 A 
ATOM     30  H   UNL     1      49.275   2.726  19.398  0.00  0.00    +0.000 HD
ENDBRANCH  17  20
ENDBRANCH   2  16
TORSDOF 5
ENDMDL
MODEL 2
REMARK VINA RESULT:    -7.591      1.674      2.769
REMARK INTER + INTRA:         -10.405
REMARK INTER:                  -9.662
REMARK INTRA:                  -0.742
REMARK UNBOUND:                -0.594
REMARK  Name = 
REMARK  6 active torsions:
REMARK  status: ('A' for Active; 'I' for Inactive)
REMARK    1  A    between atoms: C_1  and  C_2
REMARK    2  A    between atoms: C_2  and  N_3
REMARK    3  A    between atoms: C_2  and  C_16
REMARK    4  A    between atoms: C_4  and  C_6
REMARK    5  A    between atoms: C_19  and  C_20
REMARK    6  A    between atoms: C_20  and  N_21
REMARK                            x       y       z     vdW  Elec       q    Type
REMARK                         _______ _______ _______ _____ _____    ______ ____
ROOT
ATOM      1  C   UNL     1      49.307   7.726  12.781  0.00  0.00    +0.000 C 
ATOM      2  C   UNL     1      48.604   6.628  13.588  0.00  0.00    +0.000 C 
ENDROOT
BRANCH   2   3
ATOM      3  C   UNL     1      47.328   6.192  12.878  0.00  0.00    +0.000 A 
ATOM      4  C   UNL     1      46.788   6.960  11.840  0.00  0.00    +0.000 A 
ATOM      5  C   UNL     1      45.657   6.519  11.144  0.00  0.00    +0.000 A 
ATOM      6  C   UNL     1      45.048   5.298  11.468  0.00  0.00    +0.000 A 
ATOM      7  C   UNL     1      45.569   4.544  12.527  0.00  0.00    +0.000 A 
ATOM      8  C   UNL     1      46.695   4.986  13.223  0.00  0.00    +0.000 A 
BRANCH   6   9
ATOM      9  C   UNL     1      43.845   4.805  10.695  0.00  0.00    +0.000 C 
BRANCH   9  10
ATOM     10  N   UNL     1      44.177   3.959   9.526  0.00  0.00    +0.000 NA
ATOM     11  C   UNL     1      45.368   4.473   8.828  0.00  0.00    +0.000 C 
ATOM     12  C   UNL     1      45.836   3.556   7.695  0.00  0.00    +0.000 C 
ATOM     13  C   UNL     1      46.073   2.139   8.198  0.00  0.00    +0.000 C 
ATOM     14  C   UNL     1      44.810   1.625   8.869  0.00  0.00    +0.000 C 
ATOM     15  C   UNL     1      44.357   2.570   9.983  0.00  0.00    +0.000 C 
ENDBRANCH   9  10
ENDBRANCH   6   9
ENDBRANCH   2   3
BRANCH   2  16
ATOM     16  N   UNL     1      48.262   7.040  14.942  0.00  0.00    +0.000 N 
ATOM     17  C   UNL     1      49.038   6.769  16.039  0.00  0.00    +0.000 C 
ATOM     18  O   UNL     1      50.128   6.210  15.961  0.00  0.00    +0.000 OA
ATOM     19  H   UNL     1      47.274   7.220  15.103  0.00  0.00    +0.000 HD
BRANCH  17  20
ATOM     20  C   UNL     1      48.528   7.249  17.330  0.00  0.00    +0.000 A 
ATOM     21  C   UNL     1      48.329   6.346  18.365  0.00  0.00    +0.000 A 
ATOM     22  S   UNL     1      47.744   7.063  19.797  0.00  0.00    +0.000 S 
ATOM     23  C   UNL     1      47.693   8.601  19.072  0.00  0.00    +0.000 A 
ATOM     24  N   UNL     1      47.237   9.683  19.756  0.00  0.00    +0.000 NA
ATOM     25  C   UNL     1      47.226  10.780  19.075  0.00  0.00    +0.000 A 
ATOM     26  N   UNL     1      47.645  10.895  17.774  0.00  0.00    +0.000 N 
ATOM     27  C   UNL     1      48.152   9.838  17.056  0.00  0.00    +0.000 A 
ATOM     28  O   UNL     1      48.583   9.987  15.918  0.00  0.00    +0.000 OA
ATOM     29  C   UNL     1      48.152   8.572  17.765  0.00  0.00    +0.000 A 
ATOM     30  H   UNL     1      47.629  11.786  17.302  0.00  0.00    +0.000 HD
ENDBRANCH  17  20
ENDBRANCH   2  16
TORSDOF 5
ENDMDL
MODEL 3
REMARK VINA RESULT:    -7.339      3.237      9.116
REMARK INTER + INTRA:         -10.079
REMARK INTER:                  -9.013
REMARK INTRA:                  -1.066
REMARK UNBOUND:                -0.594
REMARK  Name = 
REMARK  6 active torsions:
REMARK  status: ('A' for Active; 'I' for Inactive)
REMARK    1  A    between atoms: C_1  and  C_2
REMARK    2  A    between atoms: C_2  and  N_3
REMARK    3  A    between atoms: C_2  and  C_16
REMARK    4  A    between atoms: C_4  and  C_6
REMARK    5  A    between atoms: C_19  and  C_20
REMARK    6  A    between atoms: C_20  and  N_21
REMARK                            x       y       z     vdW  Elec       q    Type
REMARK                         _______ _______ _______ _____ _____    ______ ____
ROOT
ATOM      1  C   UNL     1      47.731   3.165  16.841  0.00  0.00    +0.000 C 
ATOM      2  C   UNL     1      48.035   4.522  16.196  0.00  0.00    +0.000 C 
ENDROOT
BRANCH   2   3
ATOM      3  C   UNL     1      48.058   5.614  17.258  0.00  0.00    +0.000 A 
ATOM      4  C   UNL     1      48.828   6.770  17.082  0.00  0.00    +0.000 A 
ATOM      5  C   UNL     1      48.789   7.801  18.027  0.00  0.00    +0.000 A 
ATOM      6  C   UNL     1      47.975   7.699  19.164  0.00  0.00    +0.000 A 
ATOM      7  C   UNL     1      47.228   6.531  19.357  0.00  0.00    +0.000 A 
ATOM      8  C   UNL     1      47.270   5.501  18.416  0.00  0.00    +0.000 A 
BRANCH   6   9
ATOM      9  C   UNL     1      47.909   8.827  20.170  0.00  0.00    +0.000 C 
BRANCH   9  10
ATOM     10  N   UNL     1      46.904   9.867  19.853  0.00  0.00    +0.000 NA
ATOM     11  C   UNL     1      46.090  10.190  21.038  0.00  0.00    +0.000 C 
ATOM     12  C   UNL     1      45.130  11.358  20.801  0.00  0.00    +0.000 C 
ATOM     13  C   UNL     1      45.874  12.589  20.306  0.00  0.00    +0.000 C 
ATOM     14  C   UNL     1      46.663  12.231  19.056  0.00  0.00    +0.000 C 
ATOM     15  C   UNL     1      47.599  11.051  19.318  0.00  0.00    +0.000 C 
ENDBRANCH   9  10
ENDBRANCH   6   9
ENDBRANCH   2   3
BRANCH   2  16
ATOM     16  N   UNL     1      47.074   4.898  15.168  0.00  0.00    +0.000 N 
ATOM     17  C   UNL     1      47.407   5.578  14.026  0.00  0.00    +0.000 C 
ATOM     18  O   UNL     1      48.564   5.871  13.740  0.00  0.00    +0.000 OA
ATOM     19  H   UNL     1      46.108   4.957  15.481  0.00  0.00    +0.000 HD
BRANCH  17  20
ATOM     20  C   UNL     1      46.304   5.886  13.107  0.00  0.00    +0.000 A 
ATOM     21  C   UNL     1      46.015   7.209  12.804  0.00  0.00    +0.000 A 
ATOM     22  S   UNL     1      44.714   7.396  11.718  0.00  0.00    +0.000 S 
ATOM     23  C   UNL     1      44.460   5.716  11.647  0.00  0.00    +0.000 A 
ATOM     24  N   UNL     1      43.447   5.191  10.908  0.00  0.00    +0.000 NA
ATOM     25  C   UNL     1      43.353   3.905  10.968  0.00  0.00    +0.000 A 
ATOM     26  N   UNL     1      44.190   3.094  11.690  0.00  0.00    +0.000 N 
ATOM     27  C   UNL     1      45.252   3.575  12.419  0.00  0.00    +0.000 A 
ATOM     28  O   UNL     1      46.024   2.820  12.999  0.00  0.00    +0.000 OA
ATOM     29  C   UNL     1      45.381   5.020  12.414  0.00  0.00    +0.000 A 
ATOM     30  H   UNL     1      44.075   2.092  11.682  0.00  0.00    +0.000 HD
ENDBRANCH  17  20
ENDBRANCH   2  16
TORSDOF 5
ENDMDL
MODEL 4
REMARK VINA RESULT:    -7.171      3.034      8.945
REMARK INTER + INTRA:          -9.862
REMARK INTER:                  -8.759
REMARK INTRA:                  -1.103
REMARK UNBOUND:                -0.594
REMARK  Name = 
REMARK  6 active torsions:
REMARK  status: ('A' for Active; 'I' for Inactive)
REMARK    1  A    between atoms: C_1  and  C_2
REMARK    2  A    between atoms: C_2  and  N_3
REMARK    3  A    between atoms: C_2  and  C_16
REMARK    4  A    between atoms: C_4  and  C_6
REMARK    5  A    between atoms: C_19  and  C_20
REMARK    6  A    between atoms: C_20  and  N_21
REMARK                            x       y       z     vdW  Elec       q    Type
REMARK                         _______ _______ _______ _____ _____    ______ ____
ROOT
ATOM      1  C   UNL     1      49.063   7.790  11.442  0.00  0.00    +0.000 C 
ATOM      2  C   UNL     1      47.765   7.713  12.255  0.00  0.00    +0.000 C 
ENDROOT
BRANCH   2   3
ATOM      3  C   UNL     1      48.079   7.720  13.745  0.00  0.00    +0.000 A 
ATOM      4  C   UNL     1      48.440   6.540  14.407  0.00  0.00    +0.000 A 
ATOM      5  C   UNL     1      48.798   6.565  15.760  0.00  0.00    +0.000 A 
ATOM      6  C   UNL     1      48.807   7.770  16.476  0.00  0.00    +0.000 A 
ATOM      7  C   UNL     1      48.416   8.946  15.823  0.00  0.00    +0.000 A 
ATOM      8  C   UNL     1      48.057   8.920  14.475  0.00  0.00    +0.000 A 
BRANCH   6   9
ATOM      9  C   UNL     1      49.223   7.802  17.930  0.00  0.00    +0.000 C 
BRANCH   9  10
ATOM     10  N   UNL     1      48.683   6.689  18.743  0.00  0.00    +0.000 NA
ATOM     11  C   UNL     1      49.773   5.875  19.309  0.00  0.00    +0.000 C 
ATOM     12  C   UNL     1      49.272   4.794  20.270  0.00  0.00    +0.000 C 
ATOM     13  C   UNL     1      48.418   5.397  21.376  0.00  0.00    +0.000 C 
ATOM     14  C   UNL     1      47.277   6.188  20.756  0.00  0.00    +0.000 C 
ATOM     15  C   UNL     1      47.806   7.246  19.788  0.00  0.00    +0.000 C 
ENDBRANCH   9  10
ENDBRANCH   6   9
ENDBRANCH   2   3
BRANCH   2  16
ATOM     16  N   UNL     1      46.970   6.530  11.955  0.00  0.00    +0.000 N 
ATOM     17  C   UNL     1      45.600   6.509  11.970  0.00  0.00    +0.000 C 
ATOM     18  O   UNL     1      44.922   7.512  12.173  0.00  0.00    +0.000 OA
ATOM     19  H   UNL     1      47.450   5.643  12.082  0.00  0.00    +0.000 HD
BRANCH  17  20
ATOM     20  C   UNL     1      44.965   5.223  11.658  0.00  0.00    +0.000 A 
ATOM     21  C   UNL     1      44.228   4.568  12.634  0.00  0.00    +0.000 A 
ATOM     22  S   UNL     1      43.550   3.094  12.109  0.00  0.00    +0.000 S 
ATOM     23  C   UNL     1      44.255   3.255  10.569  0.00  0.00    +0.000 A 
ATOM     24  N   UNL     1      44.098   2.292   9.623  0.00  0.00    +0.000 NA
ATOM     25  C   UNL     1      44.710   2.530   8.512  0.00  0.00    +0.000 A 
ATOM     26  N   UNL     1      45.454   3.653   8.256  0.00  0.00    +0.000 N 
ATOM     27  C   UNL     1      45.607   4.672   9.166  0.00  0.00    +0.000 A 
ATOM     28  O   UNL     1      46.221   5.695   8.884  0.00  0.00    +0.000 OA
ATOM     29  C   UNL     1      44.967   4.437  10.447  0.00  0.00    +0.000 A 
ATOM     30  H   UNL     1      45.894   3.789   7.358  0.00  0.00    +0.000 HD
ENDBRANCH  17  20
ENDBRANCH   2  16
TORSDOF 5
ENDMDL
MODEL 5
REMARK VINA RESULT:    -7.062      3.761      4.844
REMARK INTER + INTRA:          -9.720
REMARK INTER:                  -9.082
REMARK INTRA:                  -0.639
REMARK UNBOUND:                -0.594
REMARK  Name = 
REMARK  6 active torsions:
REMARK  status: ('A' for Active; 'I' for Inactive)
REMARK    1  A    between atoms: C_1  and  C_2
REMARK    2  A    between atoms: C_2  and  N_3
REMARK    3  A    between atoms: C_2  and  C_16
REMARK    4  A    between atoms: C_4  and  C_6
REMARK    5  A    between atoms: C_19  and  C_20
REMARK    6  A    between atoms: C_20  and  N_21
REMARK                            x       y       z     vdW  Elec       q    Type
REMARK                         _______ _______ _______ _____ _____    ______ ____
ROOT
ATOM      1  C   UNL     1      46.960   4.469  14.074  0.00  0.00    +0.000 C 
ATOM      2  C   UNL     1      46.533   5.690  13.252  0.00  0.00    +0.000 C 
ENDROOT
BRANCH   2   3
ATOM      3  C   UNL     1      45.889   5.244  11.946  0.00  0.00    +0.000 A 
ATOM      4  C   UNL     1      46.195   5.885  10.740  0.00  0.00    +0.000 A 
ATOM      5  C   UNL     1      45.656   5.425   9.533  0.00  0.00    +0.000 A 
ATOM      6  C   UNL     1      44.806   4.311   9.508  0.00  0.00    +0.000 A 
ATOM      7  C   UNL     1      44.474   3.687  10.717  0.00  0.00    +0.000 A 
ATOM      8  C   UNL     1      45.009   4.148  11.920  0.00  0.00    +0.000 A 
BRANCH   6   9
ATOM      9  C   UNL     1      44.248   3.794   8.200  0.00  0.00    +0.000 C 
BRANCH   9  10
ATOM     10  N   UNL     1      45.159   2.885   7.467  0.00  0.00    +0.000 NA
ATOM     11  C   UNL     1      46.272   3.636   6.859  0.00  0.00    +0.000 C 
ATOM     12  C   UNL     1      47.317   2.728   6.207  0.00  0.00    +0.000 C 
ATOM     13  C   UNL     1      47.838   1.694   7.194  0.00  0.00    +0.000 C 
ATOM     14  C   UNL     1      46.669   0.908   7.765  0.00  0.00    +0.000 C 
ATOM     15  C   UNL     1      45.634   1.842   8.392  0.00  0.00    +0.000 C 
ENDBRANCH   9  10
ENDBRANCH   6   9
ENDBRANCH   2   3
BRANCH   2  16
ATOM     16  N   UNL     1      47.638   6.587  12.940  0.00  0.00    +0.000 N 
ATOM     17  C   UNL     1      47.556   7.952  13.017  0.00  0.00    +0.000 C 
ATOM     18  O   UNL     1      46.556   8.537  13.423  0.00  0.00    +0.000 OA
ATOM     19  H   UNL     1      48.351   6.197  12.329  0.00  0.00    +0.000 HD
BRANCH  17  20
ATOM     20  C   UNL     1      48.766   8.698  12.649  0.00  0.00    +0.000 A 
ATOM     21  C   UNL     1      48.705   9.644  11.635  0.00  0.00    +0.000 A 
ATOM     22  S   UNL     1      50.191  10.427  11.337  0.00  0.00    +0.000 S 
ATOM     23  C   UNL     1      50.980   9.499  12.524  0.00  0.00    +0.000 A 
ATOM     24  N   UNL     1      52.312   9.645  12.755  0.00  0.00    +0.000 NA
ATOM     25  C   UNL     1      52.785   8.857  13.662  0.00  0.00    +0.000 A 
ATOM     26  N   UNL     1      52.044   7.946  14.369  0.00  0.00    +0.000 N 
ATOM     27  C   UNL     1      50.689   7.791  14.198  0.00  0.00    +0.000 A 
ATOM     28  O   UNL     1      50.041   7.016  14.893  0.00  0.00    +0.000 OA
ATOM     29  C   UNL     1      50.112   8.629  13.163  0.00  0.00    +0.000 A 
ATOM     30  H   UNL     1      52.471   7.370  15.079  0.00  0.00    +0.000 HD
ENDBRANCH  17  20
ENDBRANCH   2  16
TORSDOF 5
ENDMDL
MODEL 6
REMARK VINA RESULT:    -7.005      3.125      8.661
REMARK INTER + INTRA:          -9.647
REMARK INTER:                  -8.610
REMARK INTRA:                  -1.038
REMARK UNBOUND:                -0.594
REMARK  Name = 
REMARK  6 active torsions:
REMARK  status: ('A' for Active; 'I' for Inactive)
REMARK    1  A    between atoms: C_1  and  C_2
REMARK    2  A    between atoms: C_2  and  N_3
REMARK    3  A    between atoms: C_2  and  C_16
REMARK    4  A    between atoms: C_4  and  C_6
REMARK    5  A    between atoms: C_19  and  C_20
REMARK    6  A    between atoms: C_20  and  N_21
REMARK                            x       y       z     vdW  Elec       q    Type
REMARK                         _______ _______ _______ _____ _____    ______ ____
ROOT
ATOM      1  C   UNL     1      49.888   7.867  11.928  0.00  0.00    +0.000 C 
ATOM      2  C   UNL     1      48.594   7.543  12.684  0.00  0.00    +0.000 C 
ENDROOT
BRANCH   2   3
ATOM      3  C   UNL     1      48.918   7.014  14.075  0.00  0.00    +0.000 A 
ATOM      4  C   UNL     1      50.070   7.434  14.751  0.00  0.00    +0.000 A 
ATOM      5  C   UNL     1      50.326   7.001  16.057  0.00  0.00    +0.000 A 
ATOM      6  C   UNL     1      49.432   6.144  16.714  0.00  0.00    +0.000 A 
ATOM      7  C   UNL     1      48.295   5.699  16.029  0.00  0.00    +0.000 A 
ATOM      8  C   UNL     1      48.042   6.129  14.725  0.00  0.00    +0.000 A 
BRANCH   6   9
ATOM      9  C   UNL     1      49.691   5.700  18.137  0.00  0.00    +0.000 C 
BRANCH   9  10
ATOM     10  N   UNL     1      48.592   6.008  19.081  0.00  0.00    +0.000 NA
ATOM     11  C   UNL     1      48.703   5.188  20.301  0.00  0.00    +0.000 C 
ATOM     12  C   UNL     1      47.672   5.566  21.367  0.00  0.00    +0.000 C 
ATOM     13  C   UNL     1      47.747   7.047  21.703  0.00  0.00    +0.000 C 
ATOM     14  C   UNL     1      47.582   7.862  20.430  0.00  0.00    +0.000 C 
ATOM     15  C   UNL     1      48.612   7.451  19.378  0.00  0.00    +0.000 C 
ENDBRANCH   9  10
ENDBRANCH   6   9
ENDBRANCH   2   3
BRANCH   2  16
ATOM     16  N   UNL     1      47.759   6.565  12.000  0.00  0.00    +0.000 N 
ATOM     17  C   UNL     1      46.465   6.804  11.617  0.00  0.00    +0.000 C 
ATOM     18  O   UNL     1      45.920   7.895  11.759  0.00  0.00    +0.000 OA
ATOM     19  H   UNL     1      48.035   5.595  12.130  0.00  0.00    +0.000 HD
BRANCH  17  20
ATOM     20  C   UNL     1      45.769   5.696  10.952  0.00  0.00    +0.000 A 
ATOM     21  C   UNL     1      45.848   5.567   9.573  0.00  0.00    +0.000 A 
ATOM     22  S   UNL     1      44.993   4.225   8.959  0.00  0.00    +0.000 S 
ATOM     23  C   UNL     1      44.450   3.792  10.511  0.00  0.00    +0.000 A 
ATOM     24  N   UNL     1      43.622   2.729  10.692  0.00  0.00    +0.000 NA
ATOM     25  C   UNL     1      43.265   2.532  11.917  0.00  0.00    +0.000 A 
ATOM     26  N   UNL     1      43.673   3.295  12.981  0.00  0.00    +0.000 N 
ATOM     27  C   UNL     1      44.541   4.353  12.852  0.00  0.00    +0.000 A 
ATOM     28  O   UNL     1      44.942   4.974  13.831  0.00  0.00    +0.000 OA
ATOM     29  C   UNL     1      44.945   4.640  11.488  0.00  0.00    +0.000 A 
ATOM     30  H   UNL     1      43.372   3.078  13.919  0.00  0.00    +0.000 HD
ENDBRANCH  17  20
ENDBRANCH   2  16
TORSDOF 5
ENDMDL
MODEL 7
REMARK VINA RESULT:    -6.817      3.264      8.187
REMARK INTER + INTRA:          -9.404
REMARK INTER:                  -8.784
REMARK INTRA:                  -0.620
REMARK UNBOUND:                -0.594
REMARK  Name = 
REMARK  6 active torsions:
REMARK  status: ('A' for Active; 'I' for Inactive)
REMARK    1  A    between atoms: C_1  and  C_2
REMARK    2  A    between atoms: C_2  and  N_3
REMARK    3  A    between atoms: C_2  and  C_16
REMARK    4  A    between atoms: C_4  and  C_6
REMARK    5  A    between atoms: C_19  and  C_20
REMARK    6  A    between atoms: C_20  and  N_21
REMARK                            x       y       z     vdW  Elec       q    Type
REMARK                         _______ _______ _______ _____ _____    ______ ____
ROOT
ATOM      1  C   UNL     1      49.751   7.692  12.392  0.00  0.00    +0.000 C 
ATOM      2  C   UNL     1      48.431   7.318  13.075  0.00  0.00    +0.000 C 
ENDROOT
BRANCH   2   3
ATOM      3  C   UNL     1      48.704   6.715  14.447  0.00  0.00    +0.000 A 
ATOM      4  C   UNL     1      49.787   7.153  15.219  0.00  0.00    +0.000 A 
ATOM      5  C   UNL     1      49.991   6.648  16.508  0.00  0.00    +0.000 A 
ATOM      6  C   UNL     1      49.113   5.700  17.053  0.00  0.00    +0.000 A 
ATOM      7  C   UNL     1      48.047   5.239  16.271  0.00  0.00    +0.000 A 
ATOM      8  C   UNL     1      47.846   5.741  14.984  0.00  0.00    +0.000 A 
BRANCH   6   9
ATOM      9  C   UNL     1      49.315   5.177  18.458  0.00  0.00    +0.000 C 
BRANCH   9  10
ATOM     10  N   UNL     1      50.145   3.953  18.539  0.00  0.00    +0.000 NA
ATOM     11  C   UNL     1      49.870   3.057  17.402  0.00  0.00    +0.000 C 
ATOM     12  C   UNL     1      50.801   1.843  17.362  0.00  0.00    +0.000 C 
ATOM     13  C   UNL     1      52.261   2.270  17.372  0.00  0.00    +0.000 C 
ATOM     14  C   UNL     1      52.519   3.153  18.583  0.00  0.00    +0.000 C 
ATOM     15  C   UNL     1      51.563   4.346  18.605  0.00  0.00    +0.000 C 
ENDBRANCH   9  10
ENDBRANCH   6   9
ENDBRANCH   2   3
BRANCH   2  16
ATOM     16  N   UNL     1      47.634   6.373  12.305  0.00  0.00    +0.000 N 
ATOM     17  C   UNL     1      46.432   6.685  11.725  0.00  0.00    +0.000 C 
ATOM     18  O   UNL     1      45.956   7.816  11.750  0.00  0.00    +0.000 OA
ATOM     19  H   UNL     1      47.813   5.392  12.506  0.00  0.00    +0.000 HD
BRANCH  17  20
ATOM     20  C   UNL     1      45.759   5.601  10.999  0.00  0.00    +0.000 A 
ATOM     21  C   UNL     1      45.841   5.550   9.615  0.00  0.00    +0.000 A 
ATOM     22  S   UNL     1      45.014   4.227   8.927  0.00  0.00    +0.000 S 
ATOM     23  C   UNL     1      44.480   3.697  10.453  0.00  0.00    +0.000 A 
ATOM     24  N   UNL     1      43.674   2.609  10.573  0.00  0.00    +0.000 NA
ATOM     25  C   UNL     1      43.322   2.337  11.785  0.00  0.00    +0.000 A 
ATOM     26  N   UNL     1      43.714   3.048  12.890  0.00  0.00    +0.000 N 
ATOM     27  C   UNL     1      44.560   4.130  12.821  0.00  0.00    +0.000 A 
ATOM     28  O   UNL     1      44.948   4.704  13.833  0.00  0.00    +0.000 OA
ATOM     29  C   UNL     1      44.957   4.500  11.476  0.00  0.00    +0.000 A 
ATOM     30  H   UNL     1      43.418   2.774  13.814  0.00  0.00    +0.000 HD
ENDBRANCH  17  20
ENDBRANCH   2  16
TORSDOF 5
ENDMDL
MODEL 8
REMARK VINA RESULT:    -6.780      3.401      9.275
REMARK INTER + INTRA:          -9.356
REMARK INTER:                  -8.234
REMARK INTRA:                  -1.122
REMARK UNBOUND:                -0.594
REMARK  Name = 
REMARK  6 active torsions:
REMARK  status: ('A' for Active; 'I' for Inactive)
REMARK    1  A    between atoms: C_1  and  C_2
REMARK    2  A    between atoms: C_2  and  N_3
REMARK    3  A    between atoms: C_2  and  C_16
REMARK    4  A    between atoms: C_4  and  C_6
REMARK    5  A    between atoms: C_19  and  C_20
REMARK    6  A    between atoms: C_20  and  N_21
REMARK                            x       y       z     vdW  Elec       q    Type
REMARK                         _______ _______ _______ _____ _____    ______ ____
ROOT
ATOM      1  C   UNL     1      47.368   3.042  17.409  0.00  0.00    +0.000 C 
ATOM      2  C   UNL     1      47.831   4.305  16.674  0.00  0.00    +0.000 C 
ENDROOT
BRANCH   2   3
ATOM      3  C   UNL     1      47.955   5.465  17.653  0.00  0.00    +0.000 A 
ATOM      4  C   UNL     1      48.653   6.627  17.302  0.00  0.00    +0.000 A 
ATOM      5  C   UNL     1      48.703   7.718  18.177  0.00  0.00    +0.000 A 
ATOM      6  C   UNL     1      48.051   7.671  19.417  0.00  0.00    +0.000 A 
ATOM      7  C   UNL     1      47.378   6.498  19.782  0.00  0.00    +0.000 A 
ATOM      8  C   UNL     1      47.331   5.410  18.911  0.00  0.00    +0.000 A 
BRANCH   6   9
ATOM      9  C   UNL     1      48.077   8.861  20.351  0.00  0.00    +0.000 C 
BRANCH   9  10
ATOM     10  N   UNL     1      47.016   9.861  20.092  0.00  0.00    +0.000 NA
ATOM     11  C   UNL     1      46.268  10.163  21.325  0.00  0.00    +0.000 C 
ATOM     12  C   UNL     1      45.251  11.293  21.143  0.00  0.00    +0.000 C 
ATOM     13  C   UNL     1      45.916  12.546  20.595  0.00  0.00    +0.000 C 
ATOM     14  C   UNL     1      46.638  12.209  19.300  0.00  0.00    +0.000 C 
ATOM     15  C   UNL     1      47.631  11.066  19.508  0.00  0.00    +0.000 C 
ENDBRANCH   9  10
ENDBRANCH   6   9
ENDBRANCH   2   3
BRANCH   2  16
ATOM     16  N   UNL     1      46.935   4.703  15.596  0.00  0.00    +0.000 N 
ATOM     17  C   UNL     1      46.956   4.147  14.344  0.00  0.00    +0.000 C 
ATOM     18  O   UNL     1      47.693   3.212  14.044  0.00  0.00    +0.000 OA
ATOM     19  H   UNL     1      46.541   5.636  15.685  0.00  0.00    +0.000 HD
BRANCH  17  20
ATOM     20  C   UNL     1      45.990   4.684  13.378  0.00  0.00    +0.000 A 
ATOM     21  C   UNL     1      45.088   3.827  12.764  0.00  0.00    +0.000 A 
ATOM     22  S   UNL     1      44.030   4.608  11.678  0.00  0.00    +0.000 S 
ATOM     23  C   UNL     1      44.768   6.114  11.957  0.00  0.00    +0.000 A 
ATOM     24  N   UNL     1      44.359   7.228  11.293  0.00  0.00    +0.000 NA
ATOM     25  C   UNL     1      45.025   8.295  11.580  0.00  0.00    +0.000 A 
ATOM     26  N   UNL     1      46.057   8.353  12.482  0.00  0.00    +0.000 N 
ATOM     27  C   UNL     1      46.479   7.263  13.205  0.00  0.00    +0.000 A 
ATOM     28  O   UNL     1      47.358   7.360  14.054  0.00  0.00    +0.000 OA
ATOM     29  C   UNL     1      45.785   6.027  12.894  0.00  0.00    +0.000 A 
ATOM     30  H   UNL     1      46.528   9.224  12.675  0.00  0.00    +0.000 HD
ENDBRANCH  17  20
ENDBRANCH   2  16
TORSDOF 5
ENDMDL
MODEL 9
REMARK VINA RESULT:    -6.511      3.588      5.936
REMARK INTER + INTRA:          -9.008
REMARK INTER:                  -8.505
REMARK INTRA:                  -0.504
REMARK UNBOUND:                -0.594
REMARK  Name = 
REMARK  6 active torsions:
REMARK  status: ('A' for Active; 'I' for Inactive)
REMARK    1  A    between atoms: C_1  and  C_2
REMARK    2  A    between atoms: C_2  and  N_3
REMARK    3  A    between atoms: C_2  and  C_16
REMARK    4  A    between atoms: C_4  and  C_6
REMARK    5  A    between atoms: C_19  and  C_20
REMARK    6  A    between atoms: C_20  and  N_21
REMARK                            x       y       z     vdW  Elec       q    Type
REMARK                         _______ _______ _______ _____ _____    ______ ____
ROOT
ATOM      1  C   UNL     1      47.584   4.965  15.048  0.00  0.00    +0.000 C 
ATOM      2  C   UNL     1      47.036   5.959  14.017  0.00  0.00    +0.000 C 
ENDROOT
BRANCH   2   3
ATOM      3  C   UNL     1      46.188   5.229  12.984  0.00  0.00    +0.000 A 
ATOM      4  C   UNL     1      45.495   5.937  11.995  0.00  0.00    +0.000 A 
ATOM      5  C   UNL     1      44.777   5.257  11.005  0.00  0.00    +0.000 A 
ATOM      6  C   UNL     1      44.742   3.856  10.981  0.00  0.00    +0.000 A 
ATOM      7  C   UNL     1      45.409   3.146  11.987  0.00  0.00    +0.000 A 
ATOM      8  C   UNL     1      46.123   3.825  12.976  0.00  0.00    +0.000 A 
BRANCH   6   9
ATOM      9  C   UNL     1      43.992   3.120   9.893  0.00  0.00    +0.000 C 
BRANCH   9  10
ATOM     10  N   UNL     1      44.767   2.921   8.646  0.00  0.00    +0.000 NA
ATOM     11  C   UNL     1      45.564   4.119   8.328  0.00  0.00    +0.000 C 
ATOM     12  C   UNL     1      46.489   3.916   7.126  0.00  0.00    +0.000 C 
ATOM     13  C   UNL     1      47.389   2.705   7.324  0.00  0.00    +0.000 C 
ATOM     14  C   UNL     1      46.532   1.481   7.603  0.00  0.00    +0.000 C 
ATOM     15  C   UNL     1      45.606   1.720   8.795  0.00  0.00    +0.000 C 
ENDBRANCH   9  10
ENDBRANCH   6   9
ENDBRANCH   2   3
BRANCH   2  16
ATOM     16  N   UNL     1      48.080   6.698  13.320  0.00  0.00    +0.000 N 
ATOM     17  C   UNL     1      48.236   8.057  13.402  0.00  0.00    +0.000 C 
ATOM     18  O   UNL     1      47.544   8.763  14.130  0.00  0.00    +0.000 OA
ATOM     19  H   UNL     1      48.464   6.233  12.501  0.00  0.00    +0.000 HD
BRANCH  17  20
ATOM     20  C   UNL     1      49.335   8.634  12.618  0.00  0.00    +0.000 A 
ATOM     21  C   UNL     1      50.612   8.105  12.737  0.00  0.00    +0.000 A 
ATOM     22  S   UNL     1      51.770   8.880  11.754  0.00  0.00    +0.000 S 
ATOM     23  C   UNL     1      50.614   9.980  11.165  0.00  0.00    +0.000 A 
ATOM     24  N   UNL     1      50.964  10.963  10.294  0.00  0.00    +0.000 NA
ATOM     25  C   UNL     1      49.994  11.744   9.953  0.00  0.00    +0.000 A 
ATOM     26  N   UNL     1      48.701  11.621  10.394  0.00  0.00    +0.000 N 
ATOM     27  C   UNL     1      48.293  10.619  11.242  0.00  0.00    +0.000 A 
ATOM     28  O   UNL     1      47.116  10.495  11.565  0.00  0.00    +0.000 OA
ATOM     29  C   UNL     1      49.354   9.735  11.685  0.00  0.00    +0.000 A 
ATOM     30  H   UNL     1      47.983  12.254  10.075  0.00  0.00    +0.000 HD
ENDBRANCH  17  20
ENDBRANCH   2  16
TORSDOF 5
ENDMDL
