MODEL 1
REMARK VINA RESULT:    -8.629      0.000      0.000
REMARK INTER + INTRA:         -13.364
REMARK INTER:                 -12.160
REMARK INTRA:                  -1.203
REMARK UNBOUND:                -1.203
REMARK  Name = 
REMARK  7 active torsions:
REMARK  status: ('A' for Active; 'I' for Inactive)
REMARK    1  A    between atoms: C_2  and  C_20
REMARK    2  A    between atoms: N_3  and  C_4
REMARK    3  A    between atoms: C_4  and  C_5
REMARK    4  A    between atoms: C_8  and  C_9
REMARK    5  A    between atoms: C_9  and  N_10
REMARK    6  A    between atoms: N_10  and  C_11
REMARK    7  A    between atoms: C_11  and  C_12
REMARK                            x       y       z     vdW  Elec       q    Type
REMARK                         _______ _______ _______ _____ _____    ______ ____
ROOT
ATOM      1  C   UNL     1      45.935   6.562  12.367  0.00  0.00    +0.000 A 
ATOM      2  C   UNL     1      45.980   6.332  10.985  0.00  0.00    +0.000 A 
ATOM      3  C   UNL     1      45.290   5.251  10.421  0.00  0.00    +0.000 A 
ATOM      4  C   UNL     1      44.547   4.375  11.228  0.00  0.00    +0.000 A 
ATOM      5  C   UNL     1      44.507   4.610  12.608  0.00  0.00    +0.000 A 
ATOM      6  C   UNL     1      45.171   5.702  13.166  0.00  0.00    +0.000 A 
ENDROOT
BRANCH   1   7
ATOM      7  C   UNL     1      46.675   7.720  12.991  0.00  0.00    +0.000 C 
BRANCH   7  10
ATOM      8  O   UNL     1      49.202   6.594  13.335  0.00  0.00    +0.000 OA
ATOM      9  C   UNL     1      48.508   6.778  14.292  0.00  0.00    +0.000 C 
ATOM     10  N   UNL     1      47.250   7.348  14.254  0.00  0.00    +0.000 N 
ATOM     11  H   UNL     1      46.620   7.031  14.971  0.00  0.00    +0.000 HD
BRANCH   9  12
ATOM     12  C   UNL     1      48.893   6.430  15.663  0.00  0.00    +0.000 A 
ATOM     13  C   UNL     1      50.121   6.790  16.228  0.00  0.00    +0.000 A 
ATOM     14  N   UNL     1      50.011   6.440  17.555  0.00  0.00    +0.000 N 
ATOM     15  C   UNL     1      49.435   5.185  17.439  0.00  0.00    +0.000 A 
ATOM     16  C   UNL     1      49.792   3.957  17.964  0.00  0.00    +0.000 A 
ATOM     17  C   UNL     1      48.930   2.901  17.673  0.00  0.00    +0.000 A 
ATOM     18  C   UNL     1      47.729   3.119  16.987  0.00  0.00    +0.000 A 
ATOM     19  C   UNL     1      47.444   4.359  16.388  0.00  0.00    +0.000 A 
ATOM     20  C   UNL     1      48.415   5.362  16.499  0.00  0.00    +0.000 A 
ATOM     21  H   UNL     1      49.540   7.092  18.163  0.00  0.00    +0.000 HD
ENDBRANCH   9  12
ENDBRANCH   7  10
ENDBRANCH   1   7
BRANCH   4  22
ATOM     22  C   UNL     1      43.746   3.227  10.647  0.00  0.00    +0.000 C 
BRANCH  22  23
ATOM     23  N   UNL     1      44.084   2.975   9.251  0.00  0.00    +0.000 NA
ATOM     24  H   UNL     1      44.556   3.795   8.873  0.00  0.00    +0.000 HD
BRANCH  23  25
ATOM     25  C   UNL     1      44.960   1.813   9.100  0.00  0.00    +0.000 C 
BRANCH  25  26
ATOM     26  C   UNL     1      45.931   2.038   7.971  0.00  0.00    +0.000 A 
ATOM     27  C   UNL     1      45.912   3.216   7.215  0.00  0.00    +0.000 A 
ATOM     28  C   UNL     1      46.850   3.408   6.207  0.00  0.00    +0.000 A 
ATOM     29  C   UNL     1      47.775   2.405   5.976  0.00  0.00    +0.000 A 
ATOM     30  N   UNL     1      47.816   1.245   6.667  0.00  0.00    +0.000 NA
ATOM     31  C   UNL     1      46.895   1.090   7.645  0.00  0.00    +0.000 A 
ENDBRANCH  25  26
ENDBRANCH  23  25
ENDBRANCH  22  23
ENDBRANCH   4  22
TORSDOF 7
ENDMDL
MODEL 2
REMARK VINA RESULT:    -8.169      1.862      2.602
REMARK INTER + INTRA:         -12.715
REMARK INTER:                 -11.805
REMARK INTRA:                  -0.910
REMARK UNBOUND:                -1.203
REMARK  Name = 
REMARK  7 active torsions:
REMARK  status: ('A' for Active; 'I' for Inactive)
REMARK    1  A    between atoms: C_2  and  C_20
REMARK    2  A    between atoms: N_3  and  C_4
REMARK    3  A    between atoms: C_4  and  C_5
REMARK    4  A    between atoms: C_8  and  C_9
REMARK    5  A    between atoms: C_9  and  N_10
REMARK    6  A    between atoms: N_10  and  C_11
REMARK    7  A    between atoms: C_11  and  C_12
REMARK                            x       y       z     vdW  Elec       q    Type
REMARK                         _______ _______ _______ _____ _____    ______ ____
ROOT
ATOM      1  C   UNL     1      46.764   5.893  12.922  0.00  0.00    +0.000 A 
ATOM      2  C   UNL     1      45.869   4.942  13.431  0.00  0.00    +0.000 A 
ATOM      3  C   UNL     1      44.826   4.450  12.636  0.00  0.00    +0.000 A 
ATOM      4  C   UNL     1      44.652   4.904  11.319  0.00  0.00    +0.000 A 
ATOM      5  C   UNL     1      45.550   5.855  10.817  0.00  0.00    +0.000 A 
ATOM      6  C   UNL     1      46.605   6.324  11.599  0.00  0.00    +0.000 A 
ENDROOT
BRANCH   1   7
ATOM      7  C   UNL     1      47.892   6.436  13.766  0.00  0.00    +0.000 C 
BRANCH   7  10
ATOM      8  O   UNL     1      49.949   6.463  15.648  0.00  0.00    +0.000 OA
ATOM      9  C   UNL     1      48.871   6.053  15.964  0.00  0.00    +0.000 C 
ATOM     10  N   UNL     1      47.768   6.010  15.132  0.00  0.00    +0.000 N 
ATOM     11  H   UNL     1      47.121   5.265  15.326  0.00  0.00    +0.000 HD
BRANCH   9  12
ATOM     12  C   UNL     1      48.550   5.535  17.299  0.00  0.00    +0.000 A 
ATOM     13  C   UNL     1      47.520   4.621  17.537  0.00  0.00    +0.000 A 
ATOM     14  N   UNL     1      47.669   4.262  18.859  0.00  0.00    +0.000 N 
ATOM     15  C   UNL     1      47.888   5.503  19.434  0.00  0.00    +0.000 A 
ATOM     16  C   UNL     1      47.281   6.143  20.499  0.00  0.00    +0.000 A 
ATOM     17  C   UNL     1      47.809   7.389  20.836  0.00  0.00    +0.000 A 
ATOM     18  C   UNL     1      48.949   7.886  20.194  0.00  0.00    +0.000 A 
ATOM     19  C   UNL     1      49.482   7.255  19.056  0.00  0.00    +0.000 A 
ATOM     20  C   UNL     1      48.819   6.115  18.588  0.00  0.00    +0.000 A 
ATOM     21  H   UNL     1      48.351   3.549  19.065  0.00  0.00    +0.000 HD
ENDBRANCH   9  12
ENDBRANCH   7  10
ENDBRANCH   1   7
BRANCH   4  22
ATOM     22  C   UNL     1      43.569   4.355  10.413  0.00  0.00    +0.000 C 
BRANCH  22  23
ATOM     23  N   UNL     1      44.105   3.893   9.138  0.00  0.00    +0.000 NA
ATOM     24  H   UNL     1      44.774   4.579   8.792  0.00  0.00    +0.000 HD
BRANCH  23  25
ATOM     25  C   UNL     1      44.777   2.599   9.262  0.00  0.00    +0.000 C 
BRANCH  25  26
ATOM     26  C   UNL     1      45.764   2.417   8.140  0.00  0.00    +0.000 A 
ATOM     27  C   UNL     1      46.023   3.440   7.221  0.00  0.00    +0.000 A 
ATOM     28  C   UNL     1      46.972   3.252   6.222  0.00  0.00    +0.000 A 
ATOM     29  C   UNL     1      47.628   2.035   6.165  0.00  0.00    +0.000 A 
ATOM     30  N   UNL     1      47.394   1.014   7.018  0.00  0.00    +0.000 NA
ATOM     31  C   UNL     1      46.470   1.229   7.983  0.00  0.00    +0.000 A 
ENDBRANCH  25  26
ENDBRANCH  23  25
ENDBRANCH  22  23
ENDBRANCH   4  22
TORSDOF 7
ENDMDL
MODEL 3
REMARK VINA RESULT:    -8.110      1.748      8.508
REMARK INTER + INTRA:         -12.632
REMARK INTER:                 -11.712
REMARK INTRA:                  -0.921
REMARK UNBOUND:                -1.203
REMARK  Name = 
REMARK  7 active torsions:
REMARK  status: ('A' for Active; 'I' for Inactive)
REMARK    1  A    between atoms: C_2  and  C_20
REMARK    2  A    between atoms: N_3  and  C_4
REMARK    3  A    between atoms: C_4  and  C_5
REMARK    4  A    between atoms: C_8  and  C_9
REMARK    5  A    between atoms: C_9  and  N_10
REMARK    6  A    between atoms: N_10  and  C_11
REMARK    7  A    between atoms: C_11  and  C_12
REMARK                            x       y       z     vdW  Elec       q    Type
REMARK                         _______ _______ _______ _____ _____    ______ ____
ROOT
ATOM      1  C   UNL     1      45.761   6.894  12.289  0.00  0.00    +0.000 A 
ATOM      2  C   UNL     1      46.215   8.155  12.703  0.00  0.00    +0.000 A 
ATOM      3  C   UNL     1      47.236   8.265  13.655  0.00  0.00    +0.000 A 
ATOM      4  C   UNL     1      47.818   7.119  14.218  0.00  0.00    +0.000 A 
ATOM      5  C   UNL     1      47.360   5.863  13.801  0.00  0.00    +0.000 A 
ATOM      6  C   UNL     1      46.363   5.752  12.832  0.00  0.00    +0.000 A 
ENDROOT
BRANCH   1   7
ATOM      7  C   UNL     1      44.660   6.757  11.265  0.00  0.00    +0.000 C 
BRANCH   7  10
ATOM      8  O   UNL     1      46.138   5.898   9.062  0.00  0.00    +0.000 OA
ATOM      9  C   UNL     1      45.393   5.133   9.603  0.00  0.00    +0.000 C 
ATOM     10  N   UNL     1      44.627   5.431  10.713  0.00  0.00    +0.000 N 
ATOM     11  H   UNL     1      43.758   4.928  10.775  0.00  0.00    +0.000 HD
BRANCH   9  12
ATOM     12  C   UNL     1      45.185   3.748   9.170  0.00  0.00    +0.000 A 
ATOM     13  C   UNL     1      44.876   2.708  10.052  0.00  0.00    +0.000 A 
ATOM     14  N   UNL     1      44.587   1.634   9.240  0.00  0.00    +0.000 N 
ATOM     15  C   UNL     1      45.623   1.725   8.323  0.00  0.00    +0.000 A 
ATOM     16  C   UNL     1      46.548   0.796   7.886  0.00  0.00    +0.000 A 
ATOM     17  C   UNL     1      47.426   1.236   6.896  0.00  0.00    +0.000 A 
ATOM     18  C   UNL     1      47.286   2.505   6.321  0.00  0.00    +0.000 A 
ATOM     19  C   UNL     1      46.397   3.455   6.855  0.00  0.00    +0.000 A 
ATOM     20  C   UNL     1      45.666   3.082   7.988  0.00  0.00    +0.000 A 
ATOM     21  H   UNL     1      43.656   1.587   8.856  0.00  0.00    +0.000 HD
ENDBRANCH   9  12
ENDBRANCH   7  10
ENDBRANCH   1   7
BRANCH   4  22
ATOM     22  C   UNL     1      48.960   7.199  15.211  0.00  0.00    +0.000 C 
BRANCH  22  23
ATOM     23  N   UNL     1      48.495   7.527  16.554  0.00  0.00    +0.000 NA
ATOM     24  H   UNL     1      47.495   7.343  16.611  0.00  0.00    +0.000 HD
BRANCH  23  25
ATOM     25  C   UNL     1      49.180   6.738  17.579  0.00  0.00    +0.000 C 
BRANCH  25  26
ATOM     26  C   UNL     1      48.901   5.272  17.378  0.00  0.00    +0.000 A 
ATOM     27  C   UNL     1      47.593   4.773  17.359  0.00  0.00    +0.000 A 
ATOM     28  C   UNL     1      47.370   3.420  17.129  0.00  0.00    +0.000 A 
ATOM     29  C   UNL     1      48.470   2.601  16.935  0.00  0.00    +0.000 A 
ATOM     30  N   UNL     1      49.748   3.037  16.965  0.00  0.00    +0.000 NA
ATOM     31  C   UNL     1      49.932   4.359  17.185  0.00  0.00    +0.000 A 
ENDBRANCH  25  26
ENDBRANCH  23  25
ENDBRANCH  22  23
ENDBRANCH   4  22
TORSDOF 7
ENDMDL
MODEL 4
REMARK VINA RESULT:    -7.229      2.775      9.227
REMARK INTER + INTRA:         -11.391
REMARK INTER:                 -10.710
REMARK INTRA:                  -0.682
REMARK UNBOUND:                -1.203
REMARK  Name = 
REMARK  7 active torsions:
REMARK  status: ('A' for Active; 'I' for Inactive)
REMARK    1  A    between atoms: C_2  and  C_20
REMARK    2  A    between atoms: N_3  and  C_4
REMARK    3  A    between atoms: C_4  and  C_5
REMARK    4  A    between atoms: C_8  and  C_9
REMARK    5  A    between atoms: C_9  and  N_10
REMARK    6  A    between atoms: N_10  and  C_11
REMARK    7  A    between atoms: C_11  and  C_12
REMARK                            x       y       z     vdW  Elec       q    Type
REMARK                         _______ _______ _______ _____ _____    ______ ____
ROOT
ATOM      1  C   UNL     1      47.512   5.639  14.675  0.00  0.00    +0.000 A 
ATOM      2  C   UNL     1      47.105   4.379  15.136  0.00  0.00    +0.000 A 
ATOM      3  C   UNL     1      47.656   3.837  16.304  0.00  0.00    +0.000 A 
ATOM      4  C   UNL     1      48.629   4.541  17.031  0.00  0.00    +0.000 A 
ATOM      5  C   UNL     1      49.032   5.798  16.564  0.00  0.00    +0.000 A 
ATOM      6  C   UNL     1      48.463   6.351  15.417  0.00  0.00    +0.000 A 
ENDROOT
BRANCH   1   7
ATOM      7  C   UNL     1      46.930   6.237  13.416  0.00  0.00    +0.000 C 
BRANCH   7  10
ATOM      8  O   UNL     1      45.426   6.721  11.119  0.00  0.00    +0.000 OA
ATOM      9  C   UNL     1      45.593   5.594  11.483  0.00  0.00    +0.000 C 
ATOM     10  N   UNL     1      46.335   5.224  12.589  0.00  0.00    +0.000 N 
ATOM     11  H   UNL     1      46.028   4.381  13.042  0.00  0.00    +0.000 HD
BRANCH   9  12
ATOM     12  C   UNL     1      45.036   4.421  10.801  0.00  0.00    +0.000 A 
ATOM     13  C   UNL     1      44.654   3.256  11.472  0.00  0.00    +0.000 A 
ATOM     14  N   UNL     1      44.027   2.490  10.514  0.00  0.00    +0.000 N 
ATOM     15  C   UNL     1      44.907   2.641   9.454  0.00  0.00    +0.000 A 
ATOM     16  C   UNL     1      45.541   1.715   8.645  0.00  0.00    +0.000 A 
ATOM     17  C   UNL     1      46.330   2.244   7.626  0.00  0.00    +0.000 A 
ATOM     18  C   UNL     1      46.373   3.623   7.389  0.00  0.00    +0.000 A 
ATOM     19  C   UNL     1      45.795   4.538   8.286  0.00  0.00    +0.000 A 
ATOM     20  C   UNL     1      45.182   4.012   9.430  0.00  0.00    +0.000 A 
ATOM     21  H   UNL     1      43.060   2.698  10.322  0.00  0.00    +0.000 HD
ENDBRANCH   9  12
ENDBRANCH   7  10
ENDBRANCH   1   7
BRANCH   4  22
ATOM     22  C   UNL     1      49.208   4.010  18.327  0.00  0.00    +0.000 C 
BRANCH  22  23
ATOM     23  N   UNL     1      50.182   2.948  18.096  0.00  0.00    +0.000 NA
ATOM     24  H   UNL     1      49.913   2.430  17.262  0.00  0.00    +0.000 HD
BRANCH  23  25
ATOM     25  C   UNL     1      51.534   3.475  17.911  0.00  0.00    +0.000 C 
BRANCH  25  26
ATOM     26  C   UNL     1      52.552   2.402  18.197  0.00  0.00    +0.000 A 
ATOM     27  C   UNL     1      52.528   1.175  17.525  0.00  0.00    +0.000 A 
ATOM     28  C   UNL     1      53.508   0.223  17.784  0.00  0.00    +0.000 A 
ATOM     29  C   UNL     1      54.481   0.526  18.721  0.00  0.00    +0.000 A 
ATOM     30  N   UNL     1      54.529   1.689  19.407  0.00  0.00    +0.000 NA
ATOM     31  C   UNL     1      53.566   2.597  19.129  0.00  0.00    +0.000 A 
ENDBRANCH  25  26
ENDBRANCH  23  25
ENDBRANCH  22  23
ENDBRANCH   4  22
TORSDOF 7
ENDMDL
MODEL 5
REMARK VINA RESULT:    -7.125      3.985      7.643
REMARK INTER + INTRA:         -11.244
REMARK INTER:                 -10.362
REMARK INTRA:                  -0.882
REMARK UNBOUND:                -1.203
REMARK  Name = 
REMARK  7 active torsions:
REMARK  status: ('A' for Active; 'I' for Inactive)
REMARK    1  A    between atoms: C_2  and  C_20
REMARK    2  A    between atoms: N_3  and  C_4
REMARK    3  A    between atoms: C_4  and  C_5
REMARK    4  A    between atoms: C_8  and  C_9
REMARK    5  A    between atoms: C_9  and  N_10
REMARK    6  A    between atoms: N_10  and  C_11
REMARK    7  A    between atoms: C_11  and  C_12
REMARK                            x       y       z     vdW  Elec       q    Type
REMARK                         _______ _______ _______ _____ _____    ______ ____
ROOT
ATOM      1  C   UNL     1      47.336   6.829  12.825  0.00  0.00    +0.000 A 
ATOM      2  C   UNL     1      48.203   6.962  13.918  0.00  0.00    +0.000 A 
ATOM      3  C   UNL     1      49.501   7.457  13.740  0.00  0.00    +0.000 A 
ATOM      4  C   UNL     1      49.961   7.822  12.465  0.00  0.00    +0.000 A 
ATOM      5  C   UNL     1      49.089   7.686  11.377  0.00  0.00    +0.000 A 
ATOM      6  C   UNL     1      47.787   7.219  11.558  0.00  0.00    +0.000 A 
ENDROOT
BRANCH   1   7
ATOM      7  C   UNL     1      45.935   6.294  12.999  0.00  0.00    +0.000 C 
BRANCH   7  10
ATOM      8  O   UNL     1      43.916   6.204  11.078  0.00  0.00    +0.000 OA
ATOM      9  C   UNL     1      44.638   5.260  11.213  0.00  0.00    +0.000 C 
ATOM     10  N   UNL     1      45.686   5.192  12.111  0.00  0.00    +0.000 N 
ATOM     11  H   UNL     1      45.890   4.270  12.455  0.00  0.00    +0.000 HD
BRANCH   9  12
ATOM     12  C   UNL     1      44.525   4.023  10.434  0.00  0.00    +0.000 A 
ATOM     13  C   UNL     1      44.337   2.766  11.017  0.00  0.00    +0.000 A 
ATOM     14  N   UNL     1      44.104   1.920   9.955  0.00  0.00    +0.000 N 
ATOM     15  C   UNL     1      45.090   2.339   9.076  0.00  0.00    +0.000 A 
ATOM     16  C   UNL     1      46.069   1.642   8.392  0.00  0.00    +0.000 A 
ATOM     17  C   UNL     1      46.867   2.401   7.538  0.00  0.00    +0.000 A 
ATOM     18  C   UNL     1      46.601   3.759   7.321  0.00  0.00    +0.000 A 
ATOM     19  C   UNL     1      45.661   4.454   8.102  0.00  0.00    +0.000 A 
ATOM     20  C   UNL     1      45.009   3.735   9.110  0.00  0.00    +0.000 A 
ATOM     21  H   UNL     1      43.165   1.892   9.590  0.00  0.00    +0.000 HD
ENDBRANCH   9  12
ENDBRANCH   7  10
ENDBRANCH   1   7
BRANCH   4  22
ATOM     22  C   UNL     1      51.339   8.411  12.242  0.00  0.00    +0.000 C 
BRANCH  22  23
ATOM     23  N   UNL     1      52.160   7.570  11.379  0.00  0.00    +0.000 NA
ATOM     24  H   UNL     1      51.752   6.637  11.343  0.00  0.00    +0.000 HD
BRANCH  23  25
ATOM     25  C   UNL     1      52.249   8.101  10.019  0.00  0.00    +0.000 C 
BRANCH  25  26
ATOM     26  C   UNL     1      52.756   7.038   9.079  0.00  0.00    +0.000 A 
ATOM     27  C   UNL     1      53.671   6.066   9.500  0.00  0.00    +0.000 A 
ATOM     28  C   UNL     1      54.085   5.075   8.618  0.00  0.00    +0.000 A 
ATOM     29  C   UNL     1      53.577   5.093   7.330  0.00  0.00    +0.000 A 
ATOM     30  N   UNL     1      52.709   6.024   6.877  0.00  0.00    +0.000 NA
ATOM     31  C   UNL     1      52.320   6.972   7.760  0.00  0.00    +0.000 A 
ENDBRANCH  25  26
ENDBRANCH  23  25
ENDBRANCH  22  23
ENDBRANCH   4  22
TORSDOF 7
ENDMDL
MODEL 6
REMARK VINA RESULT:    -7.054      2.575      3.604
REMARK INTER + INTRA:         -11.144
REMARK INTER:                 -10.389
REMARK INTRA:                  -0.755
REMARK UNBOUND:                -1.203
REMARK  Name = 
REMARK  7 active torsions:
REMARK  status: ('A' for Active; 'I' for Inactive)
REMARK    1  A    between atoms: C_2  and  C_20
REMARK    2  A    between atoms: N_3  and  C_4
REMARK    3  A    between atoms: C_4  and  C_5
REMARK    4  A    between atoms: C_8  and  C_9
REMARK    5  A    between atoms: C_9  and  N_10
REMARK    6  A    between atoms: N_10  and  C_11
REMARK    7  A    between atoms: C_11  and  C_12
REMARK                            x       y       z     vdW  Elec       q    Type
REMARK                         _______ _______ _______ _____ _____    ______ ____
ROOT
ATOM      1  C   UNL     1      47.269   6.490  13.527  0.00  0.00    +0.000 A 
ATOM      2  C   UNL     1      46.864   5.148  13.505  0.00  0.00    +0.000 A 
ATOM      3  C   UNL     1      45.640   4.784  12.930  0.00  0.00    +0.000 A 
ATOM      4  C   UNL     1      44.793   5.755  12.372  0.00  0.00    +0.000 A 
ATOM      5  C   UNL     1      45.203   7.094  12.399  0.00  0.00    +0.000 A 
ATOM      6  C   UNL     1      46.435   7.453  12.946  0.00  0.00    +0.000 A 
ENDROOT
BRANCH   1   7
ATOM      7  C   UNL     1      48.584   6.900  14.146  0.00  0.00    +0.000 C 
BRANCH   7  10
ATOM      8  O   UNL     1      49.346   5.313  16.308  0.00  0.00    +0.000 OA
ATOM      9  C   UNL     1      48.821   6.369  16.512  0.00  0.00    +0.000 C 
ATOM     10  N   UNL     1      48.419   7.252  15.529  0.00  0.00    +0.000 N 
ATOM     11  H   UNL     1      47.623   7.818  15.768  0.00  0.00    +0.000 HD
BRANCH   9  12
ATOM     12  C   UNL     1      48.526   6.892  17.850  0.00  0.00    +0.000 A 
ATOM     13  C   UNL     1      47.644   6.270  18.738  0.00  0.00    +0.000 A 
ATOM     14  N   UNL     1      47.789   6.964  19.919  0.00  0.00    +0.000 N 
ATOM     15  C   UNL     1      47.783   8.267  19.449  0.00  0.00    +0.000 A 
ATOM     16  C   UNL     1      47.035   9.373  19.811  0.00  0.00    +0.000 A 
ATOM     17  C   UNL     1      47.344  10.556  19.144  0.00  0.00    +0.000 A 
ATOM     18  C   UNL     1      48.419  10.621  18.249  0.00  0.00    +0.000 A 
ATOM     19  C   UNL     1      49.095   9.460  17.834  0.00  0.00    +0.000 A 
ATOM     20  C   UNL     1      48.642   8.238  18.345  0.00  0.00    +0.000 A 
ATOM     21  H   UNL     1      48.565   6.707  20.509  0.00  0.00    +0.000 HD
ENDBRANCH   9  12
ENDBRANCH   7  10
ENDBRANCH   1   7
BRANCH   4  22
ATOM     22  C   UNL     1      43.487   5.392  11.694  0.00  0.00    +0.000 C 
BRANCH  22  23
ATOM     23  N   UNL     1      43.681   5.016  10.298  0.00  0.00    +0.000 NA
ATOM     24  H   UNL     1      44.491   5.515   9.932  0.00  0.00    +0.000 HD
BRANCH  23  25
ATOM     25  C   UNL     1      43.900   3.578  10.144  0.00  0.00    +0.000 C 
BRANCH  25  26
ATOM     26  C   UNL     1      44.972   3.324   9.116  0.00  0.00    +0.000 A 
ATOM     27  C   UNL     1      45.429   2.031   8.840  0.00  0.00    +0.000 A 
ATOM     28  C   UNL     1      46.390   1.830   7.856  0.00  0.00    +0.000 A 
ATOM     29  C   UNL     1      46.875   2.937   7.181  0.00  0.00    +0.000 A 
ATOM     30  N   UNL     1      46.477   4.204   7.429  0.00  0.00    +0.000 NA
ATOM     31  C   UNL     1      45.537   4.367   8.389  0.00  0.00    +0.000 A 
ENDBRANCH  25  26
ENDBRANCH  23  25
ENDBRANCH  22  23
ENDBRANCH   4  22
TORSDOF 7
ENDMDL
MODEL 7
REMARK VINA RESULT:    -6.840      2.864      3.495
REMARK INTER + INTRA:         -10.843
REMARK INTER:                 -10.084
REMARK INTRA:                  -0.759
REMARK UNBOUND:                -1.203
REMARK  Name = 
REMARK  7 active torsions:
REMARK  status: ('A' for Active; 'I' for Inactive)
REMARK    1  A    between atoms: C_2  and  C_20
REMARK    2  A    between atoms: N_3  and  C_4
REMARK    3  A    between atoms: C_4  and  C_5
REMARK    4  A    between atoms: C_8  and  C_9
REMARK    5  A    between atoms: C_9  and  N_10
REMARK    6  A    between atoms: N_10  and  C_11
REMARK    7  A    between atoms: C_11  and  C_12
REMARK                            x       y       z     vdW  Elec       q    Type
REMARK                         _______ _______ _______ _____ _____    ______ ____
ROOT
ATOM      1  C   UNL     1      46.682   6.939  13.151  0.00  0.00    +0.000 A 
ATOM      2  C   UNL     1      45.486   7.116  12.441  0.00  0.00    +0.000 A 
ATOM      3  C   UNL     1      44.722   6.010  12.048  0.00  0.00    +0.000 A 
ATOM      4  C   UNL     1      45.143   4.705  12.349  0.00  0.00    +0.000 A 
ATOM      5  C   UNL     1      46.339   4.536  13.057  0.00  0.00    +0.000 A 
ATOM      6  C   UNL     1      47.085   5.638  13.474  0.00  0.00    +0.000 A 
ENDROOT
BRANCH   1   7
ATOM      7  C   UNL     1      47.518   8.121  13.580  0.00  0.00    +0.000 C 
BRANCH   7  10
ATOM      8  O   UNL     1      49.338   9.726  14.955  0.00  0.00    +0.000 OA
ATOM      9  C   UNL     1      48.637   8.975  15.569  0.00  0.00    +0.000 C 
ATOM     10  N   UNL     1      47.683   8.148  15.007  0.00  0.00    +0.000 N 
ATOM     11  H   UNL     1      47.520   7.291  15.506  0.00  0.00    +0.000 HD
BRANCH   9  12
ATOM     12  C   UNL     1      48.679   8.823  17.027  0.00  0.00    +0.000 A 
ATOM     13  C   UNL     1      48.644   7.582  17.668  0.00  0.00    +0.000 A 
ATOM     14  N   UNL     1      48.885   7.865  18.994  0.00  0.00    +0.000 N 
ATOM     15  C   UNL     1      48.060   8.965  19.171  0.00  0.00    +0.000 A 
ATOM     16  C   UNL     1      47.082   9.241  20.109  0.00  0.00    +0.000 A 
ATOM     17  C   UNL     1      46.483  10.495  20.007  0.00  0.00    +0.000 A 
ATOM     18  C   UNL     1      46.938  11.438  19.077  0.00  0.00    +0.000 A 
ATOM     19  C   UNL     1      47.866  11.092  18.080  0.00  0.00    +0.000 A 
ATOM     20  C   UNL     1      48.310   9.764  18.050  0.00  0.00    +0.000 A 
ATOM     21  H   UNL     1      49.847   7.982  19.271  0.00  0.00    +0.000 HD
ENDBRANCH   9  12
ENDBRANCH   7  10
ENDBRANCH   1   7
BRANCH   4  22
ATOM     22  C   UNL     1      44.317   3.487  11.986  0.00  0.00    +0.000 C 
BRANCH  22  23
ATOM     23  N   UNL     1      44.978   2.656  10.987  0.00  0.00    +0.000 NA
ATOM     24  H   UNL     1      44.951   1.685  11.295  0.00  0.00    +0.000 HD
BRANCH  23  25
ATOM     25  C   UNL     1      44.333   2.755   9.677  0.00  0.00    +0.000 C 
BRANCH  25  26
ATOM     26  C   UNL     1      45.350   2.566   8.583  0.00  0.00    +0.000 A 
ATOM     27  C   UNL     1      45.706   3.614   7.726  0.00  0.00    +0.000 A 
ATOM     28  C   UNL     1      46.679   3.415   6.754  0.00  0.00    +0.000 A 
ATOM     29  C   UNL     1      47.262   2.163   6.660  0.00  0.00    +0.000 A 
ATOM     30  N   UNL     1      46.934   1.119   7.451  0.00  0.00    +0.000 NA
ATOM     31  C   UNL     1      45.988   1.345   8.391  0.00  0.00    +0.000 A 
ENDBRANCH  25  26
ENDBRANCH  23  25
ENDBRANCH  22  23
ENDBRANCH   4  22
TORSDOF 7
ENDMDL
MODEL 8
REMARK VINA RESULT:    -6.764      1.492      2.117
REMARK INTER + INTRA:         -10.736
REMARK INTER:                  -9.779
REMARK INTRA:                  -0.957
REMARK UNBOUND:                -1.203
REMARK  Name = 
REMARK  7 active torsions:
REMARK  status: ('A' for Active; 'I' for Inactive)
REMARK    1  A    between atoms: C_2  and  C_20
REMARK    2  A    between atoms: N_3  and  C_4
REMARK    3  A    between atoms: C_4  and  C_5
REMARK    4  A    between atoms: C_8  and  C_9
REMARK    5  A    between atoms: C_9  and  N_10
REMARK    6  A    between atoms: N_10  and  C_11
REMARK    7  A    between atoms: C_11  and  C_12
REMARK                            x       y       z     vdW  Elec       q    Type
REMARK                         _______ _______ _______ _____ _____    ______ ____
ROOT
ATOM      1  C   UNL     1      46.578   8.304  12.561  0.00  0.00    +0.000 A 
ATOM      2  C   UNL     1      45.502   8.800  11.812  0.00  0.00    +0.000 A 
ATOM      3  C   UNL     1      44.444   7.959  11.446  0.00  0.00    +0.000 A 
ATOM      4  C   UNL     1      44.443   6.605  11.815  0.00  0.00    +0.000 A 
ATOM      5  C   UNL     1      45.521   6.116  12.563  0.00  0.00    +0.000 A 
ATOM      6  C   UNL     1      46.562   6.960  12.952  0.00  0.00    +0.000 A 
ENDROOT
BRANCH   1   7
ATOM      7  C   UNL     1      47.729   9.196  12.962  0.00  0.00    +0.000 C 
BRANCH   7  10
ATOM      8  O   UNL     1      50.025   7.616  12.873  0.00  0.00    +0.000 OA
ATOM      9  C   UNL     1      49.536   7.882  13.933  0.00  0.00    +0.000 C 
ATOM     10  N   UNL     1      48.416   8.672  14.109  0.00  0.00    +0.000 N 
ATOM     11  H   UNL     1      47.860   8.443  14.915  0.00  0.00    +0.000 HD
BRANCH   9  12
ATOM     12  C   UNL     1      50.062   7.411  15.218  0.00  0.00    +0.000 A 
ATOM     13  C   UNL     1      51.426   7.389  15.525  0.00  0.00    +0.000 A 
ATOM     14  N   UNL     1      51.479   7.060  16.862  0.00  0.00    +0.000 N 
ATOM     15  C   UNL     1      50.555   6.028  16.904  0.00  0.00    +0.000 A 
ATOM     16  C   UNL     1      50.638   4.738  17.397  0.00  0.00    +0.000 A 
ATOM     17  C   UNL     1      49.470   3.983  17.315  0.00  0.00    +0.000 A 
ATOM     18  C   UNL     1      48.274   4.552  16.861  0.00  0.00    +0.000 A 
ATOM     19  C   UNL     1      48.247   5.833  16.281  0.00  0.00    +0.000 A 
ATOM     20  C   UNL     1      49.467   6.510  16.169  0.00  0.00    +0.000 A 
ATOM     21  H   UNL     1      51.340   7.808  17.523  0.00  0.00    +0.000 HD
ENDBRANCH   9  12
ENDBRANCH   7  10
ENDBRANCH   1   7
BRANCH   4  22
ATOM     22  C   UNL     1      43.290   5.679  11.482  0.00  0.00    +0.000 C 
BRANCH  22  23
ATOM     23  N   UNL     1      43.434   5.080  10.160  0.00  0.00    +0.000 NA
ATOM     24  H   UNL     1      44.131   5.605   9.634  0.00  0.00    +0.000 HD
BRANCH  23  25
ATOM     25  C   UNL     1      43.853   3.680  10.236  0.00  0.00    +0.000 C 
BRANCH  25  26
ATOM     26  C   UNL     1      44.915   3.401   9.205  0.00  0.00    +0.000 A 
ATOM     27  C   UNL     1      45.378   2.102   8.966  0.00  0.00    +0.000 A 
ATOM     28  C   UNL     1      46.329   1.876   7.977  0.00  0.00    +0.000 A 
ATOM     29  C   UNL     1      46.800   2.964   7.263  0.00  0.00    +0.000 A 
ATOM     30  N   UNL     1      46.396   4.235   7.475  0.00  0.00    +0.000 NA
ATOM     31  C   UNL     1      45.466   4.423   8.439  0.00  0.00    +0.000 A 
ENDBRANCH  25  26
ENDBRANCH  23  25
ENDBRANCH  22  23
ENDBRANCH   4  22
TORSDOF 7
ENDMDL
MODEL 9
REMARK VINA RESULT:    -6.756      3.000      3.566
REMARK INTER + INTRA:         -10.724
REMARK INTER:                 -10.009
REMARK INTRA:                  -0.715
REMARK UNBOUND:                -1.203
REMARK  Name = 
REMARK  7 active torsions:
REMARK  status: ('A' for Active; 'I' for Inactive)
REMARK    1  A    between atoms: C_2  and  C_20
REMARK    2  A    between atoms: N_3  and  C_4
REMARK    3  A    between atoms: C_4  and  C_5
REMARK    4  A    between atoms: C_8  and  C_9
REMARK    5  A    between atoms: C_9  and  N_10
REMARK    6  A    between atoms: N_10  and  C_11
REMARK    7  A    between atoms: C_11  and  C_12
REMARK                            x       y       z     vdW  Elec       q    Type
REMARK                         _______ _______ _______ _____ _____    ______ ____
ROOT
ATOM      1  C   UNL     1      47.265   8.085  13.602  0.00  0.00    +0.000 A 
ATOM      2  C   UNL     1      46.134   8.714  13.062  0.00  0.00    +0.000 A 
ATOM      3  C   UNL     1      45.214   7.987  12.295  0.00  0.00    +0.000 A 
ATOM      4  C   UNL     1      45.410   6.620  12.045  0.00  0.00    +0.000 A 
ATOM      5  C   UNL     1      46.543   5.998  12.586  0.00  0.00    +0.000 A 
ATOM      6  C   UNL     1      47.444   6.715  13.374  0.00  0.00    +0.000 A 
ENDROOT
BRANCH   1   7
ATOM      7  C   UNL     1      48.268   8.853  14.428  0.00  0.00    +0.000 C 
BRANCH   7  10
ATOM      8  O   UNL     1      49.558   8.131  16.792  0.00  0.00    +0.000 OA
ATOM      9  C   UNL     1      48.493   8.674  16.848  0.00  0.00    +0.000 C 
ATOM     10  N   UNL     1      47.768   9.101  15.752  0.00  0.00    +0.000 N 
ATOM     11  H   UNL     1      46.770   9.092  15.876  0.00  0.00    +0.000 HD
BRANCH   9  12
ATOM     12  C   UNL     1      47.794   8.980  18.100  0.00  0.00    +0.000 A 
ATOM     13  C   UNL     1      47.861  10.227  18.729  0.00  0.00    +0.000 A 
ATOM     14  N   UNL     1      46.939  10.154  19.749  0.00  0.00    +0.000 N 
ATOM     15  C   UNL     1      47.227   8.899  20.261  0.00  0.00    +0.000 A 
ATOM     16  C   UNL     1      47.505   8.471  21.547  0.00  0.00    +0.000 A 
ATOM     17  C   UNL     1      47.698   7.100  21.699  0.00  0.00    +0.000 A 
ATOM     18  C   UNL     1      47.508   6.221  20.625  0.00  0.00    +0.000 A 
ATOM     19  C   UNL     1      47.320   6.697  19.316  0.00  0.00    +0.000 A 
ATOM     20  C   UNL     1      47.340   8.085  19.130  0.00  0.00    +0.000 A 
ATOM     21  H   UNL     1      45.975  10.326  19.509  0.00  0.00    +0.000 HD
ENDBRANCH   9  12
ENDBRANCH   7  10
ENDBRANCH   1   7
BRANCH   4  22
ATOM     22  C   UNL     1      44.410   5.791  11.265  0.00  0.00    +0.000 C 
BRANCH  22  23
ATOM     23  N   UNL     1      44.772   4.378  11.241  0.00  0.00    +0.000 NA
ATOM     24  H   UNL     1      44.504   3.954  12.128  0.00  0.00    +0.000 HD
BRANCH  23  25
ATOM     25  C   UNL     1      44.107   3.661  10.152  0.00  0.00    +0.000 C 
BRANCH  25  26
ATOM     26  C   UNL     1      45.105   3.309   9.080  0.00  0.00    +0.000 A 
ATOM     27  C   UNL     1      45.528   1.990   8.880  0.00  0.00    +0.000 A 
ATOM     28  C   UNL     1      46.418   1.694   7.853  0.00  0.00    +0.000 A 
ATOM     29  C   UNL     1      46.869   2.736   7.061  0.00  0.00    +0.000 A 
ATOM     30  N   UNL     1      46.503   4.025   7.232  0.00  0.00    +0.000 NA
ATOM     31  C   UNL     1      45.632   4.280   8.235  0.00  0.00    +0.000 A 
ENDBRANCH  25  26
ENDBRANCH  23  25
ENDBRANCH  22  23
ENDBRANCH   4  22
TORSDOF 7
ENDMDL
