MODEL 1
REMARK VINA RESULT:    -6.758      0.000      0.000
REMARK INTER + INTRA:          -8.890
REMARK INTER:                  -8.338
REMARK INTRA:                  -0.551
REMARK UNBOUND:                -0.551
REMARK  Name = 
REMARK  4 active torsions:
REMARK  status: ('A' for Active; 'I' for Inactive)
REMARK    1  A    between atoms: C_2  and  C_4
REMARK    2  A    between atoms: C_8  and  C_9
REMARK    3  A    between atoms: C_10  and  C_11
REMARK    4  A    between atoms: C_15  and  C_16
REMARK                            x       y       z     vdW  Elec       q    Type
REMARK                         _______ _______ _______ _____ _____    ______ ____
ROOT
ATOM      1  C   UNL     1      45.995   4.609  13.821  0.00  0.00    +0.000 C 
ATOM      2  C   UNL     1      46.752   4.398  14.726  0.00  0.00    +0.000 C 
ENDROOT
BRANCH   1   7
ATOM      3  C   UNL     1      44.552   4.707  10.387  0.00  0.00    +0.000 A 
ATOM      4  C   UNL     1      43.242   5.117  10.666  0.00  0.00    +0.000 A 
ATOM      5  C   UNL     1      42.851   5.358  11.984  0.00  0.00    +0.000 A 
ATOM      6  C   UNL     1      43.764   5.185  13.023  0.00  0.00    +0.000 A 
ATOM      7  C   UNL     1      45.070   4.773  12.746  0.00  0.00    +0.000 A 
ATOM      8  C   UNL     1      45.466   4.528  11.432  0.00  0.00    +0.000 A 
BRANCH   3  10
ATOM      9  N   UNL     1      44.342   3.430   8.326  0.00  0.00    +0.000 N 
ATOM     10  C   UNL     1      45.001   4.419   9.002  0.00  0.00    +0.000 C 
ATOM     11  O   UNL     1      45.900   5.057   8.470  0.00  0.00    +0.000 OA
ATOM     12  H   UNL     1      44.592   3.313   7.353  0.00  0.00    +0.000 HD
ATOM     13  H   UNL     1      43.447   3.074   8.628  0.00  0.00    +0.000 HD
ENDBRANCH   3  10
ENDBRANCH   1   7
BRANCH   2  14
ATOM     14  C   UNL     1      47.622   4.053  15.803  0.00  0.00    +0.000 A 
ATOM     15  C   UNL     1      48.098   2.750  15.899  0.00  0.00    +0.000 A 
ATOM     16  C   UNL     1      48.940   2.400  16.948  0.00  0.00    +0.000 A 
ATOM     17  C   UNL     1      49.294   3.353  17.904  0.00  0.00    +0.000 A 
ATOM     18  C   UNL     1      48.807   4.670  17.847  0.00  0.00    +0.000 A 
ATOM     19  C   UNL     1      47.982   5.011  16.759  0.00  0.00    +0.000 A 
BRANCH  18  20
ATOM     20  C   UNL     1      49.177   5.744  18.871  0.00  0.00    +0.000 C 
ATOM     21  C   UNL     1      49.788   5.234  20.191  0.00  0.00    +0.000 C 
ATOM     22  C   UNL     1      48.738   4.618  21.122  0.00  0.00    +0.000 C 
ATOM     23  N   UNL     1      47.638   5.537  21.409  0.00  0.00    +0.000 NA
ATOM     24  C   UNL     1      47.005   6.018  20.180  0.00  0.00    +0.000 C 
ATOM     25  C   UNL     1      48.004   6.681  19.233  0.00  0.00    +0.000 C 
ATOM     26  H   UNL     1      47.995   6.332  21.937  0.00  0.00    +0.000 HD
ENDBRANCH  18  20
ENDBRANCH   2  14
TORSDOF 4
ENDMDL
MODEL 2
REMARK VINA RESULT:    -6.611      1.837      2.141
REMARK INTER + INTRA:          -8.709
REMARK INTER:                  -8.152
REMARK INTRA:                  -0.557
REMARK UNBOUND:                -0.551
REMARK  Name = 
REMARK  4 active torsions:
REMARK  status: ('A' for Active; 'I' for Inactive)
REMARK    1  A    between atoms: C_2  and  C_4
REMARK    2  A    between atoms: C_8  and  C_9
REMARK    3  A    between atoms: C_10  and  C_11
REMARK    4  A    between atoms: C_15  and  C_16
REMARK                            x       y       z     vdW  Elec       q    Type
REMARK                         _______ _______ _______ _____ _____    ______ ____
ROOT
ATOM      1  C   UNL     1      46.889   4.692  14.250  0.00  0.00    +0.000 C 
ATOM      2  C   UNL     1      47.391   4.601  15.335  0.00  0.00    +0.000 C 
ENDROOT
BRANCH   1   7
ATOM      3  C   UNL     1      44.779   3.891  11.285  0.00  0.00    +0.000 A 
ATOM      4  C   UNL     1      44.911   5.072  10.544  0.00  0.00    +0.000 A 
ATOM      5  C   UNL     1      45.697   6.118  11.030  0.00  0.00    +0.000 A 
ATOM      6  C   UNL     1      46.346   5.987  12.258  0.00  0.00    +0.000 A 
ATOM      7  C   UNL     1      46.211   4.811  12.999  0.00  0.00    +0.000 A 
ATOM      8  C   UNL     1      45.426   3.764  12.520  0.00  0.00    +0.000 A 
BRANCH   3  10
ATOM      9  N   UNL     1      44.375   2.071   9.721  0.00  0.00    +0.000 N 
ATOM     10  C   UNL     1      43.935   2.764  10.813  0.00  0.00    +0.000 C 
ATOM     11  O   UNL     1      42.906   2.443  11.394  0.00  0.00    +0.000 OA
ATOM     12  H   UNL     1      43.843   1.247   9.472  0.00  0.00    +0.000 HD
ATOM     13  H   UNL     1      45.325   2.136   9.386  0.00  0.00    +0.000 HD
ENDBRANCH   3  10
ENDBRANCH   1   7
BRANCH   2  14
ATOM     14  C   UNL     1      47.900   4.511  16.665  0.00  0.00    +0.000 A 
ATOM     15  C   UNL     1      47.860   3.286  17.324  0.00  0.00    +0.000 A 
ATOM     16  C   UNL     1      48.346   3.186  18.621  0.00  0.00    +0.000 A 
ATOM     17  C   UNL     1      48.861   4.315  19.260  0.00  0.00    +0.000 A 
ATOM     18  C   UNL     1      48.889   5.571  18.630  0.00  0.00    +0.000 A 
ATOM     19  C   UNL     1      48.421   5.642  17.304  0.00  0.00    +0.000 A 
BRANCH  18  20
ATOM     20  C   UNL     1      49.450   6.829  19.293  0.00  0.00    +0.000 C 
ATOM     21  C   UNL     1      49.336   6.887  20.830  0.00  0.00    +0.000 C 
ATOM     22  C   UNL     1      47.911   7.198  21.299  0.00  0.00    +0.000 C 
ATOM     23  N   UNL     1      47.389   8.434  20.717  0.00  0.00    +0.000 NA
ATOM     24  C   UNL     1      47.445   8.405  19.254  0.00  0.00    +0.000 C 
ATOM     25  C   UNL     1      48.857   8.139  18.733  0.00  0.00    +0.000 C 
ATOM     26  H   UNL     1      47.935   9.222  21.059  0.00  0.00    +0.000 HD
ENDBRANCH  18  20
ENDBRANCH   2  14
TORSDOF 4
ENDMDL
MODEL 3
REMARK VINA RESULT:    -6.593      2.039      2.858
REMARK INTER + INTRA:          -8.686
REMARK INTER:                  -8.111
REMARK INTRA:                  -0.576
REMARK UNBOUND:                -0.551
REMARK  Name = 
REMARK  4 active torsions:
REMARK  status: ('A' for Active; 'I' for Inactive)
REMARK    1  A    between atoms: C_2  and  C_4
REMARK    2  A    between atoms: C_8  and  C_9
REMARK    3  A    between atoms: C_10  and  C_11
REMARK    4  A    between atoms: C_15  and  C_16
REMARK                            x       y       z     vdW  Elec       q    Type
REMARK                         _______ _______ _______ _____ _____    ______ ____
ROOT
ATOM      1  C   UNL     1      46.359   5.754  13.356  0.00  0.00    +0.000 C 
ATOM      2  C   UNL     1      47.258   5.991  14.112  0.00  0.00    +0.000 C 
ENDROOT
BRANCH   1   7
ATOM      3  C   UNL     1      44.637   4.715  10.219  0.00  0.00    +0.000 A 
ATOM      4  C   UNL     1      43.301   4.720  10.641  0.00  0.00    +0.000 A 
ATOM      5  C   UNL     1      42.984   5.069  11.954  0.00  0.00    +0.000 A 
ATOM      6  C   UNL     1      44.000   5.406  12.848  0.00  0.00    +0.000 A 
ATOM      7  C   UNL     1      45.333   5.398  12.429  0.00  0.00    +0.000 A 
ATOM      8  C   UNL     1      45.655   5.048  11.119  0.00  0.00    +0.000 A 
BRANCH   3  10
ATOM      9  N   UNL     1      44.310   3.313   8.257  0.00  0.00    +0.000 N 
ATOM     10  C   UNL     1      45.017   4.329   8.837  0.00  0.00    +0.000 C 
ATOM     11  O   UNL     1      45.902   4.913   8.225  0.00  0.00    +0.000 OA
ATOM     12  H   UNL     1      44.513   3.128   7.283  0.00  0.00    +0.000 HD
ATOM     13  H   UNL     1      43.424   2.995   8.621  0.00  0.00    +0.000 HD
ENDBRANCH   3  10
ENDBRANCH   1   7
BRANCH   2  14
ATOM     14  C   UNL     1      48.368   6.187  14.986  0.00  0.00    +0.000 A 
ATOM     15  C   UNL     1      49.324   7.145  14.662  0.00  0.00    +0.000 A 
ATOM     16  C   UNL     1      50.414   7.340  15.501  0.00  0.00    +0.000 A 
ATOM     17  C   UNL     1      50.550   6.570  16.657  0.00  0.00    +0.000 A 
ATOM     18  C   UNL     1      49.615   5.578  16.996  0.00  0.00    +0.000 A 
ATOM     19  C   UNL     1      48.502   5.418  16.149  0.00  0.00    +0.000 A 
BRANCH  18  20
ATOM     20  C   UNL     1      49.725   4.718  18.256  0.00  0.00    +0.000 C 
ATOM     21  C   UNL     1      51.153   4.488  18.791  0.00  0.00    +0.000 C 
ATOM     22  C   UNL     1      51.935   3.472  17.952  0.00  0.00    +0.000 C 
ATOM     23  N   UNL     1      51.239   2.191  17.834  0.00  0.00    +0.000 NA
ATOM     24  C   UNL     1      49.889   2.361  17.293  0.00  0.00    +0.000 C 
ATOM     25  C   UNL     1      49.051   3.336  18.120  0.00  0.00    +0.000 C 
ATOM     26  H   UNL     1      51.181   1.755  18.753  0.00  0.00    +0.000 HD
ENDBRANCH  18  20
ENDBRANCH   2  14
TORSDOF 4
ENDMDL
MODEL 4
REMARK VINA RESULT:    -6.235      3.094      8.913
REMARK INTER + INTRA:          -8.244
REMARK INTER:                  -7.725
REMARK INTRA:                  -0.519
REMARK UNBOUND:                -0.551
REMARK  Name = 
REMARK  4 active torsions:
REMARK  status: ('A' for Active; 'I' for Inactive)
REMARK    1  A    between atoms: C_2  and  C_4
REMARK    2  A    between atoms: C_8  and  C_9
REMARK    3  A    between atoms: C_10  and  C_11
REMARK    4  A    between atoms: C_15  and  C_16
REMARK                            x       y       z     vdW  Elec       q    Type
REMARK                         _______ _______ _______ _____ _____    ______ ____
ROOT
ATOM      1  C   UNL     1      48.045   5.427  16.002  0.00  0.00    +0.000 C 
ATOM      2  C   UNL     1      47.651   5.658  14.895  0.00  0.00    +0.000 C 
ENDROOT
BRANCH   1   7
ATOM      3  C   UNL     1      48.195   5.445  19.726  0.00  0.00    +0.000 A 
ATOM      4  C   UNL     1      49.218   4.514  19.950  0.00  0.00    +0.000 A 
ATOM      5  C   UNL     1      49.848   3.894  18.871  0.00  0.00    +0.000 A 
ATOM      6  C   UNL     1      49.453   4.197  17.568  0.00  0.00    +0.000 A 
ATOM      7  C   UNL     1      48.430   5.122  17.343  0.00  0.00    +0.000 A 
ATOM      8  C   UNL     1      47.796   5.743  18.418  0.00  0.00    +0.000 A 
BRANCH   3  10
ATOM      9  N   UNL     1      46.979   5.305  21.829  0.00  0.00    +0.000 N 
ATOM     10  C   UNL     1      47.485   6.110  20.848  0.00  0.00    +0.000 C 
ATOM     11  O   UNL     1      47.383   7.328  20.913  0.00  0.00    +0.000 OA
ATOM     12  H   UNL     1      46.586   5.776  22.634  0.00  0.00    +0.000 HD
ATOM     13  H   UNL     1      47.267   4.344  21.942  0.00  0.00    +0.000 HD
ENDBRANCH   3  10
ENDBRANCH   1   7
BRANCH   2  14
ATOM     14  C   UNL     1      47.096   5.897  13.602  0.00  0.00    +0.000 A 
ATOM     15  C   UNL     1      47.872   6.533  12.638  0.00  0.00    +0.000 A 
ATOM     16  C   UNL     1      47.340   6.779  11.379  0.00  0.00    +0.000 A 
ATOM     17  C   UNL     1      46.030   6.396  11.089  0.00  0.00    +0.000 A 
ATOM     18  C   UNL     1      45.214   5.776  12.051  0.00  0.00    +0.000 A 
ATOM     19  C   UNL     1      45.783   5.509  13.310  0.00  0.00    +0.000 A 
BRANCH  18  20
ATOM     20  C   UNL     1      43.776   5.337  11.771  0.00  0.00    +0.000 C 
ATOM     21  C   UNL     1      43.177   4.321  12.766  0.00  0.00    +0.000 C 
ATOM     22  C   UNL     1      43.719   2.904  12.553  0.00  0.00    +0.000 C 
ATOM     23  N   UNL     1      43.522   2.431  11.183  0.00  0.00    +0.000 NA
ATOM     24  C   UNL     1      44.109   3.350  10.206  0.00  0.00    +0.000 C 
ATOM     25  C   UNL     1      43.569   4.772  10.349  0.00  0.00    +0.000 C 
ATOM     26  H   UNL     1      42.523   2.340  11.001  0.00  0.00    +0.000 HD
ENDBRANCH  18  20
ENDBRANCH   2  14
TORSDOF 4
ENDMDL
MODEL 5
REMARK VINA RESULT:    -6.160      2.462      3.059
REMARK INTER + INTRA:          -8.152
REMARK INTER:                  -7.636
REMARK INTRA:                  -0.516
REMARK UNBOUND:                -0.551
REMARK  Name = 
REMARK  4 active torsions:
REMARK  status: ('A' for Active; 'I' for Inactive)
REMARK    1  A    between atoms: C_2  and  C_4
REMARK    2  A    between atoms: C_8  and  C_9
REMARK    3  A    between atoms: C_10  and  C_11
REMARK    4  A    between atoms: C_15  and  C_16
REMARK                            x       y       z     vdW  Elec       q    Type
REMARK                         _______ _______ _______ _____ _____    ______ ____
ROOT
ATOM      1  C   UNL     1      45.910   4.489  13.884  0.00  0.00    +0.000 C 
ATOM      2  C   UNL     1      46.697   4.396  14.783  0.00  0.00    +0.000 C 
ENDROOT
BRANCH   1   7
ATOM      3  C   UNL     1      44.288   4.034  10.559  0.00  0.00    +0.000 A 
ATOM      4  C   UNL     1      43.303   5.028  10.612  0.00  0.00    +0.000 A 
ATOM      5  C   UNL     1      43.187   5.838  11.742  0.00  0.00    +0.000 A 
ATOM      6  C   UNL     1      44.049   5.653  12.822  0.00  0.00    +0.000 A 
ATOM      7  C   UNL     1      45.030   4.659  12.772  0.00  0.00    +0.000 A 
ATOM      8  C   UNL     1      45.149   3.845  11.647  0.00  0.00    +0.000 A 
BRANCH   3  10
ATOM      9  N   UNL     1      44.526   3.729   8.157  0.00  0.00    +0.000 N 
ATOM     10  C   UNL     1      44.430   3.137   9.385  0.00  0.00    +0.000 C 
ATOM     11  O   UNL     1      44.493   1.920   9.508  0.00  0.00    +0.000 OA
ATOM     12  H   UNL     1      44.722   3.112   7.379  0.00  0.00    +0.000 HD
ATOM     13  H   UNL     1      44.740   4.709   8.045  0.00  0.00    +0.000 HD
ENDBRANCH   3  10
ENDBRANCH   1   7
BRANCH   2  14
ATOM     14  C   UNL     1      47.692   4.344  15.804  0.00  0.00    +0.000 A 
ATOM     15  C   UNL     1      47.898   3.151  16.490  0.00  0.00    +0.000 A 
ATOM     16  C   UNL     1      48.858   3.090  17.491  0.00  0.00    +0.000 A 
ATOM     17  C   UNL     1      49.605   4.225  17.811  0.00  0.00    +0.000 A 
ATOM     18  C   UNL     1      49.401   5.450  17.153  0.00  0.00    +0.000 A 
ATOM     19  C   UNL     1      48.445   5.481  16.121  0.00  0.00    +0.000 A 
BRANCH  18  20
ATOM     20  C   UNL     1      50.202   6.714  17.470  0.00  0.00    +0.000 C 
ATOM     21  C   UNL     1      50.139   7.833  16.411  0.00  0.00    +0.000 C 
ATOM     22  C   UNL     1      50.996   7.522  15.179  0.00  0.00    +0.000 C 
ATOM     23  N   UNL     1      52.390   7.244  15.525  0.00  0.00    +0.000 NA
ATOM     24  C   UNL     1      52.496   6.160  16.503  0.00  0.00    +0.000 C 
ATOM     25  C   UNL     1      51.691   6.441  17.771  0.00  0.00    +0.000 C 
ATOM     26  H   UNL     1      52.814   8.087  15.910  0.00  0.00    +0.000 HD
ENDBRANCH  18  20
ENDBRANCH   2  14
TORSDOF 4
ENDMDL
MODEL 6
REMARK VINA RESULT:    -6.020      4.058      5.722
REMARK INTER + INTRA:          -7.978
REMARK INTER:                  -7.434
REMARK INTRA:                  -0.545
REMARK UNBOUND:                -0.551
REMARK  Name = 
REMARK  4 active torsions:
REMARK  status: ('A' for Active; 'I' for Inactive)
REMARK    1  A    between atoms: C_2  and  C_4
REMARK    2  A    between atoms: C_8  and  C_9
REMARK    3  A    between atoms: C_10  and  C_11
REMARK    4  A    between atoms: C_15  and  C_16
REMARK                            x       y       z     vdW  Elec       q    Type
REMARK                         _______ _______ _______ _____ _____    ______ ____
ROOT
ATOM      1  C   UNL     1      45.649   5.150  10.025  0.00  0.00    +0.000 C 
ATOM      2  C   UNL     1      45.753   6.166  10.651  0.00  0.00    +0.000 C 
ENDROOT
BRANCH   1   7
ATOM      3  C   UNL     1      46.340   2.498   7.500  0.00  0.00    +0.000 A 
ATOM      4  C   UNL     1      45.481   1.484   7.945  0.00  0.00    +0.000 A 
ATOM      5  C   UNL     1      44.682   1.689   9.070  0.00  0.00    +0.000 A 
ATOM      6  C   UNL     1      44.745   2.902   9.756  0.00  0.00    +0.000 A 
ATOM      7  C   UNL     1      45.604   3.912   9.315  0.00  0.00    +0.000 A 
ATOM      8  C   UNL     1      46.406   3.712   8.193  0.00  0.00    +0.000 A 
BRANCH   3  10
ATOM      9  N   UNL     1      47.131   3.240   5.322  0.00  0.00    +0.000 N 
ATOM     10  C   UNL     1      47.222   2.311   6.320  0.00  0.00    +0.000 C 
ATOM     11  O   UNL     1      48.021   1.386   6.253  0.00  0.00    +0.000 OA
ATOM     12  H   UNL     1      47.806   3.156   4.572  0.00  0.00    +0.000 HD
ATOM     13  H   UNL     1      46.688   4.137   5.456  0.00  0.00    +0.000 HD
ENDBRANCH   3  10
ENDBRANCH   1   7
BRANCH   2  14
ATOM     14  C   UNL     1      45.957   7.339  11.438  0.00  0.00    +0.000 A 
ATOM     15  C   UNL     1      44.905   8.235  11.605  0.00  0.00    +0.000 A 
ATOM     16  C   UNL     1      45.093   9.384  12.362  0.00  0.00    +0.000 A 
ATOM     17  C   UNL     1      46.337   9.639  12.943  0.00  0.00    +0.000 A 
ATOM     18  C   UNL     1      47.424   8.767  12.769  0.00  0.00    +0.000 A 
ATOM     19  C   UNL     1      47.202   7.593  12.025  0.00  0.00    +0.000 A 
BRANCH  18  20
ATOM     20  C   UNL     1      48.799   9.008  13.394  0.00  0.00    +0.000 C 
ATOM     21  C   UNL     1      49.615   7.745  13.735  0.00  0.00    +0.000 C 
ATOM     22  C   UNL     1      49.098   7.037  14.992  0.00  0.00    +0.000 C 
ATOM     23  N   UNL     1      49.051   7.925  16.153  0.00  0.00    +0.000 NA
ATOM     24  C   UNL     1      48.254   9.122  15.883  0.00  0.00    +0.000 C 
ATOM     25  C   UNL     1      48.755   9.890  14.660  0.00  0.00    +0.000 C 
ATOM     26  H   UNL     1      50.000   8.201  16.402  0.00  0.00    +0.000 HD
ENDBRANCH  18  20
ENDBRANCH   2  14
TORSDOF 4
ENDMDL
MODEL 7
REMARK VINA RESULT:    -5.990      6.321      8.444
REMARK INTER + INTRA:          -7.942
REMARK INTER:                  -7.377
REMARK INTRA:                  -0.565
REMARK UNBOUND:                -0.551
REMARK  Name = 
REMARK  4 active torsions:
REMARK  status: ('A' for Active; 'I' for Inactive)
REMARK    1  A    between atoms: C_2  and  C_4
REMARK    2  A    between atoms: C_8  and  C_9
REMARK    3  A    between atoms: C_10  and  C_11
REMARK    4  A    between atoms: C_15  and  C_16
REMARK                            x       y       z     vdW  Elec       q    Type
REMARK                         _______ _______ _______ _____ _____    ______ ____
ROOT
ATOM      1  C   UNL     1      47.847   7.119  12.097  0.00  0.00    +0.000 C 
ATOM      2  C   UNL     1      48.775   7.807  11.778  0.00  0.00    +0.000 C 
ENDROOT
BRANCH   1   7
ATOM      3  C   UNL     1      44.539   5.406  12.007  0.00  0.00    +0.000 A 
ATOM      4  C   UNL     1      44.681   4.510  13.075  0.00  0.00    +0.000 A 
ATOM      5  C   UNL     1      45.864   4.484  13.813  0.00  0.00    +0.000 A 
ATOM      6  C   UNL     1      46.909   5.347  13.483  0.00  0.00    +0.000 A 
ATOM      7  C   UNL     1      46.770   6.238  12.416  0.00  0.00    +0.000 A 
ATOM      8  C   UNL     1      45.591   6.266  11.673  0.00  0.00    +0.000 A 
BRANCH   3  10
ATOM      9  N   UNL     1      42.227   6.101  11.710  0.00  0.00    +0.000 N 
ATOM     10  C   UNL     1      43.305   5.449  11.183  0.00  0.00    +0.000 C 
ATOM     11  O   UNL     1      43.260   4.953  10.064  0.00  0.00    +0.000 OA
ATOM     12  H   UNL     1      41.428   6.209  11.098  0.00  0.00    +0.000 HD
ATOM     13  H   UNL     1      42.307   6.734  12.493  0.00  0.00    +0.000 HD
ENDBRANCH   3  10
ENDBRANCH   1   7
BRANCH   2  14
ATOM     14  C   UNL     1      49.909   8.555  11.340  0.00  0.00    +0.000 A 
ATOM     15  C   UNL     1      49.860   9.945  11.377  0.00  0.00    +0.000 A 
ATOM     16  C   UNL     1      50.955  10.684  10.946  0.00  0.00    +0.000 A 
ATOM     17  C   UNL     1      52.092  10.030  10.470  0.00  0.00    +0.000 A 
ATOM     18  C   UNL     1      52.160   8.628  10.397  0.00  0.00    +0.000 A 
ATOM     19  C   UNL     1      51.053   7.899  10.868  0.00  0.00    +0.000 A 
BRANCH  18  20
ATOM     20  C   UNL     1      53.390   7.875   9.888  0.00  0.00    +0.000 C 
ATOM     21  C   UNL     1      54.321   8.666   8.947  0.00  0.00    +0.000 C 
ATOM     22  C   UNL     1      53.744   8.806   7.534  0.00  0.00    +0.000 C 
ATOM     23  N   UNL     1      53.415   7.513   6.935  0.00  0.00    +0.000 NA
ATOM     24  C   UNL     1      52.502   6.744   7.782  0.00  0.00    +0.000 C 
ATOM     25  C   UNL     1      53.051   6.539   9.193  0.00  0.00    +0.000 C 
ATOM     26  H   UNL     1      54.273   6.981   6.795  0.00  0.00    +0.000 HD
ENDBRANCH  18  20
ENDBRANCH   2  14
TORSDOF 4
ENDMDL
MODEL 8
REMARK VINA RESULT:    -5.874      5.860      7.258
REMARK INTER + INTRA:          -7.799
REMARK INTER:                  -7.302
REMARK INTRA:                  -0.497
REMARK UNBOUND:                -0.551
REMARK  Name = 
REMARK  4 active torsions:
REMARK  status: ('A' for Active; 'I' for Inactive)
REMARK    1  A    between atoms: C_2  and  C_4
REMARK    2  A    between atoms: C_8  and  C_9
REMARK    3  A    between atoms: C_10  and  C_11
REMARK    4  A    between atoms: C_15  and  C_16
REMARK                            x       y       z     vdW  Elec       q    Type
REMARK                         _______ _______ _______ _____ _____    ______ ____
ROOT
ATOM      1  C   UNL     1      47.168   6.679  11.941  0.00  0.00    +0.000 C 
ATOM      2  C   UNL     1      48.279   7.098  12.104  0.00  0.00    +0.000 C 
ENDROOT
BRANCH   1   7
ATOM      3  C   UNL     1      44.204   4.497  11.353  0.00  0.00    +0.000 A 
ATOM      4  C   UNL     1      43.197   5.460  11.208  0.00  0.00    +0.000 A 
ATOM      5  C   UNL     1      43.508   6.817  11.302  0.00  0.00    +0.000 A 
ATOM      6  C   UNL     1      44.822   7.213  11.549  0.00  0.00    +0.000 A 
ATOM      7  C   UNL     1      45.826   6.254  11.698  0.00  0.00    +0.000 A 
ATOM      8  C   UNL     1      45.521   4.897  11.607  0.00  0.00    +0.000 A 
BRANCH   3  10
ATOM      9  N   UNL     1      43.650   2.402  12.459  0.00  0.00    +0.000 N 
ATOM     10  C   UNL     1      43.911   3.044  11.281  0.00  0.00    +0.000 C 
ATOM     11  O   UNL     1      43.872   2.447  10.213  0.00  0.00    +0.000 OA
ATOM     12  H   UNL     1      43.355   1.437  12.385  0.00  0.00    +0.000 HD
ATOM     13  H   UNL     1      43.418   2.900  13.306  0.00  0.00    +0.000 HD
ENDBRANCH   3  10
ENDBRANCH   1   7
BRANCH   2  14
ATOM     14  C   UNL     1      49.578   7.671  12.240  0.00  0.00    +0.000 A 
ATOM     15  C   UNL     1      49.961   8.200  13.469  0.00  0.00    +0.000 A 
ATOM     16  C   UNL     1      51.220   8.768  13.611  0.00  0.00    +0.000 A 
ATOM     17  C   UNL     1      52.091   8.814  12.521  0.00  0.00    +0.000 A 
ATOM     18  C   UNL     1      51.722   8.312  11.262  0.00  0.00    +0.000 A 
ATOM     19  C   UNL     1      50.454   7.713  11.148  0.00  0.00    +0.000 A 
BRANCH  18  20
ATOM     20  C   UNL     1      52.649   8.338  10.046  0.00  0.00    +0.000 C 
ATOM     21  C   UNL     1      52.632   7.077   9.159  0.00  0.00    +0.000 C 
ATOM     22  C   UNL     1      53.392   5.907   9.793  0.00  0.00    +0.000 C 
ATOM     23  N   UNL     1      54.772   6.255  10.132  0.00  0.00    +0.000 NA
ATOM     24  C   UNL     1      54.831   7.429  11.005  0.00  0.00    +0.000 C 
ATOM     25  C   UNL     1      54.121   8.639  10.399  0.00  0.00    +0.000 C 
ATOM     26  H   UNL     1      55.289   6.446   9.275  0.00  0.00    +0.000 HD
ENDBRANCH  18  20
ENDBRANCH   2  14
TORSDOF 4
ENDMDL
MODEL 9
REMARK VINA RESULT:    -5.720      5.732      6.989
REMARK INTER + INTRA:          -7.609
REMARK INTER:                  -7.030
REMARK INTRA:                  -0.579
REMARK UNBOUND:                -0.551
REMARK  Name = 
REMARK  4 active torsions:
REMARK  status: ('A' for Active; 'I' for Inactive)
REMARK    1  A    between atoms: C_2  and  C_4
REMARK    2  A    between atoms: C_8  and  C_9
REMARK    3  A    between atoms: C_10  and  C_11
REMARK    4  A    between atoms: C_15  and  C_16
REMARK                            x       y       z     vdW  Elec       q    Type
REMARK                         _______ _______ _______ _____ _____    ______ ____
ROOT
ATOM      1  C   UNL     1      45.292   6.797  11.994  0.00  0.00    +0.000 C 
ATOM      2  C   UNL     1      45.815   7.871  12.086  0.00  0.00    +0.000 C 
ENDROOT
BRANCH   1   7
ATOM      3  C   UNL     1      44.305   3.550  10.453  0.00  0.00    +0.000 A 
ATOM      4  C   UNL     1      43.613   2.957  11.517  0.00  0.00    +0.000 A 
ATOM      5  C   UNL     1      43.477   3.636  12.728  0.00  0.00    +0.000 A 
ATOM      6  C   UNL     1      44.038   4.904  12.881  0.00  0.00    +0.000 A 
ATOM      7  C   UNL     1      44.732   5.495  11.822  0.00  0.00    +0.000 A 
ATOM      8  C   UNL     1      44.873   4.820  10.611  0.00  0.00    +0.000 A 
BRANCH   3  10
ATOM      9  N   UNL     1      44.362   3.602   8.022  0.00  0.00    +0.000 N 
ATOM     10  C   UNL     1      44.491   2.852   9.157  0.00  0.00    +0.000 C 
ATOM     11  O   UNL     1      44.779   1.663   9.100  0.00  0.00    +0.000 OA
ATOM     12  H   UNL     1      44.589   3.137   7.152  0.00  0.00    +0.000 HD
ATOM     13  H   UNL     1      44.387   4.611   8.035  0.00  0.00    +0.000 HD
ENDBRANCH   3  10
ENDBRANCH   1   7
BRANCH   2  14
ATOM     14  C   UNL     1      46.506   9.119  12.133  0.00  0.00    +0.000 A 
ATOM     15  C   UNL     1      45.828  10.282  11.781  0.00  0.00    +0.000 A 
ATOM     16  C   UNL     1      46.492  11.502  11.815  0.00  0.00    +0.000 A 
ATOM     17  C   UNL     1      47.835  11.554  12.193  0.00  0.00    +0.000 A 
ATOM     18  C   UNL     1      48.551  10.393  12.528  0.00  0.00    +0.000 A 
ATOM     19  C   UNL     1      47.851   9.172  12.517  0.00  0.00    +0.000 A 
BRANCH  18  20
ATOM     20  C   UNL     1      50.021  10.409  12.952  0.00  0.00    +0.000 C 
ATOM     21  C   UNL     1      50.874  11.560  12.381  0.00  0.00    +0.000 C 
ATOM     22  C   UNL     1      51.235  11.344  10.908  0.00  0.00    +0.000 C 
ATOM     23  N   UNL     1      51.910  10.066  10.680  0.00  0.00    +0.000 NA
ATOM     24  C   UNL     1      51.116   8.942  11.176  0.00  0.00    +0.000 C 
ATOM     25  C   UNL     1      50.763   9.088  12.656  0.00  0.00    +0.000 C 
ATOM     26  H   UNL     1      52.813  10.076  11.153  0.00  0.00    +0.000 HD
ENDBRANCH  18  20
ENDBRANCH   2  14
TORSDOF 4
ENDMDL
