MODEL 1
REMARK VINA RESULT:    -8.606      0.000      0.000
REMARK INTER + INTRA:         -13.526
REMARK INTER:                 -12.128
REMARK INTRA:                  -1.398
REMARK UNBOUND:                -1.398
REMARK  Name = 
REMARK  7 active torsions:
REMARK  status: ('A' for Active; 'I' for Inactive)
REMARK    1  A    between atoms: C_2  and  C_4
REMARK    2  A    between atoms: C_4  and  N_5
REMARK    3  A    between atoms: C_4  and  C_18
REMARK    4  A    between atoms: C_6  and  C_8
REMARK    5  A    between atoms: C_21  and  C_22
REMARK    6  A    between atoms: C_22  and  N_23
REMARK    7  A    between atoms: C_24  and  C_26
REMARK                            x       y       z     vdW  Elec       q    Type
REMARK                         _______ _______ _______ _____ _____    ______ ____
ROOT
ATOM      1  C   UNL     1      48.130   6.940  14.637  0.00  0.00    +0.000 C 
ENDROOT
BRANCH   1   2
ATOM      2  C   UNL     1      47.177   5.996  13.909  0.00  0.00    +0.000 A 
ATOM      3  C   UNL     1      46.225   6.508  13.009  0.00  0.00    +0.000 A 
ATOM      4  C   UNL     1      45.360   5.656  12.310  0.00  0.00    +0.000 A 
ATOM      5  C   UNL     1      45.420   4.270  12.496  0.00  0.00    +0.000 A 
ATOM      6  C   UNL     1      46.346   3.758  13.413  0.00  0.00    +0.000 A 
ATOM      7  C   UNL     1      47.198   4.610  14.124  0.00  0.00    +0.000 A 
BRANCH   5   8
ATOM      8  C   UNL     1      44.533   3.339  11.709  0.00  0.00    +0.000 C 
BRANCH   8   9
ATOM      9  N   UNL     1      45.219   2.824  10.545  0.00  0.00    +0.000 N 
ATOM     10  C   UNL     1      44.965   3.350   9.295  0.00  0.00    +0.000 C 
ATOM     11  O   UNL     1      44.161   4.252   9.096  0.00  0.00    +0.000 OA
ATOM     12  H   UNL     1      46.056   2.278  10.692  0.00  0.00    +0.000 HD
BRANCH  10  13
ATOM     13  C   UNL     1      45.749   2.779   8.164  0.00  0.00    +0.000 A 
ATOM     14  C   UNL     1      46.069   3.546   7.036  0.00  0.00    +0.000 A 
ATOM     15  C   UNL     1      46.835   2.989   6.008  0.00  0.00    +0.000 A 
ATOM     16  C   UNL     1      47.286   1.673   6.105  0.00  0.00    +0.000 A 
ATOM     17  C   UNL     1      46.979   0.909   7.231  0.00  0.00    +0.000 A 
ATOM     18  C   UNL     1      46.217   1.463   8.263  0.00  0.00    +0.000 A 
ENDBRANCH  10  13
ENDBRANCH   8   9
ENDBRANCH   5   8
ENDBRANCH   1   2
BRANCH   1  20
ATOM     19  N   UNL     1      50.002   7.356  13.040  0.00  0.00    +0.000 N 
ATOM     20  C   UNL     1      48.931   7.880  13.699  0.00  0.00    +0.000 C 
ATOM     21  O   UNL     1      48.633   9.065  13.533  0.00  0.00    +0.000 OA
ATOM     22  H   UNL     1      50.528   7.975  12.438  0.00  0.00    +0.000 HD
ATOM     23  H   UNL     1      50.281   6.387  13.114  0.00  0.00    +0.000 HD
ENDBRANCH   1  20
BRANCH   1  24
ATOM     24  N   UNL     1      49.134   6.203  15.387  0.00  0.00    +0.000 N 
ATOM     25  C   UNL     1      49.075   6.062  16.747  0.00  0.00    +0.000 C 
ATOM     26  O   UNL     1      48.124   6.458  17.411  0.00  0.00    +0.000 OA
ATOM     27  H   UNL     1      50.028   6.091  14.919  0.00  0.00    +0.000 HD
BRANCH  25  28
ATOM     28  C   UNL     1      50.210   5.357  17.343  0.00  0.00    +0.000 A 
ATOM     29  C   UNL     1      51.327   5.984  17.875  0.00  0.00    +0.000 A 
ATOM     30  S   UNL     1      52.578   4.891  18.287  0.00  0.00    +0.000 S 
ATOM     31  C   UNL     1      51.651   3.555  17.780  0.00  0.00    +0.000 A 
ATOM     32  N   UNL     1      52.163   2.295  17.788  0.00  0.00    +0.000 NA
ATOM     33  C   UNL     1      51.349   1.394  17.350  0.00  0.00    +0.000 A 
ATOM     34  N   UNL     1      50.055   1.630  16.947  0.00  0.00    +0.000 N 
ATOM     35  C   UNL     1      49.456   2.865  17.055  0.00  0.00    +0.000 A 
ATOM     36  O   UNL     1      48.241   2.986  16.960  0.00  0.00    +0.000 OA
ATOM     37  C   UNL     1      50.381   3.931  17.390  0.00  0.00    +0.000 A 
ATOM     38  H   UNL     1      49.440   0.866  16.720  0.00  0.00    +0.000 HD
ENDBRANCH  25  28
ENDBRANCH   1  24
TORSDOF 7
ENDMDL
MODEL 2
REMARK VINA RESULT:    -8.307      2.878      3.938
REMARK INTER + INTRA:         -13.105
REMARK INTER:                 -11.542
REMARK INTRA:                  -1.563
REMARK UNBOUND:                -1.398
REMARK  Name = 
REMARK  7 active torsions:
REMARK  status: ('A' for Active; 'I' for Inactive)
REMARK    1  A    between atoms: C_2  and  C_4
REMARK    2  A    between atoms: C_4  and  N_5
REMARK    3  A    between atoms: C_4  and  C_18
REMARK    4  A    between atoms: C_6  and  C_8
REMARK    5  A    between atoms: C_21  and  C_22
REMARK    6  A    between atoms: C_22  and  N_23
REMARK    7  A    between atoms: C_24  and  C_26
REMARK                            x       y       z     vdW  Elec       q    Type
REMARK                         _______ _______ _______ _____ _____    ______ ____
ROOT
ATOM      1  C   UNL     1      48.073   4.788  15.584  0.00  0.00    +0.000 C 
ENDROOT
BRANCH   1   2
ATOM      2  C   UNL     1      47.202   4.951  14.341  0.00  0.00    +0.000 A 
ATOM      3  C   UNL     1      47.316   6.104  13.544  0.00  0.00    +0.000 A 
ATOM      4  C   UNL     1      46.545   6.260  12.384  0.00  0.00    +0.000 A 
ATOM      5  C   UNL     1      45.635   5.270  11.995  0.00  0.00    +0.000 A 
ATOM      6  C   UNL     1      45.496   4.135  12.801  0.00  0.00    +0.000 A 
ATOM      7  C   UNL     1      46.253   3.987  13.969  0.00  0.00    +0.000 A 
BRANCH   5   8
ATOM      8  C   UNL     1      44.840   5.401  10.720  0.00  0.00    +0.000 C 
BRANCH   8   9
ATOM      9  N   UNL     1      45.510   4.747   9.617  0.00  0.00    +0.000 N 
ATOM     10  C   UNL     1      45.167   3.461   9.256  0.00  0.00    +0.000 C 
ATOM     11  O   UNL     1      44.308   2.806   9.834  0.00  0.00    +0.000 OA
ATOM     12  H   UNL     1      46.023   5.325   8.966  0.00  0.00    +0.000 HD
BRANCH  10  13
ATOM     13  C   UNL     1      45.886   2.888   8.084  0.00  0.00    +0.000 A 
ATOM     14  C   UNL     1      46.210   3.674   6.969  0.00  0.00    +0.000 A 
ATOM     15  C   UNL     1      46.914   3.113   5.901  0.00  0.00    +0.000 A 
ATOM     16  C   UNL     1      47.300   1.774   5.943  0.00  0.00    +0.000 A 
ATOM     17  C   UNL     1      46.990   0.990   7.055  0.00  0.00    +0.000 A 
ATOM     18  C   UNL     1      46.290   1.548   8.127  0.00  0.00    +0.000 A 
ENDBRANCH  10  13
ENDBRANCH   8   9
ENDBRANCH   5   8
ENDBRANCH   1   2
BRANCH   1  20
ATOM     19  N   UNL     1      47.010   3.270  17.256  0.00  0.00    +0.000 N 
ATOM     20  C   UNL     1      47.943   3.404  16.272  0.00  0.00    +0.000 C 
ATOM     21  O   UNL     1      48.644   2.439  15.960  0.00  0.00    +0.000 OA
ATOM     22  H   UNL     1      46.936   2.369  17.709  0.00  0.00    +0.000 HD
ATOM     23  H   UNL     1      46.388   4.016  17.538  0.00  0.00    +0.000 HD
ENDBRANCH   1  20
BRANCH   1  24
ATOM     24  N   UNL     1      47.720   5.758  16.608  0.00  0.00    +0.000 N 
ATOM     25  C   UNL     1      48.617   6.674  17.089  0.00  0.00    +0.000 C 
ATOM     26  O   UNL     1      49.741   6.805  16.621  0.00  0.00    +0.000 OA
ATOM     27  H   UNL     1      46.913   5.515  17.174  0.00  0.00    +0.000 HD
BRANCH  25  28
ATOM     28  C   UNL     1      48.112   7.518  18.172  0.00  0.00    +0.000 A 
ATOM     29  C   UNL     1      47.767   8.854  18.024  0.00  0.00    +0.000 A 
ATOM     30  S   UNL     1      47.430   9.628  19.512  0.00  0.00    +0.000 S 
ATOM     31  C   UNL     1      47.720   8.195  20.386  0.00  0.00    +0.000 A 
ATOM     32  N   UNL     1      47.679   8.174  21.745  0.00  0.00    +0.000 NA
ATOM     33  C   UNL     1      47.946   7.022  22.262  0.00  0.00    +0.000 A 
ATOM     34  N   UNL     1      48.206   5.878  21.544  0.00  0.00    +0.000 N 
ATOM     35  C   UNL     1      48.119   5.826  20.171  0.00  0.00    +0.000 A 
ATOM     36  O   UNL     1      48.075   4.753  19.582  0.00  0.00    +0.000 OA
ATOM     37  C   UNL     1      47.980   7.129  19.549  0.00  0.00    +0.000 A 
ATOM     38  H   UNL     1      48.299   4.990  22.008  0.00  0.00    +0.000 HD
ENDBRANCH  25  28
ENDBRANCH   1  24
TORSDOF 7
ENDMDL
MODEL 3
REMARK VINA RESULT:    -8.010      2.479      4.552
REMARK INTER + INTRA:         -12.686
REMARK INTER:                 -11.511
REMARK INTRA:                  -1.175
REMARK UNBOUND:                -1.398
REMARK  Name = 
REMARK  7 active torsions:
REMARK  status: ('A' for Active; 'I' for Inactive)
REMARK    1  A    between atoms: C_2  and  C_4
REMARK    2  A    between atoms: C_4  and  N_5
REMARK    3  A    between atoms: C_4  and  C_18
REMARK    4  A    between atoms: C_6  and  C_8
REMARK    5  A    between atoms: C_21  and  C_22
REMARK    6  A    between atoms: C_22  and  N_23
REMARK    7  A    between atoms: C_24  and  C_26
REMARK                            x       y       z     vdW  Elec       q    Type
REMARK                         _______ _______ _______ _____ _____    ______ ____
ROOT
ATOM      1  C   UNL     1      47.731   4.726  15.764  0.00  0.00    +0.000 C 
ENDROOT
BRANCH   1   2
ATOM      2  C   UNL     1      46.855   4.593  14.521  0.00  0.00    +0.000 A 
ATOM      3  C   UNL     1      46.736   3.352  13.870  0.00  0.00    +0.000 A 
ATOM      4  C   UNL     1      45.915   3.203  12.744  0.00  0.00    +0.000 A 
ATOM      5  C   UNL     1      45.197   4.292  12.236  0.00  0.00    +0.000 A 
ATOM      6  C   UNL     1      45.337   5.536  12.863  0.00  0.00    +0.000 A 
ATOM      7  C   UNL     1      46.169   5.689  13.977  0.00  0.00    +0.000 A 
BRANCH   5   8
ATOM      8  C   UNL     1      44.269   4.132  11.059  0.00  0.00    +0.000 C 
BRANCH   8   9
ATOM      9  N   UNL     1      44.883   3.345  10.012  0.00  0.00    +0.000 N 
ATOM     10  C   UNL     1      45.416   3.959   8.898  0.00  0.00    +0.000 C 
ATOM     11  O   UNL     1      45.394   5.171   8.723  0.00  0.00    +0.000 OA
ATOM     12  H   UNL     1      45.151   2.395  10.230  0.00  0.00    +0.000 HD
BRANCH  10  13
ATOM     13  C   UNL     1      46.061   3.066   7.894  0.00  0.00    +0.000 A 
ATOM     14  C   UNL     1      46.499   3.555   6.656  0.00  0.00    +0.000 A 
ATOM     15  C   UNL     1      47.130   2.697   5.752  0.00  0.00    +0.000 A 
ATOM     16  C   UNL     1      47.330   1.357   6.080  0.00  0.00    +0.000 A 
ATOM     17  C   UNL     1      46.906   0.868   7.316  0.00  0.00    +0.000 A 
ATOM     18  C   UNL     1      46.277   1.723   8.225  0.00  0.00    +0.000 A 
ENDBRANCH  10  13
ENDBRANCH   8   9
ENDBRANCH   5   8
ENDBRANCH   1   2
BRANCH   1  20
ATOM     19  N   UNL     1      46.911   5.121  18.088  0.00  0.00    +0.000 N 
ATOM     20  C   UNL     1      47.059   4.227  17.070  0.00  0.00    +0.000 C 
ATOM     21  O   UNL     1      46.658   3.070  17.211  0.00  0.00    +0.000 OA
ATOM     22  H   UNL     1      46.482   4.788  18.942  0.00  0.00    +0.000 HD
ATOM     23  H   UNL     1      47.195   6.089  18.025  0.00  0.00    +0.000 HD
ENDBRANCH   1  20
BRANCH   1  24
ATOM     24  N   UNL     1      48.078   6.114  16.020  0.00  0.00    +0.000 N 
ATOM     25  C   UNL     1      49.358   6.507  16.309  0.00  0.00    +0.000 C 
ATOM     26  O   UNL     1      50.309   5.737  16.271  0.00  0.00    +0.000 OA
ATOM     27  H   UNL     1      47.306   6.709  16.302  0.00  0.00    +0.000 HD
BRANCH  25  28
ATOM     28  C   UNL     1      49.510   7.930  16.615  0.00  0.00    +0.000 A 
ATOM     29  C   UNL     1      49.580   8.448  17.900  0.00  0.00    +0.000 A 
ATOM     30  S   UNL     1      49.527  10.158  17.937  0.00  0.00    +0.000 S 
ATOM     31  C   UNL     1      49.426  10.247  16.239  0.00  0.00    +0.000 A 
ATOM     32  N   UNL     1      49.274  11.437  15.600  0.00  0.00    +0.000 NA
ATOM     33  C   UNL     1      49.186  11.338  14.316  0.00  0.00    +0.000 A 
ATOM     34  N   UNL     1      49.282  10.162  13.609  0.00  0.00    +0.000 N 
ATOM     35  C   UNL     1      49.575   8.956  14.206  0.00  0.00    +0.000 A 
ATOM     36  O   UNL     1      49.930   7.992  13.540  0.00  0.00    +0.000 OA
ATOM     37  C   UNL     1      49.522   8.999  15.655  0.00  0.00    +0.000 A 
ATOM     38  H   UNL     1      49.314  10.168  12.603  0.00  0.00    +0.000 HD
ENDBRANCH  25  28
ENDBRANCH   1  24
TORSDOF 7
ENDMDL
MODEL 4
REMARK VINA RESULT:    -7.990      1.961      2.172
REMARK INTER + INTRA:         -12.657
REMARK INTER:                 -11.379
REMARK INTRA:                  -1.278
REMARK UNBOUND:                -1.398
REMARK  Name = 
REMARK  7 active torsions:
REMARK  status: ('A' for Active; 'I' for Inactive)
REMARK    1  A    between atoms: C_2  and  C_4
REMARK    2  A    between atoms: C_4  and  N_5
REMARK    3  A    between atoms: C_4  and  C_18
REMARK    4  A    between atoms: C_6  and  C_8
REMARK    5  A    between atoms: C_21  and  C_22
REMARK    6  A    between atoms: C_22  and  N_23
REMARK    7  A    between atoms: C_24  and  C_26
REMARK                            x       y       z     vdW  Elec       q    Type
REMARK                         _______ _______ _______ _____ _____    ______ ____
ROOT
ATOM      1  C   UNL     1      47.790   7.446  14.250  0.00  0.00    +0.000 C 
ENDROOT
BRANCH   1   2
ATOM      2  C   UNL     1      46.896   6.383  13.616  0.00  0.00    +0.000 A 
ATOM      3  C   UNL     1      45.888   6.756  12.710  0.00  0.00    +0.000 A 
ATOM      4  C   UNL     1      45.075   5.794  12.096  0.00  0.00    +0.000 A 
ATOM      5  C   UNL     1      45.246   4.433  12.378  0.00  0.00    +0.000 A 
ATOM      6  C   UNL     1      46.228   4.059  13.302  0.00  0.00    +0.000 A 
ATOM      7  C   UNL     1      47.028   5.021  13.928  0.00  0.00    +0.000 A 
BRANCH   5   8
ATOM      8  C   UNL     1      44.415   3.384  11.683  0.00  0.00    +0.000 C 
BRANCH   8   9
ATOM      9  N   UNL     1      45.114   2.835  10.542  0.00  0.00    +0.000 N 
ATOM     10  C   UNL     1      44.915   3.361   9.282  0.00  0.00    +0.000 C 
ATOM     11  O   UNL     1      44.151   4.291   9.054  0.00  0.00    +0.000 OA
ATOM     12  H   UNL     1      45.926   2.261  10.716  0.00  0.00    +0.000 HD
BRANCH  10  13
ATOM     13  C   UNL     1      45.710   2.753   8.178  0.00  0.00    +0.000 A 
ATOM     14  C   UNL     1      46.057   3.489   7.037  0.00  0.00    +0.000 A 
ATOM     15  C   UNL     1      46.832   2.898   6.035  0.00  0.00    +0.000 A 
ATOM     16  C   UNL     1      47.264   1.579   6.170  0.00  0.00    +0.000 A 
ATOM     17  C   UNL     1      46.930   0.846   7.309  0.00  0.00    +0.000 A 
ATOM     18  C   UNL     1      46.159   1.434   8.315  0.00  0.00    +0.000 A 
ENDBRANCH  10  13
ENDBRANCH   8   9
ENDBRANCH   5   8
ENDBRANCH   1   2
BRANCH   1  20
ATOM     19  N   UNL     1      49.946   7.260  13.007  0.00  0.00    +0.000 N 
ATOM     20  C   UNL     1      48.859   8.030  13.290  0.00  0.00    +0.000 C 
ATOM     21  O   UNL     1      48.755   9.149  12.783  0.00  0.00    +0.000 OA
ATOM     22  H   UNL     1      50.646   7.650  12.388  0.00  0.00    +0.000 HD
ATOM     23  H   UNL     1      50.076   6.325  13.370  0.00  0.00    +0.000 HD
ENDBRANCH   1  20
BRANCH   1  24
ATOM     24  N   UNL     1      48.541   6.904  15.372  0.00  0.00    +0.000 N 
ATOM     25  C   UNL     1      48.877   7.662  16.461  0.00  0.00    +0.000 C 
ATOM     26  O   UNL     1      48.484   8.813  16.611  0.00  0.00    +0.000 OA
ATOM     27  H   UNL     1      49.080   6.068  15.169  0.00  0.00    +0.000 HD
BRANCH  25  28
ATOM     28  C   UNL     1      49.700   6.976  17.457  0.00  0.00    +0.000 A 
ATOM     29  C   UNL     1      51.066   6.767  17.331  0.00  0.00    +0.000 A 
ATOM     30  S   UNL     1      51.702   5.741  18.545  0.00  0.00    +0.000 S 
ATOM     31  C   UNL     1      50.173   5.568  19.276  0.00  0.00    +0.000 A 
ATOM     32  N   UNL     1      49.988   4.744  20.342  0.00  0.00    +0.000 NA
ATOM     33  C   UNL     1      48.770   4.699  20.766  0.00  0.00    +0.000 A 
ATOM     34  N   UNL     1      47.728   5.436  20.252  0.00  0.00    +0.000 N 
ATOM     35  C   UNL     1      47.903   6.383  19.267  0.00  0.00    +0.000 A 
ATOM     36  O   UNL     1      47.033   7.212  19.029  0.00  0.00    +0.000 OA
ATOM     37  C   UNL     1      49.218   6.349  18.657  0.00  0.00    +0.000 A 
ATOM     38  H   UNL     1      46.827   5.435  20.700  0.00  0.00    +0.000 HD
ENDBRANCH  25  28
ENDBRANCH   1  24
TORSDOF 7
ENDMDL
MODEL 5
REMARK VINA RESULT:    -7.972      2.760      4.680
REMARK INTER + INTRA:         -12.632
REMARK INTER:                 -11.478
REMARK INTRA:                  -1.155
REMARK UNBOUND:                -1.398
REMARK  Name = 
REMARK  7 active torsions:
REMARK  status: ('A' for Active; 'I' for Inactive)
REMARK    1  A    between atoms: C_2  and  C_4
REMARK    2  A    between atoms: C_4  and  N_5
REMARK    3  A    between atoms: C_4  and  C_18
REMARK    4  A    between atoms: C_6  and  C_8
REMARK    5  A    between atoms: C_21  and  C_22
REMARK    6  A    between atoms: C_22  and  N_23
REMARK    7  A    between atoms: C_24  and  C_26
REMARK                            x       y       z     vdW  Elec       q    Type
REMARK                         _______ _______ _______ _____ _____    ______ ____
ROOT
ATOM      1  C   UNL     1      48.076   4.781  16.002  0.00  0.00    +0.000 C 
ENDROOT
BRANCH   1   2
ATOM      2  C   UNL     1      47.341   4.991  14.679  0.00  0.00    +0.000 A 
ATOM      3  C   UNL     1      46.600   3.941  14.109  0.00  0.00    +0.000 A 
ATOM      4  C   UNL     1      45.896   4.121  12.910  0.00  0.00    +0.000 A 
ATOM      5  C   UNL     1      45.921   5.355  12.249  0.00  0.00    +0.000 A 
ATOM      6  C   UNL     1      46.681   6.393  12.797  0.00  0.00    +0.000 A 
ATOM      7  C   UNL     1      47.398   6.208  13.985  0.00  0.00    +0.000 A 
BRANCH   5   8
ATOM      8  C   UNL     1      45.124   5.578  10.988  0.00  0.00    +0.000 C 
BRANCH   8   9
ATOM      9  N   UNL     1      45.702   4.864   9.871  0.00  0.00    +0.000 N 
ATOM     10  C   UNL     1      45.150   3.675   9.440  0.00  0.00    +0.000 C 
ATOM     11  O   UNL     1      44.171   3.159   9.966  0.00  0.00    +0.000 OA
ATOM     12  H   UNL     1      46.329   5.369   9.261  0.00  0.00    +0.000 HD
BRANCH  10  13
ATOM     13  C   UNL     1      45.794   3.036   8.259  0.00  0.00    +0.000 A 
ATOM     14  C   UNL     1      46.103   3.772   7.107  0.00  0.00    +0.000 A 
ATOM     15  C   UNL     1      46.737   3.147   6.030  0.00  0.00    +0.000 A 
ATOM     16  C   UNL     1      47.067   1.794   6.100  0.00  0.00    +0.000 A 
ATOM     17  C   UNL     1      46.771   1.059   7.249  0.00  0.00    +0.000 A 
ATOM     18  C   UNL     1      46.141   1.681   8.330  0.00  0.00    +0.000 A 
ENDBRANCH  10  13
ENDBRANCH   8   9
ENDBRANCH   5   8
ENDBRANCH   1   2
BRANCH   1  20
ATOM     19  N   UNL     1      48.526   2.460  16.801  0.00  0.00    +0.000 N 
ATOM     20  C   UNL     1      47.649   3.503  16.768  0.00  0.00    +0.000 C 
ATOM     21  O   UNL     1      46.562   3.403  17.340  0.00  0.00    +0.000 OA
ATOM     22  H   UNL     1      48.239   1.624  17.293  0.00  0.00    +0.000 HD
ATOM     23  H   UNL     1      49.442   2.490  16.374  0.00  0.00    +0.000 HD
ENDBRANCH   1  20
BRANCH   1  24
ATOM     24  N   UNL     1      47.829   5.879  16.923  0.00  0.00    +0.000 N 
ATOM     25  C   UNL     1      48.800   6.366  17.756  0.00  0.00    +0.000 C 
ATOM     26  O   UNL     1      49.962   5.982  17.712  0.00  0.00    +0.000 OA
ATOM     27  H   UNL     1      46.854   6.036  17.158  0.00  0.00    +0.000 HD
BRANCH  25  28
ATOM     28  C   UNL     1      48.354   7.418  18.671  0.00  0.00    +0.000 A 
ATOM     29  C   UNL     1      47.908   7.190  19.964  0.00  0.00    +0.000 A 
ATOM     30  S   UNL     1      47.243   8.585  20.700  0.00  0.00    +0.000 S 
ATOM     31  C   UNL     1      47.551   9.529  19.316  0.00  0.00    +0.000 A 
ATOM     32  N   UNL     1      47.153  10.827  19.241  0.00  0.00    +0.000 NA
ATOM     33  C   UNL     1      47.434  11.400  18.119  0.00  0.00    +0.000 A 
ATOM     34  N   UNL     1      48.117  10.808  17.082  0.00  0.00    +0.000 N 
ATOM     35  C   UNL     1      48.658   9.545  17.172  0.00  0.00    +0.000 A 
ATOM     36  O   UNL     1      49.488   9.155  16.361  0.00  0.00    +0.000 OA
ATOM     37  C   UNL     1      48.228   8.813  18.349  0.00  0.00    +0.000 A 
ATOM     38  H   UNL     1      48.399  11.345  16.278  0.00  0.00    +0.000 HD
ENDBRANCH  25  28
ENDBRANCH   1  24
TORSDOF 7
ENDMDL
MODEL 6
REMARK VINA RESULT:    -7.804      4.709      7.237
REMARK INTER + INTRA:         -12.395
REMARK INTER:                 -11.014
REMARK INTRA:                  -1.382
REMARK UNBOUND:                -1.398
REMARK  Name = 
REMARK  7 active torsions:
REMARK  status: ('A' for Active; 'I' for Inactive)
REMARK    1  A    between atoms: C_2  and  C_4
REMARK    2  A    between atoms: C_4  and  N_5
REMARK    3  A    between atoms: C_4  and  C_18
REMARK    4  A    between atoms: C_6  and  C_8
REMARK    5  A    between atoms: C_21  and  C_22
REMARK    6  A    between atoms: C_22  and  N_23
REMARK    7  A    between atoms: C_24  and  C_26
REMARK                            x       y       z     vdW  Elec       q    Type
REMARK                         _______ _______ _______ _____ _____    ______ ____
ROOT
ATOM      1  C   UNL     1      45.870   5.126  12.989  0.00  0.00    +0.000 C 
ENDROOT
BRANCH   1   2
ATOM      2  C   UNL     1      45.500   6.545  12.562  0.00  0.00    +0.000 A 
ATOM      3  C   UNL     1      44.598   6.751  11.504  0.00  0.00    +0.000 A 
ATOM      4  C   UNL     1      44.224   8.045  11.115  0.00  0.00    +0.000 A 
ATOM      5  C   UNL     1      44.748   9.165  11.771  0.00  0.00    +0.000 A 
ATOM      6  C   UNL     1      45.669   8.965  12.805  0.00  0.00    +0.000 A 
ATOM      7  C   UNL     1      46.056   7.674  13.182  0.00  0.00    +0.000 A 
BRANCH   5   8
ATOM      8  C   UNL     1      44.312  10.560  11.399  0.00  0.00    +0.000 C 
BRANCH   8   9
ATOM      9  N   UNL     1      43.032  10.882  11.991  0.00  0.00    +0.000 N 
ATOM     10  C   UNL     1      41.876  10.805  11.242  0.00  0.00    +0.000 C 
ATOM     11  O   UNL     1      41.861  10.479  10.061  0.00  0.00    +0.000 OA
ATOM     12  H   UNL     1      42.968  10.901  13.000  0.00  0.00    +0.000 HD
BRANCH  10  13
ATOM     13  C   UNL     1      40.605  11.120  11.951  0.00  0.00    +0.000 A 
ATOM     14  C   UNL     1      40.561  12.054  12.995  0.00  0.00    +0.000 A 
ATOM     15  C   UNL     1      39.345  12.349  13.616  0.00  0.00    +0.000 A 
ATOM     16  C   UNL     1      38.173  11.720  13.197  0.00  0.00    +0.000 A 
ATOM     17  C   UNL     1      38.209  10.798  12.151  0.00  0.00    +0.000 A 
ATOM     18  C   UNL     1      39.422  10.502  11.524  0.00  0.00    +0.000 A 
ENDBRANCH  10  13
ENDBRANCH   8   9
ENDBRANCH   5   8
ENDBRANCH   1   2
BRANCH   1  20
ATOM     19  N   UNL     1      44.747   2.948  12.520  0.00  0.00    +0.000 N 
ATOM     20  C   UNL     1      44.659   4.167  13.121  0.00  0.00    +0.000 C 
ATOM     21  O   UNL     1      43.638   4.468  13.743  0.00  0.00    +0.000 OA
ATOM     22  H   UNL     1      43.949   2.330  12.600  0.00  0.00    +0.000 HD
ATOM     23  H   UNL     1      45.566   2.632  12.018  0.00  0.00    +0.000 HD
ENDBRANCH   1  20
BRANCH   1  24
ATOM     24  N   UNL     1      46.508   5.116  14.296  0.00  0.00    +0.000 N 
ATOM     25  C   UNL     1      47.280   4.071  14.725  0.00  0.00    +0.000 C 
ATOM     26  O   UNL     1      47.568   3.123  14.004  0.00  0.00    +0.000 OA
ATOM     27  H   UNL     1      46.095   5.738  14.984  0.00  0.00    +0.000 HD
BRANCH  25  28
ATOM     28  C   UNL     1      47.778   4.196  16.095  0.00  0.00    +0.000 A 
ATOM     29  C   UNL     1      47.557   3.259  17.094  0.00  0.00    +0.000 A 
ATOM     30  S   UNL     1      48.066   3.793  18.639  0.00  0.00    +0.000 S 
ATOM     31  C   UNL     1      48.609   5.279  18.007  0.00  0.00    +0.000 A 
ATOM     32  N   UNL     1      49.098   6.256  18.816  0.00  0.00    +0.000 NA
ATOM     33  C   UNL     1      49.443   7.332  18.192  0.00  0.00    +0.000 A 
ATOM     34  N   UNL     1      49.385   7.505  16.828  0.00  0.00    +0.000 N 
ATOM     35  C   UNL     1      49.029   6.493  15.965  0.00  0.00    +0.000 A 
ATOM     36  O   UNL     1      49.255   6.581  14.764  0.00  0.00    +0.000 OA
ATOM     37  C   UNL     1      48.484   5.326  16.632  0.00  0.00    +0.000 A 
ATOM     38  H   UNL     1      49.772   8.328  16.398  0.00  0.00    +0.000 HD
ENDBRANCH  25  28
ENDBRANCH   1  24
TORSDOF 7
ENDMDL
MODEL 7
REMARK VINA RESULT:    -7.709      2.005      2.390
REMARK INTER + INTRA:         -12.261
REMARK INTER:                 -10.638
REMARK INTRA:                  -1.623
REMARK UNBOUND:                -1.398
REMARK  Name = 
REMARK  7 active torsions:
REMARK  status: ('A' for Active; 'I' for Inactive)
REMARK    1  A    between atoms: C_2  and  C_4
REMARK    2  A    between atoms: C_4  and  N_5
REMARK    3  A    between atoms: C_4  and  C_18
REMARK    4  A    between atoms: C_6  and  C_8
REMARK    5  A    between atoms: C_21  and  C_22
REMARK    6  A    between atoms: C_22  and  N_23
REMARK    7  A    between atoms: C_24  and  C_26
REMARK                            x       y       z     vdW  Elec       q    Type
REMARK                         _______ _______ _______ _____ _____    ______ ____
ROOT
ATOM      1  C   UNL     1      48.062   7.805  14.446  0.00  0.00    +0.000 C 
ENDROOT
BRANCH   1   2
ATOM      2  C   UNL     1      47.087   7.119  13.492  0.00  0.00    +0.000 A 
ATOM      3  C   UNL     1      46.366   7.878  12.553  0.00  0.00    +0.000 A 
ATOM      4  C   UNL     1      45.486   7.264  11.650  0.00  0.00    +0.000 A 
ATOM      5  C   UNL     1      45.302   5.877  11.667  0.00  0.00    +0.000 A 
ATOM      6  C   UNL     1      45.995   5.122  12.620  0.00  0.00    +0.000 A 
ATOM      7  C   UNL     1      46.859   5.736  13.533  0.00  0.00    +0.000 A 
BRANCH   5   8
ATOM      8  C   UNL     1      44.401   5.199  10.666  0.00  0.00    +0.000 C 
BRANCH   8   9
ATOM      9  N   UNL     1      45.169   4.582   9.606  0.00  0.00    +0.000 N 
ATOM     10  C   UNL     1      45.004   3.244   9.313  0.00  0.00    +0.000 C 
ATOM     11  O   UNL     1      44.228   2.514   9.917  0.00  0.00    +0.000 OA
ATOM     12  H   UNL     1      45.612   5.187   8.930  0.00  0.00    +0.000 HD
BRANCH  10  13
ATOM     13  C   UNL     1      45.811   2.710   8.180  0.00  0.00    +0.000 A 
ATOM     14  C   UNL     1      46.293   1.394   8.183  0.00  0.00    +0.000 A 
ATOM     15  C   UNL     1      47.019   0.916   7.089  0.00  0.00    +0.000 A 
ATOM     16  C   UNL     1      47.260   1.743   5.992  0.00  0.00    +0.000 A 
ATOM     17  C   UNL     1      46.773   3.050   5.980  0.00  0.00    +0.000 A 
ATOM     18  C   UNL     1      46.043   3.532   7.070  0.00  0.00    +0.000 A 
ENDBRANCH  10  13
ENDBRANCH   8   9
ENDBRANCH   5   8
ENDBRANCH   1   2
BRANCH   1  20
ATOM     19  N   UNL     1      50.194   7.321  13.241  0.00  0.00    +0.000 N 
ATOM     20  C   UNL     1      49.380   8.274  13.776  0.00  0.00    +0.000 C 
ATOM     21  O   UNL     1      49.707   9.461  13.711  0.00  0.00    +0.000 OA
ATOM     22  H   UNL     1      51.057   7.630  12.815  0.00  0.00    +0.000 HD
ATOM     23  H   UNL     1      49.969   6.335  13.239  0.00  0.00    +0.000 HD
ENDBRANCH   1  20
BRANCH   1  24
ATOM     24  N   UNL     1      48.475   6.909  15.514  0.00  0.00    +0.000 N 
ATOM     25  C   UNL     1      48.691   7.347  16.793  0.00  0.00    +0.000 C 
ATOM     26  O   UNL     1      48.456   8.496  17.146  0.00  0.00    +0.000 OA
ATOM     27  H   UNL     1      48.910   6.044  15.209  0.00  0.00    +0.000 HD
BRANCH  25  28
ATOM     28  C   UNL     1      49.178   6.324  17.719  0.00  0.00    +0.000 A 
ATOM     29  C   UNL     1      48.384   5.678  18.656  0.00  0.00    +0.000 A 
ATOM     30  S   UNL     1      49.283   4.705  19.739  0.00  0.00    +0.000 S 
ATOM     31  C   UNL     1      50.749   5.109  18.972  0.00  0.00    +0.000 A 
ATOM     32  N   UNL     1      51.944   4.670  19.451  0.00  0.00    +0.000 NA
ATOM     33  C   UNL     1      52.965   5.082  18.778  0.00  0.00    +0.000 A 
ATOM     34  N   UNL     1      52.899   5.857  17.643  0.00  0.00    +0.000 N 
ATOM     35  C   UNL     1      51.707   6.205  17.048  0.00  0.00    +0.000 A 
ATOM     36  O   UNL     1      51.677   6.644  15.905  0.00  0.00    +0.000 OA
ATOM     37  C   UNL     1      50.543   5.899  17.858  0.00  0.00    +0.000 A 
ATOM     38  H   UNL     1      53.727   6.052  17.105  0.00  0.00    +0.000 HD
ENDBRANCH  25  28
ENDBRANCH   1  24
TORSDOF 7
ENDMDL
MODEL 8
REMARK VINA RESULT:    -7.219      4.951      7.274
REMARK INTER + INTRA:         -11.571
REMARK INTER:                 -10.031
REMARK INTRA:                  -1.539
REMARK UNBOUND:                -1.398
REMARK  Name = 
REMARK  7 active torsions:
REMARK  status: ('A' for Active; 'I' for Inactive)
REMARK    1  A    between atoms: C_2  and  C_4
REMARK    2  A    between atoms: C_4  and  N_5
REMARK    3  A    between atoms: C_4  and  C_18
REMARK    4  A    between atoms: C_6  and  C_8
REMARK    5  A    between atoms: C_21  and  C_22
REMARK    6  A    between atoms: C_22  and  N_23
REMARK    7  A    between atoms: C_24  and  C_26
REMARK                            x       y       z     vdW  Elec       q    Type
REMARK                         _______ _______ _______ _____ _____    ______ ____
ROOT
ATOM      1  C   UNL     1      46.430   6.158  12.606  0.00  0.00    +0.000 C 
ENDROOT
BRANCH   1   2
ATOM      2  C   UNL     1      45.725   7.449  12.199  0.00  0.00    +0.000 A 
ATOM      3  C   UNL     1      46.231   8.693  12.616  0.00  0.00    +0.000 A 
ATOM      4  C   UNL     1      45.614   9.890  12.229  0.00  0.00    +0.000 A 
ATOM      5  C   UNL     1      44.471   9.874  11.421  0.00  0.00    +0.000 A 
ATOM      6  C   UNL     1      43.946   8.638  11.029  0.00  0.00    +0.000 A 
ATOM      7  C   UNL     1      44.552   7.441  11.429  0.00  0.00    +0.000 A 
BRANCH   5   8
ATOM      8  C   UNL     1      43.830  11.157  10.954  0.00  0.00    +0.000 C 
BRANCH   8   9
ATOM      9  N   UNL     1      42.681  11.493  11.766  0.00  0.00    +0.000 N 
ATOM     10  C   UNL     1      41.405  11.231  11.312  0.00  0.00    +0.000 C 
ATOM     11  O   UNL     1      41.170  10.722  10.222  0.00  0.00    +0.000 OA
ATOM     12  H   UNL     1      42.831  11.665  12.750  0.00  0.00    +0.000 HD
BRANCH  10  13
ATOM     13  C   UNL     1      40.289  11.577  12.236  0.00  0.00    +0.000 A 
ATOM     14  C   UNL     1      38.963  11.235  11.941  0.00  0.00    +0.000 A 
ATOM     15  C   UNL     1      37.944  11.546  12.846  0.00  0.00    +0.000 A 
ATOM     16  C   UNL     1      38.246  12.192  14.045  0.00  0.00    +0.000 A 
ATOM     17  C   UNL     1      39.566  12.524  14.349  0.00  0.00    +0.000 A 
ATOM     18  C   UNL     1      40.588  12.212  13.448  0.00  0.00    +0.000 A 
ENDBRANCH  10  13
ENDBRANCH   8   9
ENDBRANCH   5   8
ENDBRANCH   1   2
BRANCH   1  20
ATOM     19  N   UNL     1      44.880   4.482  13.615  0.00  0.00    +0.000 N 
ATOM     20  C   UNL     1      45.544   4.890  12.497  0.00  0.00    +0.000 C 
ATOM     21  O   UNL     1      45.423   4.252  11.449  0.00  0.00    +0.000 OA
ATOM     22  H   UNL     1      44.311   3.648  13.541  0.00  0.00    +0.000 HD
ATOM     23  H   UNL     1      44.918   4.976  14.496  0.00  0.00    +0.000 HD
ENDBRANCH   1  20
BRANCH   1  24
ATOM     24  N   UNL     1      46.859   6.205  13.995  0.00  0.00    +0.000 N 
ATOM     25  C   UNL     1      48.178   6.291  14.351  0.00  0.00    +0.000 C 
ATOM     26  O   UNL     1      49.075   6.435  13.530  0.00  0.00    +0.000 OA
ATOM     27  H   UNL     1      46.190   5.842  14.667  0.00  0.00    +0.000 HD
BRANCH  25  28
ATOM     28  C   UNL     1      48.430   6.249  15.792  0.00  0.00    +0.000 A 
ATOM     29  C   UNL     1      48.937   7.310  16.527  0.00  0.00    +0.000 A 
ATOM     30  S   UNL     1      49.333   6.882  18.136  0.00  0.00    +0.000 S 
ATOM     31  C   UNL     1      48.821   5.276  17.893  0.00  0.00    +0.000 A 
ATOM     32  N   UNL     1      48.959   4.334  18.865  0.00  0.00    +0.000 NA
ATOM     33  C   UNL     1      48.550   3.160  18.521  0.00  0.00    +0.000 A 
ATOM     34  N   UNL     1      47.974   2.849  17.311  0.00  0.00    +0.000 N 
ATOM     35  C   UNL     1      47.690   3.800  16.356  0.00  0.00    +0.000 A 
ATOM     36  O   UNL     1      46.934   3.552  15.425  0.00  0.00    +0.000 OA
ATOM     37  C   UNL     1      48.277   5.097  16.637  0.00  0.00    +0.000 A 
ATOM     38  H   UNL     1      47.578   1.938  17.148  0.00  0.00    +0.000 HD
ENDBRANCH  25  28
ENDBRANCH   1  24
TORSDOF 7
ENDMDL
MODEL 9
REMARK VINA RESULT:    -6.766      4.817      6.018
REMARK INTER + INTRA:         -10.932
REMARK INTER:                  -9.446
REMARK INTRA:                  -1.486
REMARK UNBOUND:                -1.398
REMARK  Name = 
REMARK  7 active torsions:
REMARK  status: ('A' for Active; 'I' for Inactive)
REMARK    1  A    between atoms: C_2  and  C_4
REMARK    2  A    between atoms: C_4  and  N_5
REMARK    3  A    between atoms: C_4  and  C_18
REMARK    4  A    between atoms: C_6  and  C_8
REMARK    5  A    between atoms: C_21  and  C_22
REMARK    6  A    between atoms: C_22  and  N_23
REMARK    7  A    between atoms: C_24  and  C_26
REMARK                            x       y       z     vdW  Elec       q    Type
REMARK                         _______ _______ _______ _____ _____    ______ ____
ROOT
ATOM      1  C   UNL     1      46.521   6.157  12.611  0.00  0.00    +0.000 C 
ENDROOT
BRANCH   1   2
ATOM      2  C   UNL     1      45.918   7.487  12.165  0.00  0.00    +0.000 A 
ATOM      3  C   UNL     1      46.612   8.688  12.391  0.00  0.00    +0.000 A 
ATOM      4  C   UNL     1      46.088   9.917  11.964  0.00  0.00    +0.000 A 
ATOM      5  C   UNL     1      44.854   9.975  11.307  0.00  0.00    +0.000 A 
ATOM      6  C   UNL     1      44.145   8.785  11.108  0.00  0.00    +0.000 A 
ATOM      7  C   UNL     1      44.660   7.560  11.549  0.00  0.00    +0.000 A 
BRANCH   5   8
ATOM      8  C   UNL     1      44.306  11.283  10.795  0.00  0.00    +0.000 C 
BRANCH   8   9
ATOM      9  N   UNL     1      44.769  11.553   9.452  0.00  0.00    +0.000 N 
ATOM     10  C   UNL     1      43.986  11.229   8.364  0.00  0.00    +0.000 C 
ATOM     11  O   UNL     1      42.886  10.698   8.462  0.00  0.00    +0.000 OA
ATOM     12  H   UNL     1      45.530  12.209   9.337  0.00  0.00    +0.000 HD
BRANCH  10  13
ATOM     13  C   UNL     1      44.533  11.582   7.025  0.00  0.00    +0.000 A 
ATOM     14  C   UNL     1      43.722  11.588   5.882  0.00  0.00    +0.000 A 
ATOM     15  C   UNL     1      44.261  11.957   4.646  0.00  0.00    +0.000 A 
ATOM     16  C   UNL     1      45.603  12.324   4.548  0.00  0.00    +0.000 A 
ATOM     17  C   UNL     1      46.411  12.331   5.685  0.00  0.00    +0.000 A 
ATOM     18  C   UNL     1      45.876  11.967   6.923  0.00  0.00    +0.000 A 
ENDBRANCH  10  13
ENDBRANCH   8   9
ENDBRANCH   5   8
ENDBRANCH   1   2
BRANCH   1  20
ATOM     19  N   UNL     1      44.914   4.549  13.641  0.00  0.00    +0.000 N 
ATOM     20  C   UNL     1      45.549   4.953  12.505  0.00  0.00    +0.000 C 
ATOM     21  O   UNL     1      45.336   4.363  11.444  0.00  0.00    +0.000 OA
ATOM     22  H   UNL     1      44.289   3.756  13.569  0.00  0.00    +0.000 HD
ATOM     23  H   UNL     1      45.027   5.007  14.535  0.00  0.00    +0.000 HD
ENDBRANCH   1  20
BRANCH   1  24
ATOM     24  N   UNL     1      46.923   6.200  14.008  0.00  0.00    +0.000 N 
ATOM     25  C   UNL     1      48.233   6.306  14.389  0.00  0.00    +0.000 C 
ATOM     26  O   UNL     1      49.143   6.471  13.585  0.00  0.00    +0.000 OA
ATOM     27  H   UNL     1      46.248   5.821  14.665  0.00  0.00    +0.000 HD
BRANCH  25  28
ATOM     28  C   UNL     1      48.460   6.256  15.834  0.00  0.00    +0.000 A 
ATOM     29  C   UNL     1      48.953   7.314  16.583  0.00  0.00    +0.000 A 
ATOM     30  S   UNL     1      49.320   6.879  18.197  0.00  0.00    +0.000 S 
ATOM     31  C   UNL     1      48.814   5.273  17.937  0.00  0.00    +0.000 A 
ATOM     32  N   UNL     1      48.935   4.327  18.906  0.00  0.00    +0.000 NA
ATOM     33  C   UNL     1      48.532   3.154  18.549  0.00  0.00    +0.000 A 
ATOM     34  N   UNL     1      47.979   2.849  17.327  0.00  0.00    +0.000 N 
ATOM     35  C   UNL     1      47.711   3.805  16.373  0.00  0.00    +0.000 A 
ATOM     36  O   UNL     1      46.973   3.561  15.427  0.00  0.00    +0.000 OA
ATOM     37  C   UNL     1      48.292   5.100  16.671  0.00  0.00    +0.000 A 
ATOM     38  H   UNL     1      47.586   1.939  17.154  0.00  0.00    +0.000 HD
ENDBRANCH  25  28
ENDBRANCH   1  24
TORSDOF 7
ENDMDL
