MODEL 1
REMARK VINA RESULT:    -7.803      0.000      0.000
REMARK INTER + INTRA:         -12.516
REMARK INTER:                 -10.997
REMARK INTRA:                  -1.519
REMARK UNBOUND:                -1.519
REMARK  Name = 
REMARK  7 active torsions:
REMARK  status: ('A' for Active; 'I' for Inactive)
REMARK    1  A    between atoms: C_2  and  C_20
REMARK    2  A    between atoms: N_3  and  C_4
REMARK    3  A    between atoms: C_4  and  C_5
REMARK    4  A    between atoms: C_9  and  C_10
REMARK    5  A    between atoms: C_10  and  N_11
REMARK    6  A    between atoms: N_11  and  C_12
REMARK    7  A    between atoms: C_12  and  C_13
REMARK                            x       y       z     vdW  Elec       q    Type
REMARK                         _______ _______ _______ _____ _____    ______ ____
ROOT
ATOM      1  C   UNL     1      47.350   6.897  11.802  0.00  0.00    +0.000 C 
ENDROOT
BRANCH   1   2
ATOM      2  C   UNL     1      45.937   6.409  11.685  0.00  0.00    +0.000 A 
ATOM      3  C   UNL     1      44.874   7.286  11.506  0.00  0.00    +0.000 A 
ATOM      4  N   UNL     1      43.579   6.904  11.491  0.00  0.00    +0.000 NA
ATOM      5  C   UNL     1      43.329   5.587  11.681  0.00  0.00    +0.000 A 
ATOM      6  C   UNL     1      44.310   4.618  11.873  0.00  0.00    +0.000 A 
ATOM      7  C   UNL     1      45.638   5.051  11.821  0.00  0.00    +0.000 A 
BRANCH   6   8
ATOM      8  C   UNL     1      43.943   3.169  12.067  0.00  0.00    +0.000 C 
BRANCH   8   9
ATOM      9  N   UNL     1      43.609   2.475  10.806  0.00  0.00    +0.000 NA
ATOM     10  H   UNL     1      43.037   3.102  10.239  0.00  0.00    +0.000 HD
BRANCH   9  11
ATOM     11  C   UNL     1      44.835   2.147  10.076  0.00  0.00    +0.000 C 
BRANCH  11  12
ATOM     12  C   UNL     1      44.888   2.556   8.587  0.00  0.00    +0.000 C 
ATOM     13  C   UNL     1      46.015   1.917   7.748  0.00  0.00    +0.000 C 
ATOM     14  C   UNL     1      47.181   2.824   7.357  0.00  0.00    +0.000 C 
ATOM     15  N   UNL     1      46.769   4.175   6.991  0.00  0.00    +0.000 NA
ATOM     16  C   UNL     1      46.073   4.789   8.122  0.00  0.00    +0.000 C 
ATOM     17  C   UNL     1      44.754   4.075   8.376  0.00  0.00    +0.000 C 
ATOM     18  H   UNL     1      46.142   4.136   6.187  0.00  0.00    +0.000 HD
ENDBRANCH  11  12
ENDBRANCH   9  11
ENDBRANCH   8   9
ENDBRANCH   6   8
ENDBRANCH   1   2
BRANCH   1  21
ATOM     19  N   UNL     1      47.521   8.297  14.357  0.00  0.00    +0.000 NA
ATOM     20  C   UNL     1      47.984   7.111  14.170  0.00  0.00    +0.000 C 
ATOM     21  N   UNL     1      48.001   6.418  12.997  0.00  0.00    +0.000 N 
ATOM     22  H   UNL     1      47.121   8.669  13.498  0.00  0.00    +0.000 HD
ATOM     23  H   UNL     1      47.996   5.397  13.075  0.00  0.00    +0.000 HD
BRANCH  20  24
ATOM     24  C   UNL     1      48.588   6.456  15.332  0.00  0.00    +0.000 A 
ATOM     25  C   UNL     1      49.675   7.033  15.975  0.00  0.00    +0.000 A 
ATOM     26  S   UNL     1      50.211   6.161  17.336  0.00  0.00    +0.000 S 
ATOM     27  C   UNL     1      48.986   4.998  17.138  0.00  0.00    +0.000 A 
ATOM     28  N   UNL     1      48.837   3.980  18.029  0.00  0.00    +0.000 NA
ATOM     29  C   UNL     1      47.842   3.199  17.775  0.00  0.00    +0.000 A 
ATOM     30  N   UNL     1      46.998   3.324  16.703  0.00  0.00    +0.000 N 
ATOM     31  C   UNL     1      47.138   4.309  15.752  0.00  0.00    +0.000 A 
ATOM     32  O   UNL     1      46.417   4.349  14.761  0.00  0.00    +0.000 OA
ATOM     33  C   UNL     1      48.211   5.246  16.018  0.00  0.00    +0.000 A 
ATOM     34  H   UNL     1      46.256   2.655  16.545  0.00  0.00    +0.000 HD
ENDBRANCH  20  24
ENDBRANCH   1  21
TORSDOF 7
ENDMDL
MODEL 2
REMARK VINA RESULT:    -7.789      2.018      3.139
REMARK INTER + INTRA:         -12.495
REMARK INTER:                 -11.557
REMARK INTRA:                  -0.938
REMARK UNBOUND:                -1.519
REMARK  Name = 
REMARK  7 active torsions:
REMARK  status: ('A' for Active; 'I' for Inactive)
REMARK    1  A    between atoms: C_2  and  C_20
REMARK    2  A    between atoms: N_3  and  C_4
REMARK    3  A    between atoms: C_4  and  C_5
REMARK    4  A    between atoms: C_9  and  C_10
REMARK    5  A    between atoms: C_10  and  N_11
REMARK    6  A    between atoms: N_11  and  C_12
REMARK    7  A    between atoms: C_12  and  C_13
REMARK                            x       y       z     vdW  Elec       q    Type
REMARK                         _______ _______ _______ _____ _____    ______ ____
ROOT
ATOM      1  C   UNL     1      46.064   4.072  14.497  0.00  0.00    +0.000 C 
ENDROOT
BRANCH   1   2
ATOM      2  C   UNL     1      46.057   4.726  13.149  0.00  0.00    +0.000 A 
ATOM      3  C   UNL     1      46.911   5.778  12.842  0.00  0.00    +0.000 A 
ATOM      4  N   UNL     1      46.877   6.459  11.677  0.00  0.00    +0.000 NA
ATOM      5  C   UNL     1      45.934   6.087  10.779  0.00  0.00    +0.000 A 
ATOM      6  C   UNL     1      45.023   5.052  10.977  0.00  0.00    +0.000 A 
ATOM      7  C   UNL     1      45.136   4.337  12.172  0.00  0.00    +0.000 A 
BRANCH   6   8
ATOM      8  C   UNL     1      44.010   4.697   9.919  0.00  0.00    +0.000 C 
BRANCH   8   9
ATOM      9  N   UNL     1      43.982   3.256   9.595  0.00  0.00    +0.000 NA
ATOM     10  H   UNL     1      43.013   2.938   9.639  0.00  0.00    +0.000 HD
BRANCH   9  11
ATOM     11  C   UNL     1      44.501   3.037   8.244  0.00  0.00    +0.000 C 
BRANCH  11  12
ATOM     12  C   UNL     1      46.035   2.922   8.099  0.00  0.00    +0.000 C 
ATOM     13  C   UNL     1      46.660   3.667   6.900  0.00  0.00    +0.000 C 
ATOM     14  C   UNL     1      47.147   2.808   5.734  0.00  0.00    +0.000 C 
ATOM     15  N   UNL     1      47.796   1.570   6.155  0.00  0.00    +0.000 NA
ATOM     16  C   UNL     1      46.853   0.777   6.943  0.00  0.00    +0.000 C 
ATOM     17  C   UNL     1      46.548   1.478   8.257  0.00  0.00    +0.000 C 
ATOM     18  H   UNL     1      48.615   1.788   6.724  0.00  0.00    +0.000 HD
ENDBRANCH  11  12
ENDBRANCH   9  11
ENDBRANCH   8   9
ENDBRANCH   6   8
ENDBRANCH   1   2
BRANCH   1  21
ATOM     19  N   UNL     1      46.594   3.290  17.259  0.00  0.00    +0.000 NA
ATOM     20  C   UNL     1      47.409   3.996  16.557  0.00  0.00    +0.000 C 
ATOM     21  N   UNL     1      47.207   4.455  15.289  0.00  0.00    +0.000 N 
ATOM     22  H   UNL     1      45.753   3.074  16.728  0.00  0.00    +0.000 HD
ATOM     23  H   UNL     1      48.048   4.617  14.728  0.00  0.00    +0.000 HD
BRANCH  20  24
ATOM     24  C   UNL     1      48.666   4.376  17.202  0.00  0.00    +0.000 A 
ATOM     25  C   UNL     1      48.786   5.607  17.834  0.00  0.00    +0.000 A 
ATOM     26  S   UNL     1      50.299   5.855  18.575  0.00  0.00    +0.000 S 
ATOM     27  C   UNL     1      50.838   4.311  18.112  0.00  0.00    +0.000 A 
ATOM     28  N   UNL     1      52.063   3.854  18.491  0.00  0.00    +0.000 NA
ATOM     29  C   UNL     1      52.321   2.651  18.102  0.00  0.00    +0.000 A 
ATOM     30  N   UNL     1      51.482   1.872  17.350  0.00  0.00    +0.000 N 
ATOM     31  C   UNL     1      50.255   2.308  16.904  0.00  0.00    +0.000 A 
ATOM     32  O   UNL     1      49.560   1.619  16.165  0.00  0.00    +0.000 OA
ATOM     33  C   UNL     1      49.894   3.636  17.357  0.00  0.00    +0.000 A 
ATOM     34  H   UNL     1      51.761   0.947  17.050  0.00  0.00    +0.000 HD
ENDBRANCH  20  24
ENDBRANCH   1  21
TORSDOF 7
ENDMDL
MODEL 3
REMARK VINA RESULT:    -7.728      2.221      3.368
REMARK INTER + INTRA:         -12.410
REMARK INTER:                 -11.582
REMARK INTRA:                  -0.828
REMARK UNBOUND:                -1.519
REMARK  Name = 
REMARK  7 active torsions:
REMARK  status: ('A' for Active; 'I' for Inactive)
REMARK    1  A    between atoms: C_2  and  C_20
REMARK    2  A    between atoms: N_3  and  C_4
REMARK    3  A    between atoms: C_4  and  C_5
REMARK    4  A    between atoms: C_9  and  C_10
REMARK    5  A    between atoms: C_10  and  N_11
REMARK    6  A    between atoms: N_11  and  C_12
REMARK    7  A    between atoms: C_12  and  C_13
REMARK                            x       y       z     vdW  Elec       q    Type
REMARK                         _______ _______ _______ _____ _____    ______ ____
ROOT
ATOM      1  C   UNL     1      46.967   3.729  14.656  0.00  0.00    +0.000 C 
ENDROOT
BRANCH   1   2
ATOM      2  C   UNL     1      46.432   4.602  13.561  0.00  0.00    +0.000 A 
ATOM      3  C   UNL     1      46.664   5.972  13.541  0.00  0.00    +0.000 A 
ATOM      4  N   UNL     1      46.125   6.812  12.631  0.00  0.00    +0.000 NA
ATOM      5  C   UNL     1      45.301   6.263  11.707  0.00  0.00    +0.000 A 
ATOM      6  C   UNL     1      44.993   4.908  11.631  0.00  0.00    +0.000 A 
ATOM      7  C   UNL     1      45.621   4.069  12.556  0.00  0.00    +0.000 A 
BRANCH   6   8
ATOM      8  C   UNL     1      44.072   4.380  10.562  0.00  0.00    +0.000 C 
BRANCH   8   9
ATOM      9  N   UNL     1      44.386   4.893   9.212  0.00  0.00    +0.000 NA
ATOM     10  H   UNL     1      44.479   5.907   9.271  0.00  0.00    +0.000 HD
BRANCH   9  11
ATOM     11  C   UNL     1      45.647   4.319   8.740  0.00  0.00    +0.000 C 
BRANCH  11  12
ATOM     12  C   UNL     1      45.552   3.245   7.633  0.00  0.00    +0.000 C 
ATOM     13  C   UNL     1      45.428   1.784   8.115  0.00  0.00    +0.000 C 
ATOM     14  C   UNL     1      46.662   0.898   7.951  0.00  0.00    +0.000 C 
ATOM     15  N   UNL     1      47.377   1.124   6.699  0.00  0.00    +0.000 NA
ATOM     16  C   UNL     1      47.806   2.520   6.635  0.00  0.00    +0.000 C 
ATOM     17  C   UNL     1      46.598   3.436   6.519  0.00  0.00    +0.000 C 
ATOM     18  H   UNL     1      46.761   0.921   5.911  0.00  0.00    +0.000 HD
ENDBRANCH  11  12
ENDBRANCH   9  11
ENDBRANCH   8   9
ENDBRANCH   6   8
ENDBRANCH   1   2
BRANCH   1  21
ATOM     19  N   UNL     1      46.549   3.015  17.455  0.00  0.00    +0.000 NA
ATOM     20  C   UNL     1      47.214   4.052  17.083  0.00  0.00    +0.000 C 
ATOM     21  N   UNL     1      47.399   4.487  15.805  0.00  0.00    +0.000 N 
ATOM     22  H   UNL     1      46.183   2.512  16.649  0.00  0.00    +0.000 HD
ATOM     23  H   UNL     1      48.248   5.030  15.631  0.00  0.00    +0.000 HD
BRANCH  20  24
ATOM     24  C   UNL     1      47.801   4.867  18.148  0.00  0.00    +0.000 A 
ATOM     25  C   UNL     1      47.018   5.779  18.844  0.00  0.00    +0.000 A 
ATOM     26  S   UNL     1      47.854   6.599  20.081  0.00  0.00    +0.000 S 
ATOM     27  C   UNL     1      49.284   5.738  19.757  0.00  0.00    +0.000 A 
ATOM     28  N   UNL     1      50.398   5.919  20.518  0.00  0.00    +0.000 NA
ATOM     29  C   UNL     1      51.393   5.170  20.182  0.00  0.00    +0.000 A 
ATOM     30  N   UNL     1      51.389   4.276  19.144  0.00  0.00    +0.000 N 
ATOM     31  C   UNL     1      50.302   4.093  18.319  0.00  0.00    +0.000 A 
ATOM     32  O   UNL     1      50.354   3.345  17.349  0.00  0.00    +0.000 OA
ATOM     33  C   UNL     1      49.138   4.874  18.685  0.00  0.00    +0.000 A 
ATOM     34  H   UNL     1      52.217   3.744  18.914  0.00  0.00    +0.000 HD
ENDBRANCH  20  24
ENDBRANCH   1  21
TORSDOF 7
ENDMDL
MODEL 4
REMARK VINA RESULT:    -7.191      1.763      2.396
REMARK INTER + INTRA:         -11.653
REMARK INTER:                 -10.645
REMARK INTRA:                  -1.009
REMARK UNBOUND:                -1.519
REMARK  Name = 
REMARK  7 active torsions:
REMARK  status: ('A' for Active; 'I' for Inactive)
REMARK    1  A    between atoms: C_2  and  C_20
REMARK    2  A    between atoms: N_3  and  C_4
REMARK    3  A    between atoms: C_4  and  C_5
REMARK    4  A    between atoms: C_9  and  C_10
REMARK    5  A    between atoms: C_10  and  N_11
REMARK    6  A    between atoms: N_11  and  C_12
REMARK    7  A    between atoms: C_12  and  C_13
REMARK                            x       y       z     vdW  Elec       q    Type
REMARK                         _______ _______ _______ _____ _____    ______ ____
ROOT
ATOM      1  C   UNL     1      47.458   6.738  13.437  0.00  0.00    +0.000 C 
ENDROOT
BRANCH   1   2
ATOM      2  C   UNL     1      46.641   5.543  13.048  0.00  0.00    +0.000 A 
ATOM      3  C   UNL     1      46.811   4.308  13.664  0.00  0.00    +0.000 A 
ATOM      4  N   UNL     1      46.169   3.183  13.285  0.00  0.00    +0.000 NA
ATOM      5  C   UNL     1      45.329   3.287  12.228  0.00  0.00    +0.000 A 
ATOM      6  C   UNL     1      45.081   4.467  11.531  0.00  0.00    +0.000 A 
ATOM      7  C   UNL     1      45.722   5.617  11.997  0.00  0.00    +0.000 A 
BRANCH   6   8
ATOM      8  C   UNL     1      44.121   4.495  10.370  0.00  0.00    +0.000 C 
BRANCH   8   9
ATOM      9  N   UNL     1      44.711   5.049   9.134  0.00  0.00    +0.000 NA
ATOM     10  H   UNL     1      45.001   6.009   9.322  0.00  0.00    +0.000 HD
BRANCH   9  11
ATOM     11  C   UNL     1      45.880   4.260   8.741  0.00  0.00    +0.000 C 
BRANCH  11  12
ATOM     12  C   UNL     1      45.659   3.185   7.654  0.00  0.00    +0.000 C 
ATOM     13  C   UNL     1      45.583   1.725   8.149  0.00  0.00    +0.000 C 
ATOM     14  C   UNL     1      46.788   0.833   7.852  0.00  0.00    +0.000 C 
ATOM     15  N   UNL     1      47.363   1.054   6.529  0.00  0.00    +0.000 NA
ATOM     16  C   UNL     1      47.788   2.448   6.416  0.00  0.00    +0.000 C 
ATOM     17  C   UNL     1      46.578   3.369   6.431  0.00  0.00    +0.000 C 
ATOM     18  H   UNL     1      46.663   0.853   5.813  0.00  0.00    +0.000 HD
ENDBRANCH  11  12
ENDBRANCH   9  11
ENDBRANCH   8   9
ENDBRANCH   6   8
ENDBRANCH   1   2
BRANCH   1  21
ATOM     19  N   UNL     1      47.951   8.599  15.630  0.00  0.00    +0.000 NA
ATOM     20  C   UNL     1      48.406   7.396  15.610  0.00  0.00    +0.000 C 
ATOM     21  N   UNL     1      48.276   6.491  14.599  0.00  0.00    +0.000 N 
ATOM     22  H   UNL     1      47.430   8.803  14.779  0.00  0.00    +0.000 HD
ATOM     23  H   UNL     1      48.300   5.505  14.871  0.00  0.00    +0.000 HD
BRANCH  20  24
ATOM     24  C   UNL     1      49.176   6.971  16.780  0.00  0.00    +0.000 A 
ATOM     25  C   UNL     1      50.310   7.674  17.166  0.00  0.00    +0.000 A 
ATOM     26  S   UNL     1      51.046   7.069  18.578  0.00  0.00    +0.000 S 
ATOM     27  C   UNL     1      49.856   5.867  18.746  0.00  0.00    +0.000 A 
ATOM     28  N   UNL     1      49.861   5.021  19.813  0.00  0.00    +0.000 NA
ATOM     29  C   UNL     1      48.876   4.189  19.831  0.00  0.00    +0.000 A 
ATOM     30  N   UNL     1      47.900   4.105  18.872  0.00  0.00    +0.000 N 
ATOM     31  C   UNL     1      47.880   4.907  17.753  0.00  0.00    +0.000 A 
ATOM     32  O   UNL     1      47.041   4.755  16.872  0.00  0.00    +0.000 OA
ATOM     33  C   UNL     1      48.938   5.896  17.710  0.00  0.00    +0.000 A 
ATOM     34  H   UNL     1      47.173   3.405  18.930  0.00  0.00    +0.000 HD
ENDBRANCH  20  24
ENDBRANCH   1  21
TORSDOF 7
ENDMDL
MODEL 5
REMARK VINA RESULT:    -7.001      3.297      9.050
REMARK INTER + INTRA:         -11.386
REMARK INTER:                  -9.819
REMARK INTRA:                  -1.567
REMARK UNBOUND:                -1.519
REMARK  Name = 
REMARK  7 active torsions:
REMARK  status: ('A' for Active; 'I' for Inactive)
REMARK    1  A    between atoms: C_2  and  C_20
REMARK    2  A    between atoms: N_3  and  C_4
REMARK    3  A    between atoms: C_4  and  C_5
REMARK    4  A    between atoms: C_9  and  C_10
REMARK    5  A    between atoms: C_10  and  N_11
REMARK    6  A    between atoms: N_11  and  C_12
REMARK    7  A    between atoms: C_12  and  C_13
REMARK                            x       y       z     vdW  Elec       q    Type
REMARK                         _______ _______ _______ _____ _____    ______ ____
ROOT
ATOM      1  C   UNL     1      47.366   3.566  16.978  0.00  0.00    +0.000 C 
ENDROOT
BRANCH   1   2
ATOM      2  C   UNL     1      48.835   3.280  17.060  0.00  0.00    +0.000 A 
ATOM      3  C   UNL     1      49.341   1.998  16.877  0.00  0.00    +0.000 A 
ATOM      4  N   UNL     1      50.643   1.674  17.034  0.00  0.00    +0.000 NA
ATOM      5  C   UNL     1      51.479   2.671  17.409  0.00  0.00    +0.000 A 
ATOM      6  C   UNL     1      51.086   3.990  17.624  0.00  0.00    +0.000 A 
ATOM      7  C   UNL     1      49.742   4.290  17.391  0.00  0.00    +0.000 A 
BRANCH   6   8
ATOM      8  C   UNL     1      52.087   5.040  18.031  0.00  0.00    +0.000 C 
BRANCH   8   9
ATOM      9  N   UNL     1      52.042   5.366  19.471  0.00  0.00    +0.000 NA
ATOM     10  H   UNL     1      53.000   5.475  19.803  0.00  0.00    +0.000 HD
BRANCH   9  11
ATOM     11  C   UNL     1      51.315   6.620  19.678  0.00  0.00    +0.000 C 
BRANCH  11  12
ATOM     12  C   UNL     1      50.147   6.588  20.690  0.00  0.00    +0.000 C 
ATOM     13  C   UNL     1      49.858   5.223  21.349  0.00  0.00    +0.000 C 
ATOM     14  C   UNL     1      48.604   4.485  20.882  0.00  0.00    +0.000 C 
ATOM     15  N   UNL     1      47.462   5.366  20.655  0.00  0.00    +0.000 NA
ATOM     16  C   UNL     1      47.813   6.356  19.638  0.00  0.00    +0.000 C 
ATOM     17  C   UNL     1      48.883   7.298  20.170  0.00  0.00    +0.000 C 
ATOM     18  H   UNL     1      47.218   5.843  21.524  0.00  0.00    +0.000 HD
ENDBRANCH  11  12
ENDBRANCH   9  11
ENDBRANCH   8   9
ENDBRANCH   6   8
ENDBRANCH   1   2
BRANCH   1  21
ATOM     19  N   UNL     1      47.217   3.191  14.088  0.00  0.00    +0.000 NA
ATOM     20  C   UNL     1      46.948   4.307  14.669  0.00  0.00    +0.000 C 
ATOM     21  N   UNL     1      47.056   4.580  16.000  0.00  0.00    +0.000 N 
ATOM     22  H   UNL     1      47.504   2.489  14.767  0.00  0.00    +0.000 HD
ATOM     23  H   UNL     1      46.438   5.311  16.362  0.00  0.00    +0.000 HD
BRANCH  20  24
ATOM     24  C   UNL     1      46.518   5.406  13.804  0.00  0.00    +0.000 A 
ATOM     25  C   UNL     1      47.353   6.495  13.587  0.00  0.00    +0.000 A 
ATOM     26  S   UNL     1      46.711   7.650  12.512  0.00  0.00    +0.000 S 
ATOM     27  C   UNL     1      45.309   6.719  12.267  0.00  0.00    +0.000 A 
ATOM     28  N   UNL     1      44.349   7.118  11.388  0.00  0.00    +0.000 NA
ATOM     29  C   UNL     1      43.363   6.294  11.276  0.00  0.00    +0.000 A 
ATOM     30  N   UNL     1      43.232   5.124  11.975  0.00  0.00    +0.000 N 
ATOM     31  C   UNL     1      44.154   4.703  12.908  0.00  0.00    +0.000 A 
ATOM     32  O   UNL     1      43.972   3.692  13.577  0.00  0.00    +0.000 OA
ATOM     33  C   UNL     1      45.309   5.568  13.036  0.00  0.00    +0.000 A 
ATOM     34  H   UNL     1      42.415   4.539  11.863  0.00  0.00    +0.000 HD
ENDBRANCH  20  24
ENDBRANCH   1  21
TORSDOF 7
ENDMDL
MODEL 6
REMARK VINA RESULT:    -6.989      2.602      7.669
REMARK INTER + INTRA:         -11.368
REMARK INTER:                 -10.259
REMARK INTRA:                  -1.110
REMARK UNBOUND:                -1.519
REMARK  Name = 
REMARK  7 active torsions:
REMARK  status: ('A' for Active; 'I' for Inactive)
REMARK    1  A    between atoms: C_2  and  C_20
REMARK    2  A    between atoms: N_3  and  C_4
REMARK    3  A    between atoms: C_4  and  C_5
REMARK    4  A    between atoms: C_9  and  C_10
REMARK    5  A    between atoms: C_10  and  N_11
REMARK    6  A    between atoms: N_11  and  C_12
REMARK    7  A    between atoms: C_12  and  C_13
REMARK                            x       y       z     vdW  Elec       q    Type
REMARK                         _______ _______ _______ _____ _____    ______ ____
ROOT
ATOM      1  C   UNL     1      47.074   8.015  12.146  0.00  0.00    +0.000 C 
ENDROOT
BRANCH   1   2
ATOM      2  C   UNL     1      48.276   7.986  13.042  0.00  0.00    +0.000 A 
ATOM      3  C   UNL     1      49.496   8.522  12.645  0.00  0.00    +0.000 A 
ATOM      4  N   UNL     1      50.628   8.436  13.376  0.00  0.00    +0.000 NA
ATOM      5  C   UNL     1      50.547   7.768  14.550  0.00  0.00    +0.000 A 
ATOM      6  C   UNL     1      49.383   7.187  15.048  0.00  0.00    +0.000 A 
ATOM      7  C   UNL     1      48.224   7.354  14.287  0.00  0.00    +0.000 A 
BRANCH   6   8
ATOM      8  C   UNL     1      49.380   6.469  16.373  0.00  0.00    +0.000 C 
BRANCH   8   9
ATOM      9  N   UNL     1      48.023   6.147  16.862  0.00  0.00    +0.000 NA
ATOM     10  H   UNL     1      47.592   5.500  16.201  0.00  0.00    +0.000 HD
BRANCH   9  11
ATOM     11  C   UNL     1      48.104   5.511  18.177  0.00  0.00    +0.000 C 
BRANCH  11  12
ATOM     12  C   UNL     1      48.173   3.967  18.201  0.00  0.00    +0.000 C 
ATOM     13  C   UNL     1      49.585   3.353  18.306  0.00  0.00    +0.000 C 
ATOM     14  C   UNL     1      50.148   2.701  17.044  0.00  0.00    +0.000 C 
ATOM     15  N   UNL     1      49.154   1.948  16.286  0.00  0.00    +0.000 NA
ATOM     16  C   UNL     1      48.070   2.846  15.890  0.00  0.00    +0.000 C 
ATOM     17  C   UNL     1      47.299   3.310  17.116  0.00  0.00    +0.000 C 
ATOM     18  H   UNL     1      48.778   1.196  16.864  0.00  0.00    +0.000 HD
ENDBRANCH  11  12
ENDBRANCH   9  11
ENDBRANCH   8   9
ENDBRANCH   6   8
ENDBRANCH   1   2
BRANCH   1  21
ATOM     19  N   UNL     1      44.363   7.487  11.204  0.00  0.00    +0.000 NA
ATOM     20  C   UNL     1      45.197   6.556  11.512  0.00  0.00    +0.000 C 
ATOM     21  N   UNL     1      46.452   6.720  12.018  0.00  0.00    +0.000 N 
ATOM     22  H   UNL     1      44.773   8.405  11.358  0.00  0.00    +0.000 HD
ATOM     23  H   UNL     1      47.120   5.971  11.819  0.00  0.00    +0.000 HD
BRANCH  20  24
ATOM     24  C   UNL     1      44.732   5.179  11.334  0.00  0.00    +0.000 A 
ATOM     25  C   UNL     1      43.998   4.553  12.333  0.00  0.00    +0.000 A 
ATOM     26  S   UNL     1      43.497   2.975  11.931  0.00  0.00    +0.000 S 
ATOM     27  C   UNL     1      44.212   3.084  10.392  0.00  0.00    +0.000 A 
ATOM     28  N   UNL     1      44.096   2.069   9.493  0.00  0.00    +0.000 NA
ATOM     29  C   UNL     1      44.653   2.307   8.354  0.00  0.00    +0.000 A 
ATOM     30  N   UNL     1      45.336   3.452   8.037  0.00  0.00    +0.000 N 
ATOM     31  C   UNL     1      45.519   4.485   8.929  0.00  0.00    +0.000 A 
ATOM     32  O   UNL     1      46.203   5.462   8.644  0.00  0.00    +0.000 OA
ATOM     33  C   UNL     1      44.868   4.289  10.208  0.00  0.00    +0.000 A 
ATOM     34  H   UNL     1      45.779   3.560   7.134  0.00  0.00    +0.000 HD
ENDBRANCH  20  24
ENDBRANCH   1  21
TORSDOF 7
ENDMDL
MODEL 7
REMARK VINA RESULT:    -6.915      2.741      7.947
REMARK INTER + INTRA:         -11.264
REMARK INTER:                  -9.931
REMARK INTRA:                  -1.333
REMARK UNBOUND:                -1.519
REMARK  Name = 
REMARK  7 active torsions:
REMARK  status: ('A' for Active; 'I' for Inactive)
REMARK    1  A    between atoms: C_2  and  C_20
REMARK    2  A    between atoms: N_3  and  C_4
REMARK    3  A    between atoms: C_4  and  C_5
REMARK    4  A    between atoms: C_9  and  C_10
REMARK    5  A    between atoms: C_10  and  N_11
REMARK    6  A    between atoms: N_11  and  C_12
REMARK    7  A    between atoms: C_12  and  C_13
REMARK                            x       y       z     vdW  Elec       q    Type
REMARK                         _______ _______ _______ _____ _____    ______ ____
ROOT
ATOM      1  C   UNL     1      46.505   8.316  12.728  0.00  0.00    +0.000 C 
ENDROOT
BRANCH   1   2
ATOM      2  C   UNL     1      48.003   8.320  12.783  0.00  0.00    +0.000 A 
ATOM      3  C   UNL     1      48.776   8.395  11.631  0.00  0.00    +0.000 A 
ATOM      4  N   UNL     1      50.123   8.307  11.623  0.00  0.00    +0.000 NA
ATOM      5  C   UNL     1      50.730   8.116  12.818  0.00  0.00    +0.000 A 
ATOM      6  C   UNL     1      50.060   8.022  14.035  0.00  0.00    +0.000 A 
ATOM      7  C   UNL     1      48.672   8.179  14.002  0.00  0.00    +0.000 A 
BRANCH   6   8
ATOM      8  C   UNL     1      50.816   7.818  15.323  0.00  0.00    +0.000 C 
BRANCH   8   9
ATOM      9  N   UNL     1      50.932   6.399  15.717  0.00  0.00    +0.000 NA
ATOM     10  H   UNL     1      51.923   6.173  15.806  0.00  0.00    +0.000 HD
BRANCH   9  11
ATOM     11  C   UNL     1      50.269   6.181  17.003  0.00  0.00    +0.000 C 
BRANCH  11  12
ATOM     12  C   UNL     1      48.735   6.357  17.034  0.00  0.00    +0.000 C 
ATOM     13  C   UNL     1      48.142   6.914  18.346  0.00  0.00    +0.000 C 
ATOM     14  C   UNL     1      47.385   5.927  19.233  0.00  0.00    +0.000 C 
ATOM     15  N   UNL     1      46.561   4.985  18.482  0.00  0.00    +0.000 NA
ATOM     16  C   UNL     1      47.412   4.220  17.572  0.00  0.00    +0.000 C 
ATOM     17  C   UNL     1      47.978   5.129  16.493  0.00  0.00    +0.000 C 
ATOM     18  H   UNL     1      45.860   5.495  17.943  0.00  0.00    +0.000 HD
ENDBRANCH  11  12
ENDBRANCH   9  11
ENDBRANCH   8   9
ENDBRANCH   6   8
ENDBRANCH   1   2
BRANCH   1  21
ATOM     19  N   UNL     1      44.397   7.512  10.877  0.00  0.00    +0.000 NA
ATOM     20  C   UNL     1      45.017   6.684  11.642  0.00  0.00    +0.000 C 
ATOM     21  N   UNL     1      45.963   6.987  12.576  0.00  0.00    +0.000 N 
ATOM     22  H   UNL     1      44.727   8.462  11.029  0.00  0.00    +0.000 HD
ATOM     23  H   UNL     1      46.640   6.251  12.788  0.00  0.00    +0.000 HD
BRANCH  20  24
ATOM     24  C   UNL     1      44.638   5.275  11.522  0.00  0.00    +0.000 A 
ATOM     25  C   UNL     1      43.958   4.642  12.553  0.00  0.00    +0.000 A 
ATOM     26  S   UNL     1      43.553   3.022  12.217  0.00  0.00    +0.000 S 
ATOM     27  C   UNL     1      44.239   3.118  10.664  0.00  0.00    +0.000 A 
ATOM     28  N   UNL     1      44.176   2.065   9.804  0.00  0.00    +0.000 NA
ATOM     29  C   UNL     1      44.702   2.295   8.650  0.00  0.00    +0.000 A 
ATOM     30  N   UNL     1      45.307   3.467   8.281  0.00  0.00    +0.000 N 
ATOM     31  C   UNL     1      45.436   4.542   9.131  0.00  0.00    +0.000 A 
ATOM     32  O   UNL     1      46.053   5.549   8.801  0.00  0.00    +0.000 OA
ATOM     33  C   UNL     1      44.815   4.354  10.427  0.00  0.00    +0.000 A 
ATOM     34  H   UNL     1      45.730   3.569   7.368  0.00  0.00    +0.000 HD
ENDBRANCH  20  24
ENDBRANCH   1  21
TORSDOF 7
ENDMDL
MODEL 8
REMARK VINA RESULT:    -6.825      2.847      4.839
REMARK INTER + INTRA:         -11.138
REMARK INTER:                 -10.104
REMARK INTRA:                  -1.034
REMARK UNBOUND:                -1.519
REMARK  Name = 
REMARK  7 active torsions:
REMARK  status: ('A' for Active; 'I' for Inactive)
REMARK    1  A    between atoms: C_2  and  C_20
REMARK    2  A    between atoms: N_3  and  C_4
REMARK    3  A    between atoms: C_4  and  C_5
REMARK    4  A    between atoms: C_9  and  C_10
REMARK    5  A    between atoms: C_10  and  N_11
REMARK    6  A    between atoms: N_11  and  C_12
REMARK    7  A    between atoms: C_12  and  C_13
REMARK                            x       y       z     vdW  Elec       q    Type
REMARK                         _______ _______ _______ _____ _____    ______ ____
ROOT
ATOM      1  C   UNL     1      48.892   6.457  16.696  0.00  0.00    +0.000 C 
ENDROOT
BRANCH   1   2
ATOM      2  C   UNL     1      48.113   5.828  15.581  0.00  0.00    +0.000 A 
ATOM      3  C   UNL     1      47.628   4.529  15.670  0.00  0.00    +0.000 A 
ATOM      4  N   UNL     1      47.004   3.888  14.658  0.00  0.00    +0.000 NA
ATOM      5  C   UNL     1      46.873   4.567  13.494  0.00  0.00    +0.000 A 
ATOM      6  C   UNL     1      47.321   5.869  13.287  0.00  0.00    +0.000 A 
ATOM      7  C   UNL     1      47.906   6.513  14.380  0.00  0.00    +0.000 A 
BRANCH   6   8
ATOM      8  C   UNL     1      47.124   6.554  11.960  0.00  0.00    +0.000 C 
BRANCH   8   9
ATOM      9  N   UNL     1      46.161   5.861  11.079  0.00  0.00    +0.000 NA
ATOM     10  H   UNL     1      46.171   4.869  11.315  0.00  0.00    +0.000 HD
BRANCH   9  11
ATOM     11  C   UNL     1      44.815   6.395  11.291  0.00  0.00    +0.000 C 
BRANCH  11  12
ATOM     12  C   UNL     1      43.639   5.408  11.119  0.00  0.00    +0.000 C 
ATOM     13  C   UNL     1      43.139   4.717  12.406  0.00  0.00    +0.000 C 
ATOM     14  C   UNL     1      43.492   3.240  12.575  0.00  0.00    +0.000 C 
ATOM     15  N   UNL     1      43.402   2.475  11.336  0.00  0.00    +0.000 NA
ATOM     16  C   UNL     1      44.313   3.050  10.348  0.00  0.00    +0.000 C 
ATOM     17  C   UNL     1      43.838   4.436   9.940  0.00  0.00    +0.000 C 
ATOM     18  H   UNL     1      42.446   2.511  10.978  0.00  0.00    +0.000 HD
ENDBRANCH  11  12
ENDBRANCH   9  11
ENDBRANCH   8   9
ENDBRANCH   6   8
ENDBRANCH   1   2
BRANCH   1  21
ATOM     19  N   UNL     1      49.702   5.627  19.374  0.00  0.00    +0.000 NA
ATOM     20  C   UNL     1      50.348   5.304  18.310  0.00  0.00    +0.000 C 
ATOM     21  N   UNL     1      50.074   5.703  17.035  0.00  0.00    +0.000 N 
ATOM     22  H   UNL     1      48.904   6.218  19.147  0.00  0.00    +0.000 HD
ATOM     23  H   UNL     1      50.374   5.070  16.290  0.00  0.00    +0.000 HD
BRANCH  20  24
ATOM     24  C   UNL     1      51.523   4.449  18.494  0.00  0.00    +0.000 A 
ATOM     25  C   UNL     1      52.617   4.908  19.216  0.00  0.00    +0.000 A 
ATOM     26  S   UNL     1      53.866   3.761  19.373  0.00  0.00    +0.000 S 
ATOM     27  C   UNL     1      52.975   2.595  18.513  0.00  0.00    +0.000 A 
ATOM     28  N   UNL     1      53.458   1.335  18.338  0.00  0.00    +0.000 NA
ATOM     29  C   UNL     1      52.658   0.548  17.703  0.00  0.00    +0.000 A 
ATOM     30  N   UNL     1      51.433   0.907  17.205  0.00  0.00    +0.000 N 
ATOM     31  C   UNL     1      50.924   2.181  17.318  0.00  0.00    +0.000 A 
ATOM     32  O   UNL     1      49.861   2.494  16.793  0.00  0.00    +0.000 OA
ATOM     33  C   UNL     1      51.763   3.093  18.069  0.00  0.00    +0.000 A 
ATOM     34  H   UNL     1      50.869   0.247  16.686  0.00  0.00    +0.000 HD
ENDBRANCH  20  24
ENDBRANCH   1  21
TORSDOF 7
ENDMDL
MODEL 9
REMARK VINA RESULT:    -6.739      3.135      7.671
REMARK INTER + INTRA:         -11.017
REMARK INTER:                  -9.431
REMARK INTRA:                  -1.586
REMARK UNBOUND:                -1.519
REMARK  Name = 
REMARK  7 active torsions:
REMARK  status: ('A' for Active; 'I' for Inactive)
REMARK    1  A    between atoms: C_2  and  C_20
REMARK    2  A    between atoms: N_3  and  C_4
REMARK    3  A    between atoms: C_4  and  C_5
REMARK    4  A    between atoms: C_9  and  C_10
REMARK    5  A    between atoms: C_10  and  N_11
REMARK    6  A    between atoms: N_11  and  C_12
REMARK    7  A    between atoms: C_12  and  C_13
REMARK                            x       y       z     vdW  Elec       q    Type
REMARK                         _______ _______ _______ _____ _____    ______ ____
ROOT
ATOM      1  C   UNL     1      48.560   8.728  14.780  0.00  0.00    +0.000 C 
ENDROOT
BRANCH   1   2
ATOM      2  C   UNL     1      48.483   8.805  16.275  0.00  0.00    +0.000 A 
ATOM      3  C   UNL     1      48.063   9.958  16.927  0.00  0.00    +0.000 A 
ATOM      4  N   UNL     1      48.067  10.107  18.269  0.00  0.00    +0.000 NA
ATOM      5  C   UNL     1      48.529   9.063  18.998  0.00  0.00    +0.000 A 
ATOM      6  C   UNL     1      48.978   7.862  18.456  0.00  0.00    +0.000 A 
ATOM      7  C   UNL     1      48.899   7.731  17.068  0.00  0.00    +0.000 A 
BRANCH   6   8
ATOM      8  C   UNL     1      49.467   6.746  19.343  0.00  0.00    +0.000 C 
BRANCH   8   9
ATOM      9  N   UNL     1      48.435   5.726  19.625  0.00  0.00    +0.000 NA
ATOM     10  H   UNL     1      47.608   5.948  19.069  0.00  0.00    +0.000 HD
BRANCH   9  11
ATOM     11  C   UNL     1      48.927   4.400  19.250  0.00  0.00    +0.000 C 
BRANCH  11  12
ATOM     12  C   UNL     1      49.350   4.205  17.776  0.00  0.00    +0.000 C 
ATOM     13  C   UNL     1      48.241   3.738  16.809  0.00  0.00    +0.000 C 
ATOM     14  C   UNL     1      48.310   2.288  16.332  0.00  0.00    +0.000 C 
ATOM     15  N   UNL     1      49.669   1.833  16.051  0.00  0.00    +0.000 NA
ATOM     16  C   UNL     1      50.476   1.953  17.264  0.00  0.00    +0.000 C 
ATOM     17  C   UNL     1      50.665   3.417  17.627  0.00  0.00    +0.000 C 
ATOM     18  H   UNL     1      50.077   2.407  15.313  0.00  0.00    +0.000 HD
ENDBRANCH  11  12
ENDBRANCH   9  11
ENDBRANCH   8   9
ENDBRANCH   6   8
ENDBRANCH   1   2
BRANCH   1  21
ATOM     19  N   UNL     1      49.121   6.522  12.953  0.00  0.00    +0.000 NA
ATOM     20  C   UNL     1      47.949   6.768  13.423  0.00  0.00    +0.000 C 
ATOM     21  N   UNL     1      47.594   7.812  14.225  0.00  0.00    +0.000 N 
ATOM     22  H   UNL     1      49.796   7.207  13.288  0.00  0.00    +0.000 HD
ATOM     23  H   UNL     1      46.790   7.657  14.838  0.00  0.00    +0.000 HD
BRANCH  20  24
ATOM     24  C   UNL     1      46.880   5.853  13.022  0.00  0.00    +0.000 A 
ATOM     25  C   UNL     1      46.960   4.502  13.335  0.00  0.00    +0.000 A 
ATOM     26  S   UNL     1      45.603   3.600  12.837  0.00  0.00    +0.000 S 
ATOM     27  C   UNL     1      44.842   4.989  12.217  0.00  0.00    +0.000 A 
ATOM     28  N   UNL     1      43.589   4.923  11.689  0.00  0.00    +0.000 NA
ATOM     29  C   UNL     1      43.123   6.059  11.296  0.00  0.00    +0.000 A 
ATOM     30  N   UNL     1      43.798   7.250  11.357  0.00  0.00    +0.000 N 
ATOM     31  C   UNL     1      45.083   7.357  11.840  0.00  0.00    +0.000 A 
ATOM     32  O   UNL     1      45.692   8.421  11.808  0.00  0.00    +0.000 OA
ATOM     33  C   UNL     1      45.635   6.116  12.343  0.00  0.00    +0.000 A 
ATOM     34  H   UNL     1      43.386   8.101  10.999  0.00  0.00    +0.000 HD
ENDBRANCH  20  24
ENDBRANCH   1  21
TORSDOF 7
ENDMDL
