MODEL 1
REMARK VINA RESULT:    -8.087      0.000      0.000
REMARK INTER + INTRA:         -10.521
REMARK INTER:                  -9.978
REMARK INTRA:                  -0.543
REMARK UNBOUND:                -0.543
REMARK  Name = 
REMARK  4 active torsions:
REMARK  status: ('A' for Active; 'I' for Inactive)
REMARK    1  A    between atoms: C_2  and  C_4
REMARK    2  A    between atoms: C_8  and  C_9
REMARK    3  A    between atoms: C_9  and  S_10
REMARK    4  A    between atoms: S_10  and  C_11
REMARK                            x       y       z     vdW  Elec       q    Type
REMARK                         _______ _______ _______ _____ _____    ______ ____
ROOT
ATOM      1  S   UNL     1      43.395   3.889  11.487  0.00  0.00    +0.000 S 
ENDROOT
BRANCH   1   2
ATOM      2  C   UNL     1      44.834   4.393  12.427  0.00  0.00    +0.000 A 
ATOM      3  C   UNL     1      45.739   3.547  13.048  0.00  0.00    +0.000 A 
ATOM      4  C   UNL     1      46.868   4.123  13.617  0.00  0.00    +0.000 A 
ATOM      5  N   UNL     1      47.140   5.449  13.604  0.00  0.00    +0.000 NA
ATOM      6  C   UNL     1      46.258   6.282  13.018  0.00  0.00    +0.000 A 
ATOM      7  N   UNL     1      46.547   7.625  12.915  0.00  0.00    +0.000 N 
ATOM      8  C   UNL     1      45.522   8.668  12.980  0.00  0.00    +0.000 C 
ATOM      9  C   UNL     1      45.884   9.759  11.962  0.00  0.00    +0.000 C 
ATOM     10  O   UNL     1      47.196  10.294  12.212  0.00  0.00    +0.000 OA
ATOM     11  C   UNL     1      48.189   9.248  12.156  0.00  0.00    +0.000 C 
ATOM     12  C   UNL     1      47.903   8.125  13.175  0.00  0.00    +0.000 C 
ATOM     13  C   UNL     1      45.104   5.764  12.428  0.00  0.00    +0.000 A 
ENDBRANCH   1   2
BRANCH   1  14
ATOM     14  C   UNL     1      43.974   2.477  10.498  0.00  0.00    +0.000 C 
BRANCH  14  19
ATOM     15  C   UNL     1      46.563   2.416   7.674  0.00  0.00    +0.000 A 
ATOM     16  C   UNL     1      46.638   3.770   7.335  0.00  0.00    +0.000 A 
ATOM     17  C   UNL     1      45.891   4.705   8.050  0.00  0.00    +0.000 A 
ATOM     18  C   UNL     1      45.048   4.291   9.084  0.00  0.00    +0.000 A 
ATOM     19  C   UNL     1      44.921   2.932   9.407  0.00  0.00    +0.000 A 
ATOM     20  C   UNL     1      45.703   2.000   8.703  0.00  0.00    +0.000 A 
BRANCH  15  22
ATOM     21  N   UNL     1      48.432   1.815   6.226  0.00  0.00    +0.000 N 
ATOM     22  C   UNL     1      47.349   1.385   6.943  0.00  0.00    +0.000 C 
ATOM     23  O   UNL     1      47.064   0.195   7.000  0.00  0.00    +0.000 OA
ATOM     24  H   UNL     1      49.014   1.097   5.815  0.00  0.00    +0.000 HD
ATOM     25  H   UNL     1      48.841   2.729   6.361  0.00  0.00    +0.000 HD
ENDBRANCH  15  22
ENDBRANCH  14  19
ENDBRANCH   1  14
TORSDOF 4
ENDMDL
MODEL 2
REMARK VINA RESULT:    -7.550      2.694      3.909
REMARK INTER + INTRA:          -9.859
REMARK INTER:                  -9.434
REMARK INTRA:                  -0.424
REMARK UNBOUND:                -0.543
REMARK  Name = 
REMARK  4 active torsions:
REMARK  status: ('A' for Active; 'I' for Inactive)
REMARK    1  A    between atoms: C_2  and  C_4
REMARK    2  A    between atoms: C_8  and  C_9
REMARK    3  A    between atoms: C_9  and  S_10
REMARK    4  A    between atoms: S_10  and  C_11
REMARK                            x       y       z     vdW  Elec       q    Type
REMARK                         _______ _______ _______ _____ _____    ______ ____
ROOT
ATOM      1  S   UNL     1      44.819   5.290  11.525  0.00  0.00    +0.000 S 
ENDROOT
BRANCH   1   2
ATOM      2  C   UNL     1      46.352   5.793  12.302  0.00  0.00    +0.000 A 
ATOM      3  C   UNL     1      47.217   6.771  11.841  0.00  0.00    +0.000 A 
ATOM      4  C   UNL     1      48.289   7.114  12.654  0.00  0.00    +0.000 A 
ATOM      5  N   UNL     1      48.542   6.559  13.863  0.00  0.00    +0.000 NA
ATOM      6  C   UNL     1      47.716   5.594  14.313  0.00  0.00    +0.000 A 
ATOM      7  N   UNL     1      47.899   5.069  15.575  0.00  0.00    +0.000 N 
ATOM      8  C   UNL     1      47.609   3.673  15.906  0.00  0.00    +0.000 C 
ATOM      9  C   UNL     1      46.984   3.633  17.308  0.00  0.00    +0.000 C 
ATOM     10  O   UNL     1      47.851   4.238  18.284  0.00  0.00    +0.000 OA
ATOM     11  C   UNL     1      48.134   5.608  17.932  0.00  0.00    +0.000 C 
ATOM     12  C   UNL     1      48.790   5.724  16.540  0.00  0.00    +0.000 C 
ATOM     13  C   UNL     1      46.621   5.205  13.542  0.00  0.00    +0.000 A 
ENDBRANCH   1   2
BRANCH   1  14
ATOM     14  C   UNL     1      45.155   5.414   9.742  0.00  0.00    +0.000 C 
BRANCH  14  19
ATOM     15  C   UNL     1      46.489   2.596   7.513  0.00  0.00    +0.000 A 
ATOM     16  C   UNL     1      45.835   1.483   8.049  0.00  0.00    +0.000 A 
ATOM     17  C   UNL     1      44.927   1.650   9.095  0.00  0.00    +0.000 A 
ATOM     18  C   UNL     1      44.692   2.920   9.627  0.00  0.00    +0.000 A 
ATOM     19  C   UNL     1      45.375   4.043   9.136  0.00  0.00    +0.000 A 
ATOM     20  C   UNL     1      46.263   3.869   8.060  0.00  0.00    +0.000 A 
BRANCH  15  22
ATOM     21  N   UNL     1      47.246   3.242   5.286  0.00  0.00    +0.000 N 
ATOM     22  C   UNL     1      47.458   2.464   6.392  0.00  0.00    +0.000 C 
ATOM     23  O   UNL     1      48.425   1.716   6.459  0.00  0.00    +0.000 OA
ATOM     24  H   UNL     1      47.962   3.216   4.573  0.00  0.00    +0.000 HD
ATOM     25  H   UNL     1      46.625   4.039   5.296  0.00  0.00    +0.000 HD
ENDBRANCH  15  22
ENDBRANCH  14  19
ENDBRANCH   1  14
TORSDOF 4
ENDMDL
MODEL 3
REMARK VINA RESULT:    -6.591      3.266      4.826
REMARK INTER + INTRA:          -8.676
REMARK INTER:                  -8.064
REMARK INTRA:                  -0.612
REMARK UNBOUND:                -0.543
REMARK  Name = 
REMARK  4 active torsions:
REMARK  status: ('A' for Active; 'I' for Inactive)
REMARK    1  A    between atoms: C_2  and  C_4
REMARK    2  A    between atoms: C_8  and  C_9
REMARK    3  A    between atoms: C_9  and  S_10
REMARK    4  A    between atoms: S_10  and  C_11
REMARK                            x       y       z     vdW  Elec       q    Type
REMARK                         _______ _______ _______ _____ _____    ______ ____
ROOT
ATOM      1  S   UNL     1      45.744   7.479  12.075  0.00  0.00    +0.000 S 
ENDROOT
BRANCH   1   2
ATOM      2  C   UNL     1      47.337   7.261  12.862  0.00  0.00    +0.000 A 
ATOM      3  C   UNL     1      48.511   7.911  12.520  0.00  0.00    +0.000 A 
ATOM      4  C   UNL     1      49.617   7.710  13.336  0.00  0.00    +0.000 A 
ATOM      5  N   UNL     1      49.622   6.924  14.438  0.00  0.00    +0.000 NA
ATOM      6  C   UNL     1      48.490   6.273  14.771  0.00  0.00    +0.000 A 
ATOM      7  N   UNL     1      48.440   5.534  15.933  0.00  0.00    +0.000 N 
ATOM      8  C   UNL     1      47.650   4.308  16.064  0.00  0.00    +0.000 C 
ATOM      9  C   UNL     1      47.025   4.290  17.466  0.00  0.00    +0.000 C 
ATOM     10  O   UNL     1      48.033   4.379  18.489  0.00  0.00    +0.000 OA
ATOM     11  C   UNL     1      48.807   5.586  18.334  0.00  0.00    +0.000 C 
ATOM     12  C   UNL     1      49.489   5.662  16.952  0.00  0.00    +0.000 C 
ATOM     13  C   UNL     1      47.345   6.435  13.991  0.00  0.00    +0.000 A 
ENDBRANCH   1   2
BRANCH   1  14
ATOM     14  C   UNL     1      44.656   6.290  12.918  0.00  0.00    +0.000 C 
BRANCH  14  19
ATOM     15  C   UNL     1      44.620   3.917   9.910  0.00  0.00    +0.000 A 
ATOM     16  C   UNL     1      44.015   2.782  10.457  0.00  0.00    +0.000 A 
ATOM     17  C   UNL     1      43.575   2.801  11.780  0.00  0.00    +0.000 A 
ATOM     18  C   UNL     1      43.763   3.940  12.568  0.00  0.00    +0.000 A 
ATOM     19  C   UNL     1      44.412   5.072  12.052  0.00  0.00    +0.000 A 
ATOM     20  C   UNL     1      44.822   5.054  10.708  0.00  0.00    +0.000 A 
BRANCH  15  22
ATOM     21  N   UNL     1      44.422   3.167   7.597  0.00  0.00    +0.000 N 
ATOM     22  C   UNL     1      45.096   3.943   8.500  0.00  0.00    +0.000 C 
ATOM     23  O   UNL     1      46.032   4.650   8.148  0.00  0.00    +0.000 OA
ATOM     24  H   UNL     1      44.691   3.267   6.627  0.00  0.00    +0.000 HD
ATOM     25  H   UNL     1      43.509   2.781   7.791  0.00  0.00    +0.000 HD
ENDBRANCH  15  22
ENDBRANCH  14  19
ENDBRANCH   1  14
TORSDOF 4
ENDMDL
MODEL 4
REMARK VINA RESULT:    -6.556      3.938      7.709
REMARK INTER + INTRA:          -8.633
REMARK INTER:                  -7.970
REMARK INTRA:                  -0.663
REMARK UNBOUND:                -0.543
REMARK  Name = 
REMARK  4 active torsions:
REMARK  status: ('A' for Active; 'I' for Inactive)
REMARK    1  A    between atoms: C_2  and  C_4
REMARK    2  A    between atoms: C_8  and  C_9
REMARK    3  A    between atoms: C_9  and  S_10
REMARK    4  A    between atoms: S_10  and  C_11
REMARK                            x       y       z     vdW  Elec       q    Type
REMARK                         _______ _______ _______ _____ _____    ______ ____
ROOT
ATOM      1  S   UNL     1      49.329   7.288  13.853  0.00  0.00    +0.000 S 
ENDROOT
BRANCH   1   2
ATOM      2  C   UNL     1      47.655   7.691  13.361  0.00  0.00    +0.000 A 
ATOM      3  C   UNL     1      47.160   8.963  13.121  0.00  0.00    +0.000 A 
ATOM      4  C   UNL     1      45.870   9.063  12.617  0.00  0.00    +0.000 A 
ATOM      5  N   UNL     1      45.069   8.006  12.346  0.00  0.00    +0.000 NA
ATOM      6  C   UNL     1      45.534   6.766  12.593  0.00  0.00    +0.000 A 
ATOM      7  N   UNL     1      44.775   5.668  12.249  0.00  0.00    +0.000 N 
ATOM      8  C   UNL     1      44.780   4.423  13.021  0.00  0.00    +0.000 C 
ATOM      9  C   UNL     1      44.719   3.248  12.034  0.00  0.00    +0.000 C 
ATOM     10  O   UNL     1      43.561   3.338  11.185  0.00  0.00    +0.000 OA
ATOM     11  C   UNL     1      43.570   4.576  10.444  0.00  0.00    +0.000 C 
ATOM     12  C   UNL     1      43.604   5.806  11.375  0.00  0.00    +0.000 C 
ATOM     13  C   UNL     1      46.824   6.598  13.099  0.00  0.00    +0.000 A 
ENDBRANCH   1   2
BRANCH   1  14
ATOM     14  C   UNL     1      49.485   7.973  15.529  0.00  0.00    +0.000 C 
BRANCH  14  19
ATOM     15  C   UNL     1      47.889   4.891  17.153  0.00  0.00    +0.000 A 
ATOM     16  C   UNL     1      47.696   5.335  18.465  0.00  0.00    +0.000 A 
ATOM     17  C   UNL     1      48.036   6.643  18.810  0.00  0.00    +0.000 A 
ATOM     18  C   UNL     1      48.593   7.501  17.859  0.00  0.00    +0.000 A 
ATOM     19  C   UNL     1      48.840   7.059  16.550  0.00  0.00    +0.000 A 
ATOM     20  C   UNL     1      48.464   5.750  16.203  0.00  0.00    +0.000 A 
BRANCH  15  22
ATOM     21  N   UNL     1      46.943   2.705  17.677  0.00  0.00    +0.000 N 
ATOM     22  C   UNL     1      47.532   3.507  16.739  0.00  0.00    +0.000 C 
ATOM     23  O   UNL     1      47.728   3.104  15.599  0.00  0.00    +0.000 OA
ATOM     24  H   UNL     1      46.617   1.802  17.358  0.00  0.00    +0.000 HD
ATOM     25  H   UNL     1      46.540   3.073  18.528  0.00  0.00    +0.000 HD
ENDBRANCH  15  22
ENDBRANCH  14  19
ENDBRANCH   1  14
TORSDOF 4
ENDMDL
MODEL 5
REMARK VINA RESULT:    -6.309      5.138      8.141
REMARK INTER + INTRA:          -8.328
REMARK INTER:                  -7.872
REMARK INTRA:                  -0.456
REMARK UNBOUND:                -0.543
REMARK  Name = 
REMARK  4 active torsions:
REMARK  status: ('A' for Active; 'I' for Inactive)
REMARK    1  A    between atoms: C_2  and  C_4
REMARK    2  A    between atoms: C_8  and  C_9
REMARK    3  A    between atoms: C_9  and  S_10
REMARK    4  A    between atoms: S_10  and  C_11
REMARK                            x       y       z     vdW  Elec       q    Type
REMARK                         _______ _______ _______ _____ _____    ______ ____
ROOT
ATOM      1  S   UNL     1      47.607   3.738  16.309  0.00  0.00    +0.000 S 
ENDROOT
BRANCH   1   2
ATOM      2  C   UNL     1      47.341   4.893  14.966  0.00  0.00    +0.000 A 
ATOM      3  C   UNL     1      48.102   6.018  14.696  0.00  0.00    +0.000 A 
ATOM      4  C   UNL     1      47.821   6.717  13.529  0.00  0.00    +0.000 A 
ATOM      5  N   UNL     1      46.857   6.373  12.643  0.00  0.00    +0.000 NA
ATOM      6  C   UNL     1      46.099   5.290  12.905  0.00  0.00    +0.000 A 
ATOM      7  N   UNL     1      45.166   4.866  11.983  0.00  0.00    +0.000 N 
ATOM      8  C   UNL     1      43.896   4.244  12.363  0.00  0.00    +0.000 C 
ATOM      9  C   UNL     1      43.600   3.114  11.366  0.00  0.00    +0.000 C 
ATOM     10  O   UNL     1      43.563   3.606  10.014  0.00  0.00    +0.000 OA
ATOM     11  C   UNL     1      44.819   4.225   9.666  0.00  0.00    +0.000 C 
ATOM     12  C   UNL     1      45.171   5.391  10.613  0.00  0.00    +0.000 C 
ATOM     13  C   UNL     1      46.333   4.545  14.062  0.00  0.00    +0.000 A 
ENDBRANCH   1   2
BRANCH   1  14
ATOM     14  C   UNL     1      48.357   4.742  17.626  0.00  0.00    +0.000 C 
BRANCH  14  19
ATOM     15  C   UNL     1      51.792   3.047  17.723  0.00  0.00    +0.000 A 
ATOM     16  C   UNL     1      52.649   4.151  17.706  0.00  0.00    +0.000 A 
ATOM     17  C   UNL     1      52.117   5.441  17.715  0.00  0.00    +0.000 A 
ATOM     18  C   UNL     1      50.733   5.632  17.710  0.00  0.00    +0.000 A 
ATOM     19  C   UNL     1      49.857   4.537  17.677  0.00  0.00    +0.000 A 
ATOM     20  C   UNL     1      50.402   3.242  17.702  0.00  0.00    +0.000 A 
BRANCH  15  22
ATOM     21  N   UNL     1      51.402   0.641  17.814  0.00  0.00    +0.000 N 
ATOM     22  C   UNL     1      52.316   1.654  17.723  0.00  0.00    +0.000 C 
ATOM     23  O   UNL     1      53.513   1.416  17.617  0.00  0.00    +0.000 OA
ATOM     24  H   UNL     1      51.761  -0.300  17.715  0.00  0.00    +0.000 HD
ATOM     25  H   UNL     1      50.416   0.785  17.647  0.00  0.00    +0.000 HD
ENDBRANCH  15  22
ENDBRANCH  14  19
ENDBRANCH   1  14
TORSDOF 4
ENDMDL
MODEL 6
REMARK VINA RESULT:    -6.002      5.202      8.541
REMARK INTER + INTRA:          -7.949
REMARK INTER:                  -7.573
REMARK INTRA:                  -0.376
REMARK UNBOUND:                -0.543
REMARK  Name = 
REMARK  4 active torsions:
REMARK  status: ('A' for Active; 'I' for Inactive)
REMARK    1  A    between atoms: C_2  and  C_4
REMARK    2  A    between atoms: C_8  and  C_9
REMARK    3  A    between atoms: C_9  and  S_10
REMARK    4  A    between atoms: S_10  and  C_11
REMARK                            x       y       z     vdW  Elec       q    Type
REMARK                         _______ _______ _______ _____ _____    ______ ____
ROOT
ATOM      1  S   UNL     1      47.568   4.143  16.494  0.00  0.00    +0.000 S 
ENDROOT
BRANCH   1   2
ATOM      2  C   UNL     1      47.346   5.081  14.985  0.00  0.00    +0.000 A 
ATOM      3  C   UNL     1      48.156   6.113  14.540  0.00  0.00    +0.000 A 
ATOM      4  C   UNL     1      47.899   6.630  13.276  0.00  0.00    +0.000 A 
ATOM      5  N   UNL     1      46.915   6.194  12.456  0.00  0.00    +0.000 NA
ATOM      6  C   UNL     1      46.110   5.202  12.886  0.00  0.00    +0.000 A 
ATOM      7  N   UNL     1      45.153   4.680  12.042  0.00  0.00    +0.000 N 
ATOM      8  C   UNL     1      43.859   4.185  12.515  0.00  0.00    +0.000 C 
ATOM      9  C   UNL     1      43.505   2.927  11.709  0.00  0.00    +0.000 C 
ATOM     10  O   UNL     1      43.482   3.199  10.296  0.00  0.00    +0.000 OA
ATOM     11  C   UNL     1      44.762   3.697   9.855  0.00  0.00    +0.000 C 
ATOM     12  C   UNL     1      45.173   4.982  10.606  0.00  0.00    +0.000 C 
ATOM     13  C   UNL     1      46.317   4.641  14.147  0.00  0.00    +0.000 A 
ENDBRANCH   1   2
BRANCH   1  14
ATOM     14  C   UNL     1      49.027   4.891  17.280  0.00  0.00    +0.000 C 
BRANCH  14  19
ATOM     15  C   UNL     1      52.476   3.352  17.927  0.00  0.00    +0.000 A 
ATOM     16  C   UNL     1      52.215   1.992  17.738  0.00  0.00    +0.000 A 
ATOM     17  C   UNL     1      50.939   1.579  17.353  0.00  0.00    +0.000 A 
ATOM     18  C   UNL     1      49.916   2.515  17.185  0.00  0.00    +0.000 A 
ATOM     19  C   UNL     1      50.146   3.880  17.418  0.00  0.00    +0.000 A 
ATOM     20  C   UNL     1      51.443   4.289  17.773  0.00  0.00    +0.000 A 
BRANCH  15  22
ATOM     21  N   UNL     1      54.612   2.977  19.043  0.00  0.00    +0.000 N 
ATOM     22  C   UNL     1      53.825   3.837  18.329  0.00  0.00    +0.000 C 
ATOM     23  O   UNL     1      54.232   4.947  18.011  0.00  0.00    +0.000 OA
ATOM     24  H   UNL     1      55.560   3.280  19.226  0.00  0.00    +0.000 HD
ATOM     25  H   UNL     1      54.419   1.987  19.100  0.00  0.00    +0.000 HD
ENDBRANCH  15  22
ENDBRANCH  14  19
ENDBRANCH   1  14
TORSDOF 4
ENDMDL
MODEL 7
REMARK VINA RESULT:    -5.950      4.094      7.540
REMARK INTER + INTRA:          -7.885
REMARK INTER:                  -7.215
REMARK INTRA:                  -0.670
REMARK UNBOUND:                -0.543
REMARK  Name = 
REMARK  4 active torsions:
REMARK  status: ('A' for Active; 'I' for Inactive)
REMARK    1  A    between atoms: C_2  and  C_4
REMARK    2  A    between atoms: C_8  and  C_9
REMARK    3  A    between atoms: C_9  and  S_10
REMARK    4  A    between atoms: S_10  and  C_11
REMARK                            x       y       z     vdW  Elec       q    Type
REMARK                         _______ _______ _______ _____ _____    ______ ____
ROOT
ATOM      1  S   UNL     1      48.811   8.427  15.796  0.00  0.00    +0.000 S 
ENDROOT
BRANCH   1   2
ATOM      2  C   UNL     1      48.618   8.129  14.041  0.00  0.00    +0.000 A 
ATOM      3  C   UNL     1      49.587   8.321  13.070  0.00  0.00    +0.000 A 
ATOM      4  C   UNL     1      49.291   7.906  11.778  0.00  0.00    +0.000 A 
ATOM      5  N   UNL     1      48.124   7.329  11.407  0.00  0.00    +0.000 NA
ATOM      6  C   UNL     1      47.168   7.154  12.340  0.00  0.00    +0.000 A 
ATOM      7  N   UNL     1      46.003   6.494  12.013  0.00  0.00    +0.000 N 
ATOM      8  C   UNL     1      44.706   6.825  12.606  0.00  0.00    +0.000 C 
ATOM      9  C   UNL     1      43.942   5.515  12.848  0.00  0.00    +0.000 C 
ATOM     10  O   UNL     1      43.788   4.767  11.628  0.00  0.00    +0.000 OA
ATOM     11  C   UNL     1      45.077   4.462  11.055  0.00  0.00    +0.000 C 
ATOM     12  C   UNL     1      45.894   5.738  10.760  0.00  0.00    +0.000 C 
ATOM     13  C   UNL     1      47.405   7.549  13.657  0.00  0.00    +0.000 A 
ENDBRANCH   1   2
BRANCH   1  14
ATOM     14  C   UNL     1      50.365   7.587  16.228  0.00  0.00    +0.000 C 
BRANCH  14  19
ATOM     15  C   UNL     1      48.632   4.227  16.854  0.00  0.00    +0.000 A 
ATOM     16  C   UNL     1      49.636   3.515  17.516  0.00  0.00    +0.000 A 
ATOM     17  C   UNL     1      50.851   4.135  17.804  0.00  0.00    +0.000 A 
ATOM     18  C   UNL     1      51.079   5.456  17.408  0.00  0.00    +0.000 A 
ATOM     19  C   UNL     1      50.103   6.171  16.698  0.00  0.00    +0.000 A 
ATOM     20  C   UNL     1      48.869   5.548  16.442  0.00  0.00    +0.000 A 
BRANCH  15  22
ATOM     21  N   UNL     1      46.948   3.566  15.218  0.00  0.00    +0.000 N 
ATOM     22  C   UNL     1      47.318   3.607  16.535  0.00  0.00    +0.000 C 
ATOM     23  O   UNL     1      46.605   3.123  17.405  0.00  0.00    +0.000 OA
ATOM     24  H   UNL     1      46.100   3.057  15.004  0.00  0.00    +0.000 HD
ATOM     25  H   UNL     1      47.605   3.716  14.466  0.00  0.00    +0.000 HD
ENDBRANCH  15  22
ENDBRANCH  14  19
ENDBRANCH   1  14
TORSDOF 4
ENDMDL
MODEL 8
REMARK VINA RESULT:    -5.821      4.489      6.609
REMARK INTER + INTRA:          -7.725
REMARK INTER:                  -6.905
REMARK INTRA:                  -0.820
REMARK UNBOUND:                -0.543
REMARK  Name = 
REMARK  4 active torsions:
REMARK  status: ('A' for Active; 'I' for Inactive)
REMARK    1  A    between atoms: C_2  and  C_4
REMARK    2  A    between atoms: C_8  and  C_9
REMARK    3  A    between atoms: C_9  and  S_10
REMARK    4  A    between atoms: S_10  and  C_11
REMARK                            x       y       z     vdW  Elec       q    Type
REMARK                         _______ _______ _______ _____ _____    ______ ____
ROOT
ATOM      1  S   UNL     1      49.592   7.647  12.672  0.00  0.00    +0.000 S 
ENDROOT
BRANCH   1   2
ATOM      2  C   UNL     1      49.305   8.060  14.390  0.00  0.00    +0.000 A 
ATOM      3  C   UNL     1      48.843   9.275  14.870  0.00  0.00    +0.000 A 
ATOM      4  C   UNL     1      48.554   9.360  16.226  0.00  0.00    +0.000 A 
ATOM      5  N   UNL     1      48.694   8.339  17.105  0.00  0.00    +0.000 NA
ATOM      6  C   UNL     1      49.159   7.158  16.651  0.00  0.00    +0.000 A 
ATOM      7  N   UNL     1      49.232   6.077  17.503  0.00  0.00    +0.000 N 
ATOM      8  C   UNL     1      50.277   5.056  17.406  0.00  0.00    +0.000 C 
ATOM      9  C   UNL     1      49.638   3.689  17.693  0.00  0.00    +0.000 C 
ATOM     10  O   UNL     1      49.000   3.671  18.983  0.00  0.00    +0.000 OA
ATOM     11  C   UNL     1      47.985   4.692  19.061  0.00  0.00    +0.000 C 
ATOM     12  C   UNL     1      48.561   6.101  18.808  0.00  0.00    +0.000 C 
ATOM     13  C   UNL     1      49.466   7.009  15.298  0.00  0.00    +0.000 A 
ENDBRANCH   1   2
BRANCH   1  14
ATOM     14  C   UNL     1      48.073   8.171  11.821  0.00  0.00    +0.000 C 
BRANCH  14  19
ATOM     15  C   UNL     1      46.058   5.081  12.859  0.00  0.00    +0.000 A 
ATOM     16  C   UNL     1      44.761   5.599  12.914  0.00  0.00    +0.000 A 
ATOM     17  C   UNL     1      44.532   6.931  12.568  0.00  0.00    +0.000 A 
ATOM     18  C   UNL     1      45.596   7.755  12.195  0.00  0.00    +0.000 A 
ATOM     19  C   UNL     1      46.912   7.267  12.181  0.00  0.00    +0.000 A 
ATOM     20  C   UNL     1      47.128   5.915  12.499  0.00  0.00    +0.000 A 
BRANCH  15  22
ATOM     21  N   UNL     1      45.501   2.711  12.711  0.00  0.00    +0.000 N 
ATOM     22  C   UNL     1      46.345   3.664  13.210  0.00  0.00    +0.000 C 
ATOM     23  O   UNL     1      47.313   3.352  13.893  0.00  0.00    +0.000 OA
ATOM     24  H   UNL     1      45.762   1.747  12.875  0.00  0.00    +0.000 HD
ATOM     25  H   UNL     1      44.860   2.899  11.953  0.00  0.00    +0.000 HD
ENDBRANCH  15  22
ENDBRANCH  14  19
ENDBRANCH   1  14
TORSDOF 4
ENDMDL
MODEL 9
REMARK VINA RESULT:    -5.648      4.521      6.569
REMARK INTER + INTRA:          -7.512
REMARK INTER:                  -7.140
REMARK INTRA:                  -0.372
REMARK UNBOUND:                -0.543
REMARK  Name = 
REMARK  4 active torsions:
REMARK  status: ('A' for Active; 'I' for Inactive)
REMARK    1  A    between atoms: C_2  and  C_4
REMARK    2  A    between atoms: C_8  and  C_9
REMARK    3  A    between atoms: C_9  and  S_10
REMARK    4  A    between atoms: S_10  and  C_11
REMARK                            x       y       z     vdW  Elec       q    Type
REMARK                         _______ _______ _______ _____ _____    ______ ____
ROOT
ATOM      1  S   UNL     1      48.106   8.586  13.327  0.00  0.00    +0.000 S 
ENDROOT
BRANCH   1   2
ATOM      2  C   UNL     1      49.462   7.932  14.297  0.00  0.00    +0.000 A 
ATOM      3  C   UNL     1      50.780   8.357  14.246  0.00  0.00    +0.000 A 
ATOM      4  C   UNL     1      51.663   7.820  15.173  0.00  0.00    +0.000 A 
ATOM      5  N   UNL     1      51.322   6.913  16.119  0.00  0.00    +0.000 NA
ATOM      6  C   UNL     1      50.047   6.480  16.167  0.00  0.00    +0.000 A 
ATOM      7  N   UNL     1      49.651   5.622  17.170  0.00  0.00    +0.000 N 
ATOM      8  C   UNL     1      48.635   4.586  16.977  0.00  0.00    +0.000 C 
ATOM      9  C   UNL     1      47.775   4.516  18.248  0.00  0.00    +0.000 C 
ATOM     10  O   UNL     1      48.581   4.254  19.410  0.00  0.00    +0.000 OA
ATOM     11  C   UNL     1      49.584   5.279  19.574  0.00  0.00    +0.000 C 
ATOM     12  C   UNL     1      50.505   5.389  18.341  0.00  0.00    +0.000 C 
ATOM     13  C   UNL     1      49.112   6.983  15.262  0.00  0.00    +0.000 A 
ENDBRANCH   1   2
BRANCH   1  14
ATOM     14  C   UNL     1      47.915   7.401  11.961  0.00  0.00    +0.000 C 
BRANCH  14  19
ATOM     15  C   UNL     1      44.629   5.431  11.888  0.00  0.00    +0.000 A 
ATOM     16  C   UNL     1      44.885   4.427  12.827  0.00  0.00    +0.000 A 
ATOM     17  C   UNL     1      46.096   4.417  13.518  0.00  0.00    +0.000 A 
ATOM     18  C   UNL     1      47.066   5.388  13.254  0.00  0.00    +0.000 A 
ATOM     19  C   UNL     1      46.848   6.374  12.280  0.00  0.00    +0.000 A 
ATOM     20  C   UNL     1      45.611   6.396  11.614  0.00  0.00    +0.000 A 
BRANCH  15  22
ATOM     21  N   UNL     1      42.329   6.216  11.684  0.00  0.00    +0.000 N 
ATOM     22  C   UNL     1      43.347   5.485  11.136  0.00  0.00    +0.000 C 
ATOM     23  O   UNL     1      43.209   4.926  10.055  0.00  0.00    +0.000 OA
ATOM     24  H   UNL     1      41.497   6.326  11.119  0.00  0.00    +0.000 HD
ATOM     25  H   UNL     1      42.482   6.886  12.425  0.00  0.00    +0.000 HD
ENDBRANCH  15  22
ENDBRANCH  14  19
ENDBRANCH   1  14
TORSDOF 4
ENDMDL
