MODEL 1
REMARK VINA RESULT:    -8.782      0.000      0.000
REMARK INTER + INTRA:         -12.652
REMARK INTER:                 -12.376
REMARK INTRA:                  -0.277
REMARK UNBOUND:                -0.277
REMARK  Name = 
REMARK  8 active torsions:
REMARK  status: ('A' for Active; 'I' for Inactive)
REMARK    1  A    between atoms: C_1  and  C_2
REMARK    2  A    between atoms: C_2  and  N_10
REMARK    3  A    between atoms: C_3  and  C_4
REMARK    4  A    between atoms: N_10  and  C_11
REMARK    5  A    between atoms: C_11  and  C_12
REMARK    6  A    between atoms: C_15  and  C_16
REMARK    7  A    between atoms: C_16  and  N_17
REMARK    8  A    between atoms: C_18  and  C_20
REMARK                            x       y       z     vdW  Elec       q    Type
REMARK                         _______ _______ _______ _____ _____    ______ ____
ROOT
ATOM      1  C   UNL     1      44.661   5.663  12.069  0.00  0.00    +0.000 A 
ATOM      2  C   UNL     1      45.131   4.799  13.068  0.00  0.00    +0.000 A 
ATOM      3  C   UNL     1      46.348   5.047  13.713  0.00  0.00    +0.000 A 
ATOM      4  C   UNL     1      47.121   6.166  13.376  0.00  0.00    +0.000 A 
ATOM      5  C   UNL     1      46.670   7.009  12.352  0.00  0.00    +0.000 A 
ATOM      6  C   UNL     1      45.451   6.763  11.710  0.00  0.00    +0.000 A 
ENDROOT
BRANCH   1   7
ATOM      7  C   UNL     1      43.349   5.396  11.363  0.00  0.00    +0.000 C 
BRANCH   7   8
ATOM      8  N   UNL     1      43.559   5.066   9.965  0.00  0.00    +0.000 N 
ATOM      9  H   UNL     1      43.261   5.768   9.292  0.00  0.00    +0.000 HD
BRANCH   8  11
ATOM     10  C   UNL     1      44.172   2.671  10.146  0.00  0.00    +0.000 C 
ATOM     11  C   UNL     1      44.310   4.012   9.456  0.00  0.00    +0.000 C 
ATOM     12  C   UNL     1      45.120   4.197   8.392  0.00  0.00    +0.000 C 
BRANCH  12  13
ATOM     13  C   UNL     1      45.931   3.174   7.722  0.00  0.00    +0.000 A 
ATOM     14  C   UNL     1      46.605   3.477   6.534  0.00  0.00    +0.000 A 
ATOM     15  C   UNL     1      47.402   2.515   5.909  0.00  0.00    +0.000 A 
ATOM     16  C   UNL     1      47.529   1.243   6.468  0.00  0.00    +0.000 A 
ATOM     17  C   UNL     1      46.857   0.933   7.649  0.00  0.00    +0.000 A 
ATOM     18  C   UNL     1      46.059   1.895   8.275  0.00  0.00    +0.000 A 
ENDBRANCH  12  13
ENDBRANCH   8  11
ENDBRANCH   7   8
ENDBRANCH   1   7
BRANCH   4  19
ATOM     19  C   UNL     1      48.409   6.460  14.101  0.00  0.00    +0.000 C 
BRANCH  19  20
ATOM     20  N   UNL     1      48.182   6.786  15.490  0.00  0.00    +0.000 N 
ATOM     21  C   UNL     1      49.205   6.672  16.409  0.00  0.00    +0.000 C 
ATOM     22  O   UNL     1      50.321   6.268  16.108  0.00  0.00    +0.000 OA
ATOM     23  H   UNL     1      47.325   7.260  15.736  0.00  0.00    +0.000 HD
BRANCH  21  24
ATOM     24  C   UNL     1      48.839   7.025  17.783  0.00  0.00    +0.000 A 
ATOM     25  C   UNL     1      48.469   8.319  18.120  0.00  0.00    +0.000 A 
ATOM     26  S   UNL     1      47.975   8.480  19.740  0.00  0.00    +0.000 S 
ATOM     27  C   UNL     1      48.238   6.827  20.035  0.00  0.00    +0.000 A 
ATOM     28  N   UNL     1      47.979   6.331  21.258  0.00  0.00    +0.000 NA
ATOM     29  C   UNL     1      48.248   5.031  21.364  0.00  0.00    +0.000 A 
ATOM     30  N   UNL     1      48.744   4.236  20.415  0.00  0.00    +0.000 NA
ATOM     31  C   UNL     1      48.975   4.789  19.212  0.00  0.00    +0.000 A 
ATOM     32 CL   UNL     1      49.731   3.776  18.080  0.00  0.00    +0.000 Cl
ATOM     33  C   UNL     1      48.723   6.134  18.932  0.00  0.00    +0.000 A 
ENDBRANCH  21  24
ENDBRANCH  19  20
ENDBRANCH   4  19
TORSDOF 7
ENDMDL
MODEL 2
REMARK VINA RESULT:    -8.703      1.450      1.901
REMARK INTER + INTRA:         -12.541
REMARK INTER:                 -12.239
REMARK INTRA:                  -0.303
REMARK UNBOUND:                -0.277
REMARK  Name = 
REMARK  8 active torsions:
REMARK  status: ('A' for Active; 'I' for Inactive)
REMARK    1  A    between atoms: C_1  and  C_2
REMARK    2  A    between atoms: C_2  and  N_10
REMARK    3  A    between atoms: C_3  and  C_4
REMARK    4  A    between atoms: N_10  and  C_11
REMARK    5  A    between atoms: C_11  and  C_12
REMARK    6  A    between atoms: C_15  and  C_16
REMARK    7  A    between atoms: C_16  and  N_17
REMARK    8  A    between atoms: C_18  and  C_20
REMARK                            x       y       z     vdW  Elec       q    Type
REMARK                         _______ _______ _______ _____ _____    ______ ____
ROOT
ATOM      1  C   UNL     1      44.580   5.648  12.317  0.00  0.00    +0.000 A 
ATOM      2  C   UNL     1      45.066   4.713  13.240  0.00  0.00    +0.000 A 
ATOM      3  C   UNL     1      46.275   4.933  13.912  0.00  0.00    +0.000 A 
ATOM      4  C   UNL     1      47.022   6.094  13.677  0.00  0.00    +0.000 A 
ATOM      5  C   UNL     1      46.555   7.012  12.726  0.00  0.00    +0.000 A 
ATOM      6  C   UNL     1      45.345   6.794  12.058  0.00  0.00    +0.000 A 
ENDROOT
BRANCH   1   7
ATOM      7  C   UNL     1      43.277   5.414  11.583  0.00  0.00    +0.000 C 
BRANCH   7   8
ATOM      8  N   UNL     1      43.507   5.124  10.178  0.00  0.00    +0.000 N 
ATOM      9  H   UNL     1      43.258   5.863   9.525  0.00  0.00    +0.000 HD
BRANCH   8  11
ATOM     10  C   UNL     1      44.021   2.702  10.298  0.00  0.00    +0.000 C 
ATOM     11  C   UNL     1      44.222   4.056   9.649  0.00  0.00    +0.000 C 
ATOM     12  C   UNL     1      45.054   4.237   8.601  0.00  0.00    +0.000 C 
BRANCH  12  13
ATOM     13  C   UNL     1      45.832   3.202   7.912  0.00  0.00    +0.000 A 
ATOM     14  C   UNL     1      46.597   3.528   6.788  0.00  0.00    +0.000 A 
ATOM     15  C   UNL     1      47.364   2.552   6.147  0.00  0.00    +0.000 A 
ATOM     16  C   UNL     1      47.367   1.242   6.626  0.00  0.00    +0.000 A 
ATOM     17  C   UNL     1      46.603   0.909   7.744  0.00  0.00    +0.000 A 
ATOM     18  C   UNL     1      45.836   1.885   8.385  0.00  0.00    +0.000 A 
ENDBRANCH  12  13
ENDBRANCH   8  11
ENDBRANCH   7   8
ENDBRANCH   1   7
BRANCH   4  19
ATOM     19  C   UNL     1      48.300   6.354  14.432  0.00  0.00    +0.000 C 
BRANCH  19  20
ATOM     20  N   UNL     1      48.134   6.157  15.853  0.00  0.00    +0.000 N 
ATOM     21  C   UNL     1      49.236   6.091  16.682  0.00  0.00    +0.000 C 
ATOM     22  O   UNL     1      50.383   6.161  16.260  0.00  0.00    +0.000 OA
ATOM     23  H   UNL     1      47.207   6.246  16.244  0.00  0.00    +0.000 HD
BRANCH  21  24
ATOM     24  C   UNL     1      48.929   5.879  18.098  0.00  0.00    +0.000 A 
ATOM     25  C   UNL     1      49.172   4.659  18.712  0.00  0.00    +0.000 A 
ATOM     26  S   UNL     1      48.851   4.668  20.383  0.00  0.00    +0.000 S 
ATOM     27  C   UNL     1      48.382   6.301  20.333  0.00  0.00    +0.000 A 
ATOM     28  N   UNL     1      48.003   6.909  21.471  0.00  0.00    +0.000 NA
ATOM     29  C   UNL     1      47.638   8.178  21.292  0.00  0.00    +0.000 A 
ATOM     30  N   UNL     1      47.604   8.845  20.137  0.00  0.00    +0.000 NA
ATOM     31  C   UNL     1      48.002   8.185  19.036  0.00  0.00    +0.000 A 
ATOM     32 CL   UNL     1      47.812   9.029  17.577  0.00  0.00    +0.000 Cl
ATOM     33  C   UNL     1      48.435   6.858  19.060  0.00  0.00    +0.000 A 
ENDBRANCH  21  24
ENDBRANCH  19  20
ENDBRANCH   4  19
TORSDOF 7
ENDMDL
MODEL 3
REMARK VINA RESULT:    -8.324      2.103      2.367
REMARK INTER + INTRA:         -12.007
REMARK INTER:                 -11.347
REMARK INTRA:                  -0.660
REMARK UNBOUND:                -0.277
REMARK  Name = 
REMARK  8 active torsions:
REMARK  status: ('A' for Active; 'I' for Inactive)
REMARK    1  A    between atoms: C_1  and  C_2
REMARK    2  A    between atoms: C_2  and  N_10
REMARK    3  A    between atoms: C_3  and  C_4
REMARK    4  A    between atoms: N_10  and  C_11
REMARK    5  A    between atoms: C_11  and  C_12
REMARK    6  A    between atoms: C_15  and  C_16
REMARK    7  A    between atoms: C_16  and  N_17
REMARK    8  A    between atoms: C_18  and  C_20
REMARK                            x       y       z     vdW  Elec       q    Type
REMARK                         _______ _______ _______ _____ _____    ______ ____
ROOT
ATOM      1  C   UNL     1      45.076   7.079  11.488  0.00  0.00    +0.000 A 
ATOM      2  C   UNL     1      46.289   6.533  11.045  0.00  0.00    +0.000 A 
ATOM      3  C   UNL     1      47.499   6.903  11.642  0.00  0.00    +0.000 A 
ATOM      4  C   UNL     1      47.524   7.825  12.697  0.00  0.00    +0.000 A 
ATOM      5  C   UNL     1      46.316   8.399  13.115  0.00  0.00    +0.000 A 
ATOM      6  C   UNL     1      45.106   8.026  12.521  0.00  0.00    +0.000 A 
ENDROOT
BRANCH   1   7
ATOM      7  C   UNL     1      43.764   6.688  10.843  0.00  0.00    +0.000 C 
BRANCH   7   8
ATOM      8  N   UNL     1      43.562   5.250  10.884  0.00  0.00    +0.000 N 
ATOM      9  H   UNL     1      42.639   4.938  11.174  0.00  0.00    +0.000 HD
BRANCH   8  11
ATOM     10  C   UNL     1      44.959   3.255  11.346  0.00  0.00    +0.000 C 
ATOM     11  C   UNL     1      44.404   4.270  10.369  0.00  0.00    +0.000 C 
ATOM     12  C   UNL     1      44.701   4.242   9.053  0.00  0.00    +0.000 C 
BRANCH  12  13
ATOM     13  C   UNL     1      45.530   3.247   8.364  0.00  0.00    +0.000 A 
ATOM     14  C   UNL     1      46.470   3.653   7.410  0.00  0.00    +0.000 A 
ATOM     15  C   UNL     1      47.284   2.712   6.775  0.00  0.00    +0.000 A 
ATOM     16  C   UNL     1      47.161   1.358   7.089  0.00  0.00    +0.000 A 
ATOM     17  C   UNL     1      46.224   0.947   8.035  0.00  0.00    +0.000 A 
ATOM     18  C   UNL     1      45.409   1.887   8.671  0.00  0.00    +0.000 A 
ENDBRANCH  12  13
ENDBRANCH   8  11
ENDBRANCH   7   8
ENDBRANCH   1   7
BRANCH   4  19
ATOM     19  C   UNL     1      48.821   8.189  13.371  0.00  0.00    +0.000 C 
BRANCH  19  20
ATOM     20  N   UNL     1      49.152   7.271  14.436  0.00  0.00    +0.000 N 
ATOM     21  C   UNL     1      48.828   7.572  15.743  0.00  0.00    +0.000 C 
ATOM     22  O   UNL     1      48.286   8.622  16.063  0.00  0.00    +0.000 OA
ATOM     23  H   UNL     1      49.458   6.341  14.187  0.00  0.00    +0.000 HD
BRANCH  21  24
ATOM     24  C   UNL     1      49.227   6.560  16.724  0.00  0.00    +0.000 A 
ATOM     25  C   UNL     1      50.211   6.822  17.667  0.00  0.00    +0.000 A 
ATOM     26  S   UNL     1      50.435   5.554  18.779  0.00  0.00    +0.000 S 
ATOM     27  C   UNL     1      49.224   4.622  18.034  0.00  0.00    +0.000 A 
ATOM     28  N   UNL     1      48.926   3.412  18.538  0.00  0.00    +0.000 NA
ATOM     29  C   UNL     1      47.978   2.777  17.851  0.00  0.00    +0.000 A 
ATOM     30  N   UNL     1      47.353   3.214  16.756  0.00  0.00    +0.000 NA
ATOM     31  C   UNL     1      47.690   4.434  16.306  0.00  0.00    +0.000 A 
ATOM     32 CL   UNL     1      46.972   4.890  14.838  0.00  0.00    +0.000 Cl
ATOM     33  C   UNL     1      48.650   5.237  16.927  0.00  0.00    +0.000 A 
ENDBRANCH  21  24
ENDBRANCH  19  20
ENDBRANCH   4  19
TORSDOF 7
ENDMDL
MODEL 4
REMARK VINA RESULT:    -8.234      4.365      6.181
REMARK INTER + INTRA:         -11.880
REMARK INTER:                 -11.279
REMARK INTRA:                  -0.601
REMARK UNBOUND:                -0.277
REMARK  Name = 
REMARK  8 active torsions:
REMARK  status: ('A' for Active; 'I' for Inactive)
REMARK    1  A    between atoms: C_1  and  C_2
REMARK    2  A    between atoms: C_2  and  N_10
REMARK    3  A    between atoms: C_3  and  C_4
REMARK    4  A    between atoms: N_10  and  C_11
REMARK    5  A    between atoms: C_11  and  C_12
REMARK    6  A    between atoms: C_15  and  C_16
REMARK    7  A    between atoms: C_16  and  N_17
REMARK    8  A    between atoms: C_18  and  C_20
REMARK                            x       y       z     vdW  Elec       q    Type
REMARK                         _______ _______ _______ _____ _____    ______ ____
ROOT
ATOM      1  C   UNL     1      44.903   5.765  12.034  0.00  0.00    +0.000 A 
ATOM      2  C   UNL     1      45.402   5.068  13.142  0.00  0.00    +0.000 A 
ATOM      3  C   UNL     1      46.695   5.312  13.618  0.00  0.00    +0.000 A 
ATOM      4  C   UNL     1      47.517   6.262  12.998  0.00  0.00    +0.000 A 
ATOM      5  C   UNL     1      47.034   6.933  11.866  0.00  0.00    +0.000 A 
ATOM      6  C   UNL     1      45.739   6.691  11.394  0.00  0.00    +0.000 A 
ENDROOT
BRANCH   1   7
ATOM      7  C   UNL     1      43.508   5.501  11.510  0.00  0.00    +0.000 C 
BRANCH   7   8
ATOM      8  N   UNL     1      43.538   5.059  10.127  0.00  0.00    +0.000 N 
ATOM      9  H   UNL     1      43.102   5.682   9.451  0.00  0.00    +0.000 HD
BRANCH   8  11
ATOM     10  C   UNL     1      44.126   2.655  10.269  0.00  0.00    +0.000 C 
ATOM     11  C   UNL     1      44.275   4.005   9.599  0.00  0.00    +0.000 C 
ATOM     12  C   UNL     1      45.084   4.198   8.535  0.00  0.00    +0.000 C 
BRANCH  12  13
ATOM     13  C   UNL     1      45.880   3.176   7.846  0.00  0.00    +0.000 A 
ATOM     14  C   UNL     1      46.584   3.500   6.681  0.00  0.00    +0.000 A 
ATOM     15  C   UNL     1      47.369   2.539   6.039  0.00  0.00    +0.000 A 
ATOM     16  C   UNL     1      47.453   1.247   6.558  0.00  0.00    +0.000 A 
ATOM     17  C   UNL     1      46.750   0.916   7.716  0.00  0.00    +0.000 A 
ATOM     18  C   UNL     1      45.966   1.877   8.359  0.00  0.00    +0.000 A 
ENDBRANCH  12  13
ENDBRANCH   8  11
ENDBRANCH   7   8
ENDBRANCH   1   7
BRANCH   4  19
ATOM     19  C   UNL     1      48.893   6.560  13.537  0.00  0.00    +0.000 C 
BRANCH  19  20
ATOM     20  N   UNL     1      49.669   7.360  12.619  0.00  0.00    +0.000 N 
ATOM     21  C   UNL     1      50.585   8.277  13.095  0.00  0.00    +0.000 C 
ATOM     22  O   UNL     1      50.758   8.476  14.290  0.00  0.00    +0.000 OA
ATOM     23  H   UNL     1      49.657   7.113  11.640  0.00  0.00    +0.000 HD
BRANCH  21  24
ATOM     24  C   UNL     1      51.298   9.029  12.060  0.00  0.00    +0.000 A 
ATOM     25  C   UNL     1      52.628   8.764  11.765  0.00  0.00    +0.000 A 
ATOM     26  S   UNL     1      53.223   9.672  10.455  0.00  0.00    +0.000 S 
ATOM     27  C   UNL     1      51.722  10.441  10.243  0.00  0.00    +0.000 A 
ATOM     28  N   UNL     1      51.579  11.338   9.253  0.00  0.00    +0.000 NA
ATOM     29  C   UNL     1      50.365  11.884   9.209  0.00  0.00    +0.000 A 
ATOM     30  N   UNL     1      49.347  11.638  10.035  0.00  0.00    +0.000 NA
ATOM     31  C   UNL     1      49.549  10.725  11.001  0.00  0.00    +0.000 A 
ATOM     32 CL   UNL     1      48.276  10.546  12.108  0.00  0.00    +0.000 Cl
ATOM     33  C   UNL     1      50.759  10.048  11.166  0.00  0.00    +0.000 A 
ENDBRANCH  21  24
ENDBRANCH  19  20
ENDBRANCH   4  19
TORSDOF 7
ENDMDL
MODEL 5
REMARK VINA RESULT:    -8.049      1.217      1.853
REMARK INTER + INTRA:         -11.620
REMARK INTER:                 -10.712
REMARK INTRA:                  -0.907
REMARK UNBOUND:                -0.277
REMARK  Name = 
REMARK  8 active torsions:
REMARK  status: ('A' for Active; 'I' for Inactive)
REMARK    1  A    between atoms: C_1  and  C_2
REMARK    2  A    between atoms: C_2  and  N_10
REMARK    3  A    between atoms: C_3  and  C_4
REMARK    4  A    between atoms: N_10  and  C_11
REMARK    5  A    between atoms: C_11  and  C_12
REMARK    6  A    between atoms: C_15  and  C_16
REMARK    7  A    between atoms: C_16  and  N_17
REMARK    8  A    between atoms: C_18  and  C_20
REMARK                            x       y       z     vdW  Elec       q    Type
REMARK                         _______ _______ _______ _____ _____    ______ ____
ROOT
ATOM      1  C   UNL     1      44.993   5.952  12.465  0.00  0.00    +0.000 A 
ATOM      2  C   UNL     1      44.899   7.346  12.356  0.00  0.00    +0.000 A 
ATOM      3  C   UNL     1      45.916   8.172  12.849  0.00  0.00    +0.000 A 
ATOM      4  C   UNL     1      47.050   7.622  13.460  0.00  0.00    +0.000 A 
ATOM      5  C   UNL     1      47.127   6.230  13.604  0.00  0.00    +0.000 A 
ATOM      6  C   UNL     1      46.113   5.405  13.107  0.00  0.00    +0.000 A 
ENDROOT
BRANCH   1   7
ATOM      7  C   UNL     1      43.894   5.054  11.940  0.00  0.00    +0.000 C 
BRANCH   7   8
ATOM      8  N   UNL     1      43.832   5.088  10.489  0.00  0.00    +0.000 N 
ATOM      9  H   UNL     1      43.073   5.633  10.088  0.00  0.00    +0.000 HD
BRANCH   8  11
ATOM     10  C   UNL     1      45.987   5.566   9.360  0.00  0.00    +0.000 C 
ATOM     11  C   UNL     1      44.805   4.649   9.598  0.00  0.00    +0.000 C 
ATOM     12  C   UNL     1      44.683   3.454   8.982  0.00  0.00    +0.000 C 
BRANCH  12  13
ATOM     13  C   UNL     1      45.647   2.844   8.059  0.00  0.00    +0.000 A 
ATOM     14  C   UNL     1      46.136   1.556   8.303  0.00  0.00    +0.000 A 
ATOM     15  C   UNL     1      47.030   0.958   7.411  0.00  0.00    +0.000 A 
ATOM     16  C   UNL     1      47.441   1.647   6.270  0.00  0.00    +0.000 A 
ATOM     17  C   UNL     1      46.961   2.933   6.023  0.00  0.00    +0.000 A 
ATOM     18  C   UNL     1      46.067   3.530   6.915  0.00  0.00    +0.000 A 
ENDBRANCH  12  13
ENDBRANCH   8  11
ENDBRANCH   7   8
ENDBRANCH   1   7
BRANCH   4  19
ATOM     19  C   UNL     1      48.167   8.508  13.951  0.00  0.00    +0.000 C 
BRANCH  19  20
ATOM     20  N   UNL     1      48.098   8.721  15.377  0.00  0.00    +0.000 N 
ATOM     21  C   UNL     1      49.041   8.159  16.213  0.00  0.00    +0.000 C 
ATOM     22  O   UNL     1      49.943   7.441  15.801  0.00  0.00    +0.000 OA
ATOM     23  H   UNL     1      47.461   9.423  15.726  0.00  0.00    +0.000 HD
BRANCH  21  24
ATOM     24  C   UNL     1      48.850   8.445  17.637  0.00  0.00    +0.000 A 
ATOM     25  C   UNL     1      49.119   9.701  18.160  0.00  0.00    +0.000 A 
ATOM     26  S   UNL     1      48.720   9.847  19.808  0.00  0.00    +0.000 S 
ATOM     27  C   UNL     1      48.173   8.238  19.867  0.00  0.00    +0.000 A 
ATOM     28  N   UNL     1      47.684   7.755  21.022  0.00  0.00    +0.000 NA
ATOM     29  C   UNL     1      47.313   6.478  20.940  0.00  0.00    +0.000 A 
ATOM     30  N   UNL     1      47.402   5.685  19.872  0.00  0.00    +0.000 NA
ATOM     31  C   UNL     1      47.892   6.229  18.745  0.00  0.00    +0.000 A 
ATOM     32 CL   UNL     1      48.114   5.149  17.455  0.00  0.00    +0.000 Cl
ATOM     33  C   UNL     1      48.305   7.560  18.660  0.00  0.00    +0.000 A 
ENDBRANCH  21  24
ENDBRANCH  19  20
ENDBRANCH   4  19
TORSDOF 7
ENDMDL
MODEL 6
REMARK VINA RESULT:    -7.317      3.734     10.017
REMARK INTER + INTRA:         -10.588
REMARK INTER:                  -9.015
REMARK INTRA:                  -1.573
REMARK UNBOUND:                -0.277
REMARK  Name = 
REMARK  8 active torsions:
REMARK  status: ('A' for Active; 'I' for Inactive)
REMARK    1  A    between atoms: C_1  and  C_2
REMARK    2  A    between atoms: C_2  and  N_10
REMARK    3  A    between atoms: C_3  and  C_4
REMARK    4  A    between atoms: N_10  and  C_11
REMARK    5  A    between atoms: C_11  and  C_12
REMARK    6  A    between atoms: C_15  and  C_16
REMARK    7  A    between atoms: C_16  and  N_17
REMARK    8  A    between atoms: C_18  and  C_20
REMARK                            x       y       z     vdW  Elec       q    Type
REMARK                         _______ _______ _______ _____ _____    ______ ____
ROOT
ATOM      1  C   UNL     1      50.247   5.169  17.394  0.00  0.00    +0.000 A 
ATOM      2  C   UNL     1      51.062   6.173  16.853  0.00  0.00    +0.000 A 
ATOM      3  C   UNL     1      50.557   7.071  15.905  0.00  0.00    +0.000 A 
ATOM      4  C   UNL     1      49.225   6.986  15.479  0.00  0.00    +0.000 A 
ATOM      5  C   UNL     1      48.420   5.960  15.991  0.00  0.00    +0.000 A 
ATOM      6  C   UNL     1      48.924   5.065  16.941  0.00  0.00    +0.000 A 
ENDROOT
BRANCH   1   7
ATOM      7  C   UNL     1      50.789   4.191  18.414  0.00  0.00    +0.000 C 
BRANCH   7   8
ATOM      8  N   UNL     1      50.350   4.531  19.756  0.00  0.00    +0.000 N 
ATOM      9  H   UNL     1      50.556   3.845  20.478  0.00  0.00    +0.000 HD
BRANCH   8  11
ATOM     10  C   UNL     1      50.921   6.760  20.678  0.00  0.00    +0.000 C 
ATOM     11  C   UNL     1      49.885   5.765  20.199  0.00  0.00    +0.000 C 
ATOM     12  C   UNL     1      48.565   6.042  20.195  0.00  0.00    +0.000 C 
BRANCH  12  13
ATOM     13  C   UNL     1      47.936   7.309  20.586  0.00  0.00    +0.000 A 
ATOM     14  C   UNL     1      47.648   8.279  19.621  0.00  0.00    +0.000 A 
ATOM     15  C   UNL     1      47.021   9.474  19.984  0.00  0.00    +0.000 A 
ATOM     16  C   UNL     1      46.681   9.705  21.317  0.00  0.00    +0.000 A 
ATOM     17  C   UNL     1      46.969   8.744  22.285  0.00  0.00    +0.000 A 
ATOM     18  C   UNL     1      47.596   7.549  21.922  0.00  0.00    +0.000 A 
ENDBRANCH  12  13
ENDBRANCH   8  11
ENDBRANCH   7   8
ENDBRANCH   1   7
BRANCH   4  19
ATOM     19  C   UNL     1      48.667   7.980  14.493  0.00  0.00    +0.000 C 
BRANCH  19  20
ATOM     20  N   UNL     1      47.381   7.569  13.984  0.00  0.00    +0.000 N 
ATOM     21  C   UNL     1      47.279   6.972  12.744  0.00  0.00    +0.000 C 
ATOM     22  O   UNL     1      48.247   6.794  12.016  0.00  0.00    +0.000 OA
ATOM     23  H   UNL     1      46.594   7.565  14.617  0.00  0.00    +0.000 HD
BRANCH  21  24
ATOM     24  C   UNL     1      45.916   6.612  12.344  0.00  0.00    +0.000 A 
ATOM     25  C   UNL     1      45.053   7.555  11.805  0.00  0.00    +0.000 A 
ATOM     26  S   UNL     1      43.565   6.899  11.304  0.00  0.00    +0.000 S 
ATOM     27  C   UNL     1      44.033   5.340  11.790  0.00  0.00    +0.000 A 
ATOM     28  N   UNL     1      43.184   4.314  11.608  0.00  0.00    +0.000 NA
ATOM     29  C   UNL     1      43.661   3.152  12.051  0.00  0.00    +0.000 A 
ATOM     30  N   UNL     1      44.838   2.944  12.643  0.00  0.00    +0.000 NA
ATOM     31  C   UNL     1      45.647   4.007  12.789  0.00  0.00    +0.000 A 
ATOM     32 CL   UNL     1      47.070   3.722  13.667  0.00  0.00    +0.000 Cl
ATOM     33  C   UNL     1      45.302   5.290  12.357  0.00  0.00    +0.000 A 
ENDBRANCH  21  24
ENDBRANCH  19  20
ENDBRANCH   4  19
TORSDOF 7
ENDMDL
MODEL 7
REMARK VINA RESULT:    -7.279      4.685      6.484
REMARK INTER + INTRA:         -10.534
REMARK INTER:                 -10.390
REMARK INTRA:                  -0.144
REMARK UNBOUND:                -0.277
REMARK  Name = 
REMARK  8 active torsions:
REMARK  status: ('A' for Active; 'I' for Inactive)
REMARK    1  A    between atoms: C_1  and  C_2
REMARK    2  A    between atoms: C_2  and  N_10
REMARK    3  A    between atoms: C_3  and  C_4
REMARK    4  A    between atoms: N_10  and  C_11
REMARK    5  A    between atoms: C_11  and  C_12
REMARK    6  A    between atoms: C_15  and  C_16
REMARK    7  A    between atoms: C_16  and  N_17
REMARK    8  A    between atoms: C_18  and  C_20
REMARK                            x       y       z     vdW  Elec       q    Type
REMARK                         _______ _______ _______ _____ _____    ______ ____
ROOT
ATOM      1  C   UNL     1      44.284   6.037  12.463  0.00  0.00    +0.000 A 
ATOM      2  C   UNL     1      45.098   5.244  13.283  0.00  0.00    +0.000 A 
ATOM      3  C   UNL     1      46.477   5.473  13.358  0.00  0.00    +0.000 A 
ATOM      4  C   UNL     1      47.071   6.503  12.617  0.00  0.00    +0.000 A 
ATOM      5  C   UNL     1      46.264   7.272  11.768  0.00  0.00    +0.000 A 
ATOM      6  C   UNL     1      44.885   7.046  11.697  0.00  0.00    +0.000 A 
ENDROOT
BRANCH   1   7
ATOM      7  C   UNL     1      42.793   5.791  12.373  0.00  0.00    +0.000 C 
BRANCH   7   8
ATOM      8  N   UNL     1      42.505   4.536  11.700  0.00  0.00    +0.000 N 
ATOM      9  H   UNL     1      41.521   4.309  11.585  0.00  0.00    +0.000 HD
BRANCH   8  11
ATOM     10  C   UNL     1      43.651   2.342  11.567  0.00  0.00    +0.000 C 
ATOM     11  C   UNL     1      43.404   3.729  11.011  0.00  0.00    +0.000 C 
ATOM     12  C   UNL     1      44.018   4.180   9.897  0.00  0.00    +0.000 C 
BRANCH  12  13
ATOM     13  C   UNL     1      44.947   3.429   9.046  0.00  0.00    +0.000 A 
ATOM     14  C   UNL     1      45.030   2.037   9.152  0.00  0.00    +0.000 A 
ATOM     15  C   UNL     1      45.891   1.314   8.322  0.00  0.00    +0.000 A 
ATOM     16  C   UNL     1      46.676   1.982   7.381  0.00  0.00    +0.000 A 
ATOM     17  C   UNL     1      46.602   3.370   7.274  0.00  0.00    +0.000 A 
ATOM     18  C   UNL     1      45.741   4.092   8.104  0.00  0.00    +0.000 A 
ENDBRANCH  12  13
ENDBRANCH   8  11
ENDBRANCH   7   8
ENDBRANCH   1   7
BRANCH   4  19
ATOM     19  C   UNL     1      48.548   6.780  12.731  0.00  0.00    +0.000 C 
BRANCH  19  20
ATOM     20  N   UNL     1      48.969   7.836  11.840  0.00  0.00    +0.000 N 
ATOM     21  C   UNL     1      49.490   9.009  12.344  0.00  0.00    +0.000 C 
ATOM     22  O   UNL     1      49.589   9.224  13.546  0.00  0.00    +0.000 OA
ATOM     23  H   UNL     1      49.038   7.629  10.854  0.00  0.00    +0.000 HD
BRANCH  21  24
ATOM     24  C   UNL     1      49.868  10.000  11.333  0.00  0.00    +0.000 A 
ATOM     25  C   UNL     1      49.009  11.031  10.980  0.00  0.00    +0.000 A 
ATOM     26  S   UNL     1      49.693  12.130   9.875  0.00  0.00    +0.000 S 
ATOM     27  C   UNL     1      51.153  11.261   9.840  0.00  0.00    +0.000 A 
ATOM     28  N   UNL     1      52.164  11.710   9.076  0.00  0.00    +0.000 NA
ATOM     29  C   UNL     1      53.241  10.928   9.119  0.00  0.00    +0.000 A 
ATOM     30  N   UNL     1      53.379   9.792   9.805  0.00  0.00    +0.000 NA
ATOM     31  C   UNL     1      52.336   9.400  10.556  0.00  0.00    +0.000 A 
ATOM     32 CL   UNL     1      52.507   7.885  11.300  0.00  0.00    +0.000 Cl
ATOM     33  C   UNL     1      51.144  10.121  10.636  0.00  0.00    +0.000 A 
ENDBRANCH  21  24
ENDBRANCH  19  20
ENDBRANCH   4  19
TORSDOF 7
ENDMDL
MODEL 8
REMARK VINA RESULT:    -6.437      6.367      8.811
REMARK INTER + INTRA:          -9.348
REMARK INTER:                  -7.967
REMARK INTRA:                  -1.382
REMARK UNBOUND:                -0.277
REMARK  Name = 
REMARK  8 active torsions:
REMARK  status: ('A' for Active; 'I' for Inactive)
REMARK    1  A    between atoms: C_1  and  C_2
REMARK    2  A    between atoms: C_2  and  N_10
REMARK    3  A    between atoms: C_3  and  C_4
REMARK    4  A    between atoms: N_10  and  C_11
REMARK    5  A    between atoms: C_11  and  C_12
REMARK    6  A    between atoms: C_15  and  C_16
REMARK    7  A    between atoms: C_16  and  N_17
REMARK    8  A    between atoms: C_18  and  C_20
REMARK                            x       y       z     vdW  Elec       q    Type
REMARK                         _______ _______ _______ _____ _____    ______ ____
ROOT
ATOM      1  C   UNL     1      47.876   9.313  12.694  0.00  0.00    +0.000 A 
ATOM      2  C   UNL     1      49.214   8.900  12.746  0.00  0.00    +0.000 A 
ATOM      3  C   UNL     1      50.191   9.539  11.975  0.00  0.00    +0.000 A 
ATOM      4  C   UNL     1      49.852  10.608  11.136  0.00  0.00    +0.000 A 
ATOM      5  C   UNL     1      48.509  10.998  11.053  0.00  0.00    +0.000 A 
ATOM      6  C   UNL     1      47.533  10.361  11.828  0.00  0.00    +0.000 A 
ENDROOT
BRANCH   1   7
ATOM      7  C   UNL     1      46.814   8.622  13.520  0.00  0.00    +0.000 C 
BRANCH   7   8
ATOM      8  N   UNL     1      45.812   7.995  12.676  0.00  0.00    +0.000 N 
ATOM      9  H   UNL     1      45.057   8.598  12.358  0.00  0.00    +0.000 HD
BRANCH   8  11
ATOM     10  C   UNL     1      46.878   5.757  12.662  0.00  0.00    +0.000 C 
ATOM     11  C   UNL     1      45.882   6.740  12.082  0.00  0.00    +0.000 C 
ATOM     12  C   UNL     1      45.090   6.431  11.034  0.00  0.00    +0.000 C 
BRANCH  12  13
ATOM     13  C   UNL     1      45.021   5.140  10.340  0.00  0.00    +0.000 A 
ATOM     14  C   UNL     1      44.304   4.077  10.900  0.00  0.00    +0.000 A 
ATOM     15  C   UNL     1      44.210   2.856  10.228  0.00  0.00    +0.000 A 
ATOM     16  C   UNL     1      44.835   2.690   8.993  0.00  0.00    +0.000 A 
ATOM     17  C   UNL     1      45.556   3.743   8.431  0.00  0.00    +0.000 A 
ATOM     18  C   UNL     1      45.650   4.965   9.102  0.00  0.00    +0.000 A 
ENDBRANCH  12  13
ENDBRANCH   8  11
ENDBRANCH   7   8
ENDBRANCH   1   7
BRANCH   4  19
ATOM     19  C   UNL     1      50.911  11.327  10.339  0.00  0.00    +0.000 C 
BRANCH  19  20
ATOM     20  N   UNL     1      51.344  10.555   9.199  0.00  0.00    +0.000 N 
ATOM     21  C   UNL     1      52.685  10.297   8.999  0.00  0.00    +0.000 C 
ATOM     22  O   UNL     1      53.557  10.727   9.742  0.00  0.00    +0.000 OA
ATOM     23  H   UNL     1      50.645  10.066   8.659  0.00  0.00    +0.000 HD
BRANCH  21  24
ATOM     24  C   UNL     1      52.988   9.511   7.801  0.00  0.00    +0.000 A 
ATOM     25  C   UNL     1      53.308  10.126   6.599  0.00  0.00    +0.000 A 
ATOM     26  S   UNL     1      53.737   9.029   5.372  0.00  0.00    +0.000 S 
ATOM     27  C   UNL     1      53.511   7.703   6.411  0.00  0.00    +0.000 A 
ATOM     28  N   UNL     1      53.738   6.462   5.948  0.00  0.00    +0.000 NA
ATOM     29  C   UNL     1      53.502   5.513   6.853  0.00  0.00    +0.000 A 
ATOM     30  N   UNL     1      53.064   5.688   8.101  0.00  0.00    +0.000 NA
ATOM     31  C   UNL     1      52.863   6.953   8.507  0.00  0.00    +0.000 A 
ATOM     32 CL   UNL     1      52.179   7.119  10.051  0.00  0.00    +0.000 Cl
ATOM     33  C   UNL     1      53.086   8.060   7.686  0.00  0.00    +0.000 A 
ENDBRANCH  21  24
ENDBRANCH  19  20
ENDBRANCH   4  19
TORSDOF 7
ENDMDL
MODEL 9
REMARK VINA RESULT:    -6.392      1.979      2.908
REMARK INTER + INTRA:          -9.284
REMARK INTER:                  -8.519
REMARK INTRA:                  -0.765
REMARK UNBOUND:                -0.277
REMARK  Name = 
REMARK  8 active torsions:
REMARK  status: ('A' for Active; 'I' for Inactive)
REMARK    1  A    between atoms: C_1  and  C_2
REMARK    2  A    between atoms: C_2  and  N_10
REMARK    3  A    between atoms: C_3  and  C_4
REMARK    4  A    between atoms: N_10  and  C_11
REMARK    5  A    between atoms: C_11  and  C_12
REMARK    6  A    between atoms: C_15  and  C_16
REMARK    7  A    between atoms: C_16  and  N_17
REMARK    8  A    between atoms: C_18  and  C_20
REMARK                            x       y       z     vdW  Elec       q    Type
REMARK                         _______ _______ _______ _____ _____    ______ ____
ROOT
ATOM      1  C   UNL     1      46.907   8.019  13.096  0.00  0.00    +0.000 A 
ATOM      2  C   UNL     1      47.212   8.787  14.227  0.00  0.00    +0.000 A 
ATOM      3  C   UNL     1      48.370   8.534  14.972  0.00  0.00    +0.000 A 
ATOM      4  C   UNL     1      49.249   7.509  14.600  0.00  0.00    +0.000 A 
ATOM      5  C   UNL     1      48.925   6.716  13.491  0.00  0.00    +0.000 A 
ATOM      6  C   UNL     1      47.770   6.972  12.744  0.00  0.00    +0.000 A 
ENDROOT
BRANCH   1   7
ATOM      7  C   UNL     1      45.653   8.283  12.290  0.00  0.00    +0.000 C 
BRANCH   7   8
ATOM      8  N   UNL     1      44.637   7.278  12.548  0.00  0.00    +0.000 N 
ATOM      9  H   UNL     1      43.994   7.481  13.309  0.00  0.00    +0.000 HD
BRANCH   8  11
ATOM     10  C   UNL     1      42.864   5.744  11.743  0.00  0.00    +0.000 C 
ATOM     11  C   UNL     1      44.311   6.190  11.746  0.00  0.00    +0.000 C 
ATOM     12  C   UNL     1      45.258   5.572  11.009  0.00  0.00    +0.000 C 
BRANCH  12  13
ATOM     13  C   UNL     1      45.054   4.449  10.087  0.00  0.00    +0.000 A 
ATOM     14  C   UNL     1      45.411   4.571   8.740  0.00  0.00    +0.000 A 
ATOM     15  C   UNL     1      45.248   3.494   7.865  0.00  0.00    +0.000 A 
ATOM     16  C   UNL     1      44.723   2.289   8.332  0.00  0.00    +0.000 A 
ATOM     17  C   UNL     1      44.361   2.162   9.673  0.00  0.00    +0.000 A 
ATOM     18  C   UNL     1      44.525   3.239  10.548  0.00  0.00    +0.000 A 
ENDBRANCH  12  13
ENDBRANCH   8  11
ENDBRANCH   7   8
ENDBRANCH   1   7
BRANCH   4  19
ATOM     19  C   UNL     1      50.519   7.265  15.374  0.00  0.00    +0.000 C 
BRANCH  19  20
ATOM     20  N   UNL     1      50.360   7.563  16.778  0.00  0.00    +0.000 N 
ATOM     21  C   UNL     1      50.544   6.578  17.726  0.00  0.00    +0.000 C 
ATOM     22  O   UNL     1      50.813   5.421  17.431  0.00  0.00    +0.000 OA
ATOM     23  H   UNL     1      50.288   8.532  17.056  0.00  0.00    +0.000 HD
BRANCH  21  24
ATOM     24  C   UNL     1      50.343   7.011  19.111  0.00  0.00    +0.000 A 
ATOM     25  C   UNL     1      51.280   7.802  19.761  0.00  0.00    +0.000 A 
ATOM     26  S   UNL     1      50.794   8.284  21.318  0.00  0.00    +0.000 S 
ATOM     27  C   UNL     1      49.318   7.453  21.167  0.00  0.00    +0.000 A 
ATOM     28  N   UNL     1      48.437   7.494  22.181  0.00  0.00    +0.000 NA
ATOM     29  C   UNL     1      47.334   6.785  21.947  0.00  0.00    +0.000 A 
ATOM     30  N   UNL     1      47.062   6.065  20.857  0.00  0.00    +0.000 NA
ATOM     31  C   UNL     1      47.979   6.070  19.875  0.00  0.00    +0.000 A 
ATOM     32 CL   UNL     1      47.652   5.035  18.571  0.00  0.00    +0.000 Cl
ATOM     33  C   UNL     1      49.177   6.782  19.958  0.00  0.00    +0.000 A 
ENDBRANCH  21  24
ENDBRANCH  19  20
ENDBRANCH   4  19
TORSDOF 7
ENDMDL
