MODEL 1
REMARK VINA RESULT:    -8.195      0.000      0.000
REMARK INTER + INTRA:         -12.461
REMARK INTER:                 -11.549
REMARK INTRA:                  -0.912
REMARK UNBOUND:                -0.912
REMARK  Name = 
REMARK  7 active torsions:
REMARK  status: ('A' for Active; 'I' for Inactive)
REMARK    1  A    between atoms: C_2  and  C_4
REMARK    2  A    between atoms: C_7  and  C_8
REMARK    3  A    between atoms: C_8  and  C_9
REMARK    4  A    between atoms: C_9  and  O_10
REMARK    5  A    between atoms: O_10  and  C_11
REMARK    6  A    between atoms: C_15  and  O_16
REMARK    7  A    between atoms: O_16  and  C_17
REMARK                            x       y       z     vdW  Elec       q    Type
REMARK                         _______ _______ _______ _____ _____    ______ ____
ROOT
ATOM      1  C   UNL     1      44.117   3.301  11.955  0.00  0.00    +0.000 C 
ENDROOT
BRANCH   1   2
ATOM      2  C   UNL     1      43.595   3.583  10.545  0.00  0.00    +0.000 C 
BRANCH   2   6
ATOM      3  C   UNL     1      46.555   2.701   7.519  0.00  0.00    +0.000 A 
ATOM      4  C   UNL     1      46.160   4.022   7.749  0.00  0.00    +0.000 A 
ATOM      5  C   UNL     1      45.205   4.308   8.731  0.00  0.00    +0.000 A 
ATOM      6  C   UNL     1      44.638   3.277   9.493  0.00  0.00    +0.000 A 
ATOM      7  C   UNL     1      45.018   1.953   9.236  0.00  0.00    +0.000 A 
ATOM      8  C   UNL     1      45.967   1.665   8.252  0.00  0.00    +0.000 A 
BRANCH   3  10
ATOM      9  N   UNL     1      47.462   2.956   5.272  0.00  0.00    +0.000 N 
ATOM     10  C   UNL     1      47.575   2.351   6.493  0.00  0.00    +0.000 C 
ATOM     11  O   UNL     1      48.500   1.589   6.737  0.00  0.00    +0.000 OA
ATOM     12  H   UNL     1      48.228   2.804   4.628  0.00  0.00    +0.000 HD
ATOM     13  H   UNL     1      46.887   3.774   5.129  0.00  0.00    +0.000 HD
ENDBRANCH   3  10
ENDBRANCH   2   6
ENDBRANCH   1   2
BRANCH   1  14
ATOM     14  O   UNL     1      44.150   4.524  12.702  0.00  0.00    +0.000 OA
BRANCH  14  15
ATOM     15  C   UNL     1      45.385   5.113  12.820  0.00  0.00    +0.000 A 
ATOM     16  C   UNL     1      45.922   6.032  11.917  0.00  0.00    +0.000 A 
ATOM     17  C   UNL     1      47.180   6.595  12.152  0.00  0.00    +0.000 A 
ATOM     18  C   UNL     1      47.914   6.241  13.284  0.00  0.00    +0.000 A 
ATOM     19  C   UNL     1      47.386   5.321  14.187  0.00  0.00    +0.000 A 
ATOM     20  C   UNL     1      46.115   4.777  13.963  0.00  0.00    +0.000 A 
BRANCH  19  21
ATOM     21  O   UNL     1      48.016   4.914  15.337  0.00  0.00    +0.000 OA
BRANCH  21  22
ATOM     22  C   UNL     1      47.262   4.166  16.321  0.00  0.00    +0.000 C 
ATOM     23  C   UNL     1      47.240   4.695  17.771  0.00  0.00    +0.000 C 
ATOM     24  N   UNL     1      47.676   3.384  18.274  0.00  0.00    +0.000 NA
ATOM     25  C   UNL     1      47.991   2.940  16.909  0.00  0.00    +0.000 C 
ATOM     26  H   UNL     1      46.941   2.843  18.729  0.00  0.00    +0.000 HD
ENDBRANCH  21  22
ENDBRANCH  19  21
ENDBRANCH  14  15
ENDBRANCH   1  14
TORSDOF 7
ENDMDL
MODEL 2
REMARK VINA RESULT:    -7.303      2.842      4.015
REMARK INTER + INTRA:         -11.204
REMARK INTER:                 -10.449
REMARK INTRA:                  -0.755
REMARK UNBOUND:                -0.912
REMARK  Name = 
REMARK  7 active torsions:
REMARK  status: ('A' for Active; 'I' for Inactive)
REMARK    1  A    between atoms: C_2  and  C_4
REMARK    2  A    between atoms: C_7  and  C_8
REMARK    3  A    between atoms: C_8  and  C_9
REMARK    4  A    between atoms: C_9  and  O_10
REMARK    5  A    between atoms: O_10  and  C_11
REMARK    6  A    between atoms: C_15  and  O_16
REMARK    7  A    between atoms: O_16  and  C_17
REMARK                            x       y       z     vdW  Elec       q    Type
REMARK                         _______ _______ _______ _____ _____    ______ ____
ROOT
ATOM      1  C   UNL     1      43.865   3.464  12.020  0.00  0.00    +0.000 C 
ENDROOT
BRANCH   1   2
ATOM      2  C   UNL     1      43.520   3.978  10.621  0.00  0.00    +0.000 C 
BRANCH   2   6
ATOM      3  C   UNL     1      46.424   2.716   7.677  0.00  0.00    +0.000 A 
ATOM      4  C   UNL     1      46.126   4.074   7.829  0.00  0.00    +0.000 A 
ATOM      5  C   UNL     1      45.188   4.482   8.786  0.00  0.00    +0.000 A 
ATOM      6  C   UNL     1      44.543   3.539   9.598  0.00  0.00    +0.000 A 
ATOM      7  C   UNL     1      44.828   2.179   9.419  0.00  0.00    +0.000 A 
ATOM      8  C   UNL     1      45.759   1.768   8.461  0.00  0.00    +0.000 A 
BRANCH   3  10
ATOM      9  N   UNL     1      47.519   2.937   5.512  0.00  0.00    +0.000 N 
ATOM     10  C   UNL     1      47.422   2.237   6.682  0.00  0.00    +0.000 C 
ATOM     11  O   UNL     1      48.155   1.285   6.911  0.00  0.00    +0.000 OA
ATOM     12  H   UNL     1      48.282   2.675   4.899  0.00  0.00    +0.000 HD
ATOM     13  H   UNL     1      47.132   3.863   5.406  0.00  0.00    +0.000 HD
ENDBRANCH   3  10
ENDBRANCH   2   6
ENDBRANCH   1   2
BRANCH   1  14
ATOM     14  O   UNL     1      43.877   4.563  12.940  0.00  0.00    +0.000 OA
BRANCH  14  15
ATOM     15  C   UNL     1      45.085   5.201  13.085  0.00  0.00    +0.000 A 
ATOM     16  C   UNL     1      46.179   4.692  13.787  0.00  0.00    +0.000 A 
ATOM     17  C   UNL     1      47.374   5.414  13.844  0.00  0.00    +0.000 A 
ATOM     18  C   UNL     1      47.486   6.651  13.210  0.00  0.00    +0.000 A 
ATOM     19  C   UNL     1      46.397   7.167  12.511  0.00  0.00    +0.000 A 
ATOM     20  C   UNL     1      45.208   6.430  12.433  0.00  0.00    +0.000 A 
BRANCH  19  21
ATOM     21  O   UNL     1      46.403   8.365  11.840  0.00  0.00    +0.000 OA
BRANCH  21  22
ATOM     22  C   UNL     1      45.796   9.521  12.467  0.00  0.00    +0.000 C 
ATOM     23  C   UNL     1      44.448  10.022  11.909  0.00  0.00    +0.000 C 
ATOM     24  N   UNL     1      44.993  11.380  11.761  0.00  0.00    +0.000 NA
ATOM     25  C   UNL     1      46.354  10.882  12.003  0.00  0.00    +0.000 C 
ATOM     26  H   UNL     1      44.661  12.044  12.460  0.00  0.00    +0.000 HD
ENDBRANCH  21  22
ENDBRANCH  19  21
ENDBRANCH  14  15
ENDBRANCH   1  14
TORSDOF 7
ENDMDL
MODEL 3
REMARK VINA RESULT:    -7.124      1.532      8.183
REMARK INTER + INTRA:         -10.951
REMARK INTER:                 -10.111
REMARK INTRA:                  -0.840
REMARK UNBOUND:                -0.912
REMARK  Name = 
REMARK  7 active torsions:
REMARK  status: ('A' for Active; 'I' for Inactive)
REMARK    1  A    between atoms: C_2  and  C_4
REMARK    2  A    between atoms: C_7  and  C_8
REMARK    3  A    between atoms: C_8  and  C_9
REMARK    4  A    between atoms: C_9  and  O_10
REMARK    5  A    between atoms: O_10  and  C_11
REMARK    6  A    between atoms: C_15  and  O_16
REMARK    7  A    between atoms: O_16  and  C_17
REMARK                            x       y       z     vdW  Elec       q    Type
REMARK                         _______ _______ _______ _____ _____    ______ ____
ROOT
ATOM      1  C   UNL     1      45.685   6.652  11.897  0.00  0.00    +0.000 C 
ENDROOT
BRANCH   1   2
ATOM      2  C   UNL     1      47.168   6.680  12.270  0.00  0.00    +0.000 C 
BRANCH   2   6
ATOM      3  C   UNL     1      47.867   4.807  16.103  0.00  0.00    +0.000 A 
ATOM      4  C   UNL     1      46.984   4.224  15.190  0.00  0.00    +0.000 A 
ATOM      5  C   UNL     1      46.761   4.828  13.947  0.00  0.00    +0.000 A 
ATOM      6  C   UNL     1      47.419   6.018  13.606  0.00  0.00    +0.000 A 
ATOM      7  C   UNL     1      48.280   6.611  14.539  0.00  0.00    +0.000 A 
ATOM      8  C   UNL     1      48.500   6.012  15.783  0.00  0.00    +0.000 A 
BRANCH   3  10
ATOM      9  N   UNL     1      47.320   4.549  18.463  0.00  0.00    +0.000 N 
ATOM     10  C   UNL     1      48.144   4.194  17.431  0.00  0.00    +0.000 C 
ATOM     11  O   UNL     1      49.040   3.377  17.591  0.00  0.00    +0.000 OA
ATOM     12  H   UNL     1      47.444   4.034  19.327  0.00  0.00    +0.000 HD
ATOM     13  H   UNL     1      46.429   4.997  18.310  0.00  0.00    +0.000 HD
ENDBRANCH   3  10
ENDBRANCH   2   6
ENDBRANCH   1   2
BRANCH   1  14
ATOM     14  O   UNL     1      45.552   6.369  10.499  0.00  0.00    +0.000 OA
BRANCH  14  15
ATOM     15  C   UNL     1      45.206   5.077  10.186  0.00  0.00    +0.000 A 
ATOM     16  C   UNL     1      44.531   4.201  11.038  0.00  0.00    +0.000 A 
ATOM     17  C   UNL     1      44.201   2.915  10.604  0.00  0.00    +0.000 A 
ATOM     18  C   UNL     1      44.546   2.488   9.322  0.00  0.00    +0.000 A 
ATOM     19  C   UNL     1      45.224   3.355   8.468  0.00  0.00    +0.000 A 
ATOM     20  C   UNL     1      45.532   4.653   8.895  0.00  0.00    +0.000 A 
BRANCH  19  21
ATOM     21  O   UNL     1      45.598   3.044   7.184  0.00  0.00    +0.000 OA
BRANCH  21  22
ATOM     22  C   UNL     1      47.006   3.047   6.845  0.00  0.00    +0.000 C 
ATOM     23  C   UNL     1      47.394   2.853   5.365  0.00  0.00    +0.000 C 
ATOM     24  N   UNL     1      48.299   1.752   5.728  0.00  0.00    +0.000 NA
ATOM     25  C   UNL     1      47.738   1.711   7.086  0.00  0.00    +0.000 C 
ATOM     26  H   UNL     1      49.289   1.993   5.693  0.00  0.00    +0.000 HD
ENDBRANCH  21  22
ENDBRANCH  19  21
ENDBRANCH  14  15
ENDBRANCH   1  14
TORSDOF 7
ENDMDL
MODEL 4
REMARK VINA RESULT:    -6.955      3.038      4.446
REMARK INTER + INTRA:         -10.714
REMARK INTER:                 -10.600
REMARK INTRA:                  -0.114
REMARK UNBOUND:                -0.912
REMARK  Name = 
REMARK  7 active torsions:
REMARK  status: ('A' for Active; 'I' for Inactive)
REMARK    1  A    between atoms: C_2  and  C_4
REMARK    2  A    between atoms: C_7  and  C_8
REMARK    3  A    between atoms: C_8  and  C_9
REMARK    4  A    between atoms: C_9  and  O_10
REMARK    5  A    between atoms: O_10  and  C_11
REMARK    6  A    between atoms: C_15  and  O_16
REMARK    7  A    between atoms: O_16  and  C_17
REMARK                            x       y       z     vdW  Elec       q    Type
REMARK                         _______ _______ _______ _____ _____    ______ ____
ROOT
ATOM      1  C   UNL     1      43.707   2.978  12.119  0.00  0.00    +0.000 C 
ENDROOT
BRANCH   1   2
ATOM      2  C   UNL     1      43.439   3.741  10.821  0.00  0.00    +0.000 C 
BRANCH   2   6
ATOM      3  C   UNL     1      46.295   2.685   7.752  0.00  0.00    +0.000 A 
ATOM      4  C   UNL     1      45.667   1.684   8.499  0.00  0.00    +0.000 A 
ATOM      5  C   UNL     1      44.739   2.026   9.490  0.00  0.00    +0.000 A 
ATOM      6  C   UNL     1      44.429   3.370   9.742  0.00  0.00    +0.000 A 
ATOM      7  C   UNL     1      45.085   4.368   9.008  0.00  0.00    +0.000 A 
ATOM      8  C   UNL     1      46.016   4.029   8.023  0.00  0.00    +0.000 A 
BRANCH   3  10
ATOM      9  N   UNL     1      47.295   3.191   5.590  0.00  0.00    +0.000 N 
ATOM     10  C   UNL     1      47.279   2.368   6.682  0.00  0.00    +0.000 C 
ATOM     11  O   UNL     1      48.070   1.441   6.786  0.00  0.00    +0.000 OA
ATOM     12  H   UNL     1      48.048   3.038   4.930  0.00  0.00    +0.000 HD
ATOM     13  H   UNL     1      46.857   4.100   5.595  0.00  0.00    +0.000 HD
ENDBRANCH   3  10
ENDBRANCH   2   6
ENDBRANCH   1   2
BRANCH   1  14
ATOM     14  O   UNL     1      44.073   3.905  13.149  0.00  0.00    +0.000 OA
BRANCH  14  15
ATOM     15  C   UNL     1      44.848   4.964  12.744  0.00  0.00    +0.000 A 
ATOM     16  C   UNL     1      46.244   4.976  12.734  0.00  0.00    +0.000 A 
ATOM     17  C   UNL     1      46.934   6.099  12.271  0.00  0.00    +0.000 A 
ATOM     18  C   UNL     1      46.239   7.222  11.821  0.00  0.00    +0.000 A 
ATOM     19  C   UNL     1      44.846   7.219  11.832  0.00  0.00    +0.000 A 
ATOM     20  C   UNL     1      44.156   6.083  12.273  0.00  0.00    +0.000 A 
BRANCH  19  21
ATOM     21  O   UNL     1      44.065   8.263  11.400  0.00  0.00    +0.000 OA
BRANCH  21  22
ATOM     22  C   UNL     1      44.697   9.528  11.089  0.00  0.00    +0.000 C 
ATOM     23  C   UNL     1      45.463  10.250  12.217  0.00  0.00    +0.000 C 
ATOM     24  N   UNL     1      44.695  11.480  11.974  0.00  0.00    +0.000 NA
ATOM     25  C   UNL     1      43.757  10.750  11.111  0.00  0.00    +0.000 C 
ATOM     26  H   UNL     1      45.217  12.214  11.496  0.00  0.00    +0.000 HD
ENDBRANCH  21  22
ENDBRANCH  19  21
ENDBRANCH  14  15
ENDBRANCH   1  14
TORSDOF 7
ENDMDL
MODEL 5
REMARK VINA RESULT:    -6.945      2.621      3.068
REMARK INTER + INTRA:         -10.699
REMARK INTER:                 -10.080
REMARK INTRA:                  -0.619
REMARK UNBOUND:                -0.912
REMARK  Name = 
REMARK  7 active torsions:
REMARK  status: ('A' for Active; 'I' for Inactive)
REMARK    1  A    between atoms: C_2  and  C_4
REMARK    2  A    between atoms: C_7  and  C_8
REMARK    3  A    between atoms: C_8  and  C_9
REMARK    4  A    between atoms: C_9  and  O_10
REMARK    5  A    between atoms: O_10  and  C_11
REMARK    6  A    between atoms: C_15  and  O_16
REMARK    7  A    between atoms: O_16  and  C_17
REMARK                            x       y       z     vdW  Elec       q    Type
REMARK                         _______ _______ _______ _____ _____    ______ ____
ROOT
ATOM      1  C   UNL     1      44.130   4.402  11.713  0.00  0.00    +0.000 C 
ENDROOT
BRANCH   1   2
ATOM      2  C   UNL     1      43.627   4.276  10.274  0.00  0.00    +0.000 C 
BRANCH   2   6
ATOM      3  C   UNL     1      46.602   2.533   7.666  0.00  0.00    +0.000 A 
ATOM      4  C   UNL     1      46.420   3.919   7.693  0.00  0.00    +0.000 A 
ATOM      5  C   UNL     1      45.459   4.484   8.541  0.00  0.00    +0.000 A 
ATOM      6  C   UNL     1      44.675   3.669   9.369  0.00  0.00    +0.000 A 
ATOM      7  C   UNL     1      44.845   2.279   9.314  0.00  0.00    +0.000 A 
ATOM      8  C   UNL     1      45.798   1.713   8.465  0.00  0.00    +0.000 A 
BRANCH   3  10
ATOM      9  N   UNL     1      48.575   2.702   6.247  0.00  0.00    +0.000 N 
ATOM     10  C   UNL     1      47.618   1.890   6.789  0.00  0.00    +0.000 C 
ATOM     11  O   UNL     1      47.629   0.683   6.593  0.00  0.00    +0.000 OA
ATOM     12  H   UNL     1      49.327   2.235   5.755  0.00  0.00    +0.000 HD
ATOM     13  H   UNL     1      48.752   3.632   6.597  0.00  0.00    +0.000 HD
ENDBRANCH   3  10
ENDBRANCH   2   6
ENDBRANCH   1   2
BRANCH   1  14
ATOM     14  O   UNL     1      45.495   4.839  11.704  0.00  0.00    +0.000 OA
BRANCH  14  15
ATOM     15  C   UNL     1      45.700   6.148  12.064  0.00  0.00    +0.000 A 
ATOM     16  C   UNL     1      44.951   7.232  11.604  0.00  0.00    +0.000 A 
ATOM     17  C   UNL     1      45.227   8.522  12.063  0.00  0.00    +0.000 A 
ATOM     18  C   UNL     1      46.257   8.744  12.977  0.00  0.00    +0.000 A 
ATOM     19  C   UNL     1      47.012   7.668  13.438  0.00  0.00    +0.000 A 
ATOM     20  C   UNL     1      46.717   6.372  12.996  0.00  0.00    +0.000 A 
BRANCH  19  21
ATOM     21  O   UNL     1      48.036   7.772  14.347  0.00  0.00    +0.000 OA
BRANCH  21  22
ATOM     22  C   UNL     1      49.254   8.449  13.954  0.00  0.00    +0.000 C 
ATOM     23  C   UNL     1      49.872   8.090  12.586  0.00  0.00    +0.000 C 
ATOM     24  N   UNL     1      51.169   7.818  13.224  0.00  0.00    +0.000 NA
ATOM     25  C   UNL     1      50.549   7.863  14.555  0.00  0.00    +0.000 C 
ATOM     26  H   UNL     1      51.873   8.539  13.067  0.00  0.00    +0.000 HD
ENDBRANCH  21  22
ENDBRANCH  19  21
ENDBRANCH  14  15
ENDBRANCH   1  14
TORSDOF 7
ENDMDL
MODEL 6
REMARK VINA RESULT:    -6.450      2.513      3.514
REMARK INTER + INTRA:         -10.001
REMARK INTER:                  -9.436
REMARK INTRA:                  -0.566
REMARK UNBOUND:                -0.912
REMARK  Name = 
REMARK  7 active torsions:
REMARK  status: ('A' for Active; 'I' for Inactive)
REMARK    1  A    between atoms: C_2  and  C_4
REMARK    2  A    between atoms: C_7  and  C_8
REMARK    3  A    between atoms: C_8  and  C_9
REMARK    4  A    between atoms: C_9  and  O_10
REMARK    5  A    between atoms: O_10  and  C_11
REMARK    6  A    between atoms: C_15  and  O_16
REMARK    7  A    between atoms: O_16  and  C_17
REMARK                            x       y       z     vdW  Elec       q    Type
REMARK                         _______ _______ _______ _____ _____    ______ ____
ROOT
ATOM      1  C   UNL     1      44.610   4.322  12.013  0.00  0.00    +0.000 C 
ENDROOT
BRANCH   1   2
ATOM      2  C   UNL     1      43.901   4.247  10.660  0.00  0.00    +0.000 C 
BRANCH   2   6
ATOM      3  C   UNL     1      46.514   2.785   7.541  0.00  0.00    +0.000 A 
ATOM      4  C   UNL     1      46.293   4.158   7.683  0.00  0.00    +0.000 A 
ATOM      5  C   UNL     1      45.450   4.631   8.696  0.00  0.00    +0.000 A 
ATOM      6  C   UNL     1      44.823   3.738   9.576  0.00  0.00    +0.000 A 
ATOM      7  C   UNL     1      45.028   2.361   9.408  0.00  0.00    +0.000 A 
ATOM      8  C   UNL     1      45.864   1.887   8.394  0.00  0.00    +0.000 A 
BRANCH   3  10
ATOM      9  N   UNL     1      47.445   2.902   5.293  0.00  0.00    +0.000 N 
ATOM     10  C   UNL     1      47.410   2.237   6.487  0.00  0.00    +0.000 C 
ATOM     11  O   UNL     1      48.119   1.260   6.686  0.00  0.00    +0.000 OA
ATOM     12  H   UNL     1      48.147   2.591   4.632  0.00  0.00    +0.000 HD
ATOM     13  H   UNL     1      47.091   3.841   5.191  0.00  0.00    +0.000 HD
ENDBRANCH   3  10
ENDBRANCH   2   6
ENDBRANCH   1   2
BRANCH   1  14
ATOM     14  O   UNL     1      45.775   5.149  11.893  0.00  0.00    +0.000 OA
BRANCH  14  15
ATOM     15  C   UNL     1      46.513   5.302  13.041  0.00  0.00    +0.000 A 
ATOM     16  C   UNL     1      46.506   4.418  14.121  0.00  0.00    +0.000 A 
ATOM     17  C   UNL     1      47.323   4.656  15.229  0.00  0.00    +0.000 A 
ATOM     18  C   UNL     1      48.148   5.780  15.274  0.00  0.00    +0.000 A 
ATOM     19  C   UNL     1      48.157   6.669  14.201  0.00  0.00    +0.000 A 
ATOM     20  C   UNL     1      47.357   6.416  13.081  0.00  0.00    +0.000 A 
BRANCH  19  21
ATOM     21  O   UNL     1      48.939   7.796  14.135  0.00  0.00    +0.000 OA
BRANCH  21  22
ATOM     22  C   UNL     1      49.845   7.953  13.016  0.00  0.00    +0.000 C 
ATOM     23  C   UNL     1      51.259   8.502  13.302  0.00  0.00    +0.000 C 
ATOM     24  N   UNL     1      51.080   9.544  12.280  0.00  0.00    +0.000 NA
ATOM     25  C   UNL     1      49.645   9.241  12.192  0.00  0.00    +0.000 C 
ATOM     26  H   UNL     1      51.595   9.377  11.415  0.00  0.00    +0.000 HD
ENDBRANCH  21  22
ENDBRANCH  19  21
ENDBRANCH  14  15
ENDBRANCH   1  14
TORSDOF 7
ENDMDL
MODEL 7
REMARK VINA RESULT:    -6.381      2.992      7.992
REMARK INTER + INTRA:          -9.905
REMARK INTER:                  -9.377
REMARK INTRA:                  -0.528
REMARK UNBOUND:                -0.912
REMARK  Name = 
REMARK  7 active torsions:
REMARK  status: ('A' for Active; 'I' for Inactive)
REMARK    1  A    between atoms: C_2  and  C_4
REMARK    2  A    between atoms: C_7  and  C_8
REMARK    3  A    between atoms: C_8  and  C_9
REMARK    4  A    between atoms: C_9  and  O_10
REMARK    5  A    between atoms: O_10  and  C_11
REMARK    6  A    between atoms: C_15  and  O_16
REMARK    7  A    between atoms: O_16  and  C_17
REMARK                            x       y       z     vdW  Elec       q    Type
REMARK                         _______ _______ _______ _____ _____    ______ ____
ROOT
ATOM      1  C   UNL     1      46.003   6.534  11.242  0.00  0.00    +0.000 C 
ENDROOT
BRANCH   1   2
ATOM      2  C   UNL     1      46.538   6.453  12.672  0.00  0.00    +0.000 C 
BRANCH   2   6
ATOM      3  C   UNL     1      50.506   8.139  12.990  0.00  0.00    +0.000 A 
ATOM      4  C   UNL     1      49.830   8.166  11.766  0.00  0.00    +0.000 A 
ATOM      5  C   UNL     1      48.543   7.624  11.665  0.00  0.00    +0.000 A 
ATOM      6  C   UNL     1      47.921   7.052  12.784  0.00  0.00    +0.000 A 
ATOM      7  C   UNL     1      48.619   7.004  13.999  0.00  0.00    +0.000 A 
ATOM      8  C   UNL     1      49.905   7.539  14.101  0.00  0.00    +0.000 A 
BRANCH   3  10
ATOM      9  N   UNL     1      52.923   7.846  13.067  0.00  0.00    +0.000 N 
ATOM     10  C   UNL     1      51.870   8.714  13.148  0.00  0.00    +0.000 C 
ATOM     11  O   UNL     1      52.051   9.914  13.301  0.00  0.00    +0.000 OA
ATOM     12  H   UNL     1      53.845   8.266  13.054  0.00  0.00    +0.000 HD
ATOM     13  H   UNL     1      52.827   6.919  12.680  0.00  0.00    +0.000 HD
ENDBRANCH   3  10
ENDBRANCH   2   6
ENDBRANCH   1   2
BRANCH   1  14
ATOM     14  O   UNL     1      44.750   5.841  11.164  0.00  0.00    +0.000 OA
BRANCH  14  15
ATOM     15  C   UNL     1      44.760   4.680  10.431  0.00  0.00    +0.000 A 
ATOM     16  C   UNL     1      44.127   3.493  10.804  0.00  0.00    +0.000 A 
ATOM     17  C   UNL     1      44.175   2.377   9.965  0.00  0.00    +0.000 A 
ATOM     18  C   UNL     1      44.860   2.433   8.751  0.00  0.00    +0.000 A 
ATOM     19  C   UNL     1      45.497   3.612   8.374  0.00  0.00    +0.000 A 
ATOM     20  C   UNL     1      45.427   4.737   9.204  0.00  0.00    +0.000 A 
BRANCH  19  21
ATOM     21  O   UNL     1      46.185   3.779   7.197  0.00  0.00    +0.000 OA
BRANCH  21  22
ATOM     22  C   UNL     1      46.591   2.606   6.451  0.00  0.00    +0.000 C 
ATOM     23  C   UNL     1      47.797   1.799   6.973  0.00  0.00    +0.000 C 
ATOM     24  N   UNL     1      48.446   1.883   5.656  0.00  0.00    +0.000 NA
ATOM     25  C   UNL     1      47.471   2.891   5.216  0.00  0.00    +0.000 C 
ATOM     26  H   UNL     1      48.421   1.017   5.119  0.00  0.00    +0.000 HD
ENDBRANCH  21  22
ENDBRANCH  19  21
ENDBRANCH  14  15
ENDBRANCH   1  14
TORSDOF 7
ENDMDL
MODEL 8
REMARK VINA RESULT:    -6.242      3.255      8.014
REMARK INTER + INTRA:          -9.708
REMARK INTER:                  -9.433
REMARK INTRA:                  -0.276
REMARK UNBOUND:                -0.912
REMARK  Name = 
REMARK  7 active torsions:
REMARK  status: ('A' for Active; 'I' for Inactive)
REMARK    1  A    between atoms: C_2  and  C_4
REMARK    2  A    between atoms: C_7  and  C_8
REMARK    3  A    between atoms: C_8  and  C_9
REMARK    4  A    between atoms: C_9  and  O_10
REMARK    5  A    between atoms: O_10  and  C_11
REMARK    6  A    between atoms: C_15  and  O_16
REMARK    7  A    between atoms: O_16  and  C_17
REMARK                            x       y       z     vdW  Elec       q    Type
REMARK                         _______ _______ _______ _____ _____    ______ ____
ROOT
ATOM      1  C   UNL     1      47.019   4.281  15.495  0.00  0.00    +0.000 C 
ENDROOT
BRANCH   1   2
ATOM      2  C   UNL     1      47.718   4.682  16.795  0.00  0.00    +0.000 C 
BRANCH   2   6
ATOM      3  C   UNL     1      51.239   2.288  17.542  0.00  0.00    +0.000 A 
ATOM      4  C   UNL     1      50.080   1.690  17.037  0.00  0.00    +0.000 A 
ATOM      5  C   UNL     1      48.941   2.467  16.792  0.00  0.00    +0.000 A 
ATOM      6  C   UNL     1      48.951   3.845  17.046  0.00  0.00    +0.000 A 
ATOM      7  C   UNL     1      50.108   4.430  17.578  0.00  0.00    +0.000 A 
ATOM      8  C   UNL     1      51.244   3.656  17.830  0.00  0.00    +0.000 A 
BRANCH   3  10
ATOM      9  N   UNL     1      52.317   0.218  18.242  0.00  0.00    +0.000 N 
ATOM     10  C   UNL     1      52.477   1.504  17.807  0.00  0.00    +0.000 C 
ATOM     11  O   UNL     1      53.590   1.970  17.607  0.00  0.00    +0.000 OA
ATOM     12  H   UNL     1      53.161  -0.339  18.301  0.00  0.00    +0.000 HD
ATOM     13  H   UNL     1      51.438  -0.272  18.159  0.00  0.00    +0.000 HD
ENDBRANCH   3  10
ENDBRANCH   2   6
ENDBRANCH   1   2
BRANCH   1  14
ATOM     14  O   UNL     1      47.729   4.839  14.382  0.00  0.00    +0.000 OA
BRANCH  14  15
ATOM     15  C   UNL     1      46.963   5.535  13.480  0.00  0.00    +0.000 A 
ATOM     16  C   UNL     1      47.442   6.523  12.619  0.00  0.00    +0.000 A 
ATOM     17  C   UNL     1      46.578   7.147  11.715  0.00  0.00    +0.000 A 
ATOM     18  C   UNL     1      45.229   6.797  11.668  0.00  0.00    +0.000 A 
ATOM     19  C   UNL     1      44.742   5.814  12.527  0.00  0.00    +0.000 A 
ATOM     20  C   UNL     1      45.615   5.172  13.414  0.00  0.00    +0.000 A 
BRANCH  19  21
ATOM     21  O   UNL     1      43.439   5.383  12.553  0.00  0.00    +0.000 OA
BRANCH  21  22
ATOM     22  C   UNL     1      43.051   4.275  11.706  0.00  0.00    +0.000 C 
ATOM     23  C   UNL     1      43.456   2.853  12.145  0.00  0.00    +0.000 C 
ATOM     24  N   UNL     1      44.074   2.605  10.833  0.00  0.00    +0.000 NA
ATOM     25  C   UNL     1      43.970   4.030  10.491  0.00  0.00    +0.000 C 
ATOM     26  H   UNL     1      43.535   1.990  10.224  0.00  0.00    +0.000 HD
ENDBRANCH  21  22
ENDBRANCH  19  21
ENDBRANCH  14  15
ENDBRANCH   1  14
TORSDOF 7
ENDMDL
MODEL 9
REMARK VINA RESULT:    -6.240      2.028      8.586
REMARK INTER + INTRA:          -9.705
REMARK INTER:                  -9.197
REMARK INTRA:                  -0.508
REMARK UNBOUND:                -0.912
REMARK  Name = 
REMARK  7 active torsions:
REMARK  status: ('A' for Active; 'I' for Inactive)
REMARK    1  A    between atoms: C_2  and  C_4
REMARK    2  A    between atoms: C_7  and  C_8
REMARK    3  A    between atoms: C_8  and  C_9
REMARK    4  A    between atoms: C_9  and  O_10
REMARK    5  A    between atoms: O_10  and  C_11
REMARK    6  A    between atoms: C_15  and  O_16
REMARK    7  A    between atoms: O_16  and  C_17
REMARK                            x       y       z     vdW  Elec       q    Type
REMARK                         _______ _______ _______ _____ _____    ______ ____
ROOT
ATOM      1  C   UNL     1      47.233   5.542  13.518  0.00  0.00    +0.000 C 
ENDROOT
BRANCH   1   2
ATOM      2  C   UNL     1      46.952   4.266  14.313  0.00  0.00    +0.000 C 
BRANCH   2   6
ATOM      3  C   UNL     1      48.591   4.489  18.308  0.00  0.00    +0.000 A 
ATOM      4  C   UNL     1      47.888   3.351  17.901  0.00  0.00    +0.000 A 
ATOM      5  C   UNL     1      47.361   3.277  16.606  0.00  0.00    +0.000 A 
ATOM      6  C   UNL     1      47.533   4.338  15.706  0.00  0.00    +0.000 A 
ATOM      7  C   UNL     1      48.214   5.487  16.132  0.00  0.00    +0.000 A 
ATOM      8  C   UNL     1      48.735   5.565  17.426  0.00  0.00    +0.000 A 
BRANCH   3  10
ATOM      9  N   UNL     1      48.611   3.852  20.659  0.00  0.00    +0.000 N 
ATOM     10  C   UNL     1      49.178   4.607  19.670  0.00  0.00    +0.000 C 
ATOM     11  O   UNL     1      50.151   5.313  19.894  0.00  0.00    +0.000 OA
ATOM     12  H   UNL     1      49.096   3.849  21.548  0.00  0.00    +0.000 HD
ATOM     13  H   UNL     1      47.999   3.075  20.458  0.00  0.00    +0.000 HD
ENDBRANCH   3  10
ENDBRANCH   2   6
ENDBRANCH   1   2
BRANCH   1  14
ATOM     14  O   UNL     1      46.000   6.229  13.270  0.00  0.00    +0.000 OA
BRANCH  14  15
ATOM     15  C   UNL     1      45.161   5.631  12.363  0.00  0.00    +0.000 A 
ATOM     16  C   UNL     1      43.868   5.185  12.644  0.00  0.00    +0.000 A 
ATOM     17  C   UNL     1      43.086   4.617  11.634  0.00  0.00    +0.000 A 
ATOM     18  C   UNL     1      43.589   4.482  10.340  0.00  0.00    +0.000 A 
ATOM     19  C   UNL     1      44.879   4.921  10.053  0.00  0.00    +0.000 A 
ATOM     20  C   UNL     1      45.652   5.513  11.060  0.00  0.00    +0.000 A 
BRANCH  19  21
ATOM     21  O   UNL     1      45.465   4.851   8.813  0.00  0.00    +0.000 OA
BRANCH  21  22
ATOM     22  C   UNL     1      45.334   3.629   8.047  0.00  0.00    +0.000 C 
ATOM     23  C   UNL     1      45.598   2.291   8.767  0.00  0.00    +0.000 C 
ATOM     24  N   UNL     1      46.563   1.902   7.728  0.00  0.00    +0.000 NA
ATOM     25  C   UNL     1      46.560   3.266   7.183  0.00  0.00    +0.000 C 
ATOM     26  H   UNL     1      46.219   1.193   7.080  0.00  0.00    +0.000 HD
ENDBRANCH  21  22
ENDBRANCH  19  21
ENDBRANCH  14  15
ENDBRANCH   1  14
TORSDOF 7
ENDMDL
