MODEL 1
REMARK VINA RESULT:    -8.568      0.000      0.000
REMARK INTER + INTRA:         -12.543
REMARK INTER:                 -11.574
REMARK INTRA:                  -0.969
REMARK UNBOUND:                -0.969
REMARK  Name = 
REMARK  6 active torsions:
REMARK  status: ('A' for Active; 'I' for Inactive)
REMARK    1  A    between atoms: C_2  and  C_4
REMARK    2  A    between atoms: C_7  and  N_8
REMARK    3  A    between atoms: N_8  and  C_9
REMARK    4  A    between atoms: C_9  and  C_10
REMARK    5  A    between atoms: C_10  and  C_11
REMARK    6  A    between atoms: C_15  and  C_16
REMARK                            x       y       z     vdW  Elec       q    Type
REMARK                         _______ _______ _______ _____ _____    ______ ____
ROOT
ATOM      1  C   UNL     1      43.219   5.012  10.912  0.00  0.00    +0.000 C 
ENDROOT
BRANCH   1   2
ATOM      2  N   UNL     1      43.643   3.637  10.652  0.00  0.00    +0.000 N 
ATOM      3  H   UNL     1      43.765   3.059  11.481  0.00  0.00    +0.000 HD
BRANCH   2   7
ATOM      4  C   UNL     1      46.437   2.746   7.611  0.00  0.00    +0.000 A 
ATOM      5  C   UNL     1      46.092   4.074   7.860  0.00  0.00    +0.000 A 
ATOM      6  C   UNL     1      45.181   4.383   8.875  0.00  0.00    +0.000 A 
ATOM      7  C   UNL     1      44.617   3.386   9.681  0.00  0.00    +0.000 A 
ATOM      8  C   UNL     1      44.961   2.054   9.403  0.00  0.00    +0.000 A 
ATOM      9  C   UNL     1      45.857   1.732   8.376  0.00  0.00    +0.000 A 
BRANCH   4  11
ATOM     10  N   UNL     1      47.368   3.178   5.404  0.00  0.00    +0.000 N 
ATOM     11  C   UNL     1      47.373   2.382   6.516  0.00  0.00    +0.000 C 
ATOM     12  O   UNL     1      48.138   1.432   6.610  0.00  0.00    +0.000 OA
ATOM     13  H   UNL     1      48.070   2.975   4.703  0.00  0.00    +0.000 HD
ATOM     14  H   UNL     1      46.942   4.093   5.393  0.00  0.00    +0.000 HD
ENDBRANCH   4  11
ENDBRANCH   2   7
ENDBRANCH   1   2
BRANCH   1  15
ATOM     15  C   UNL     1      43.458   5.405  12.373  0.00  0.00    +0.000 C 
BRANCH  15  16
ATOM     16  C   UNL     1      44.939   5.527  12.654  0.00  0.00    +0.000 A 
ATOM     17  C   UNL     1      45.719   6.458  11.959  0.00  0.00    +0.000 A 
ATOM     18  C   UNL     1      47.068   6.612  12.268  0.00  0.00    +0.000 A 
ATOM     19  C   UNL     1      47.637   5.870  13.304  0.00  0.00    +0.000 A 
ATOM     20  C   UNL     1      46.873   4.965  14.062  0.00  0.00    +0.000 A 
ATOM     21  C   UNL     1      45.530   4.775  13.686  0.00  0.00    +0.000 A 
BRANCH  20  22
ATOM     22  C   UNL     1      47.426   4.308  15.264  0.00  0.00    +0.000 A 
ATOM     23  C   UNL     1      47.521   4.961  16.492  0.00  0.00    +0.000 A 
ATOM     24  N   UNL     1      47.964   4.373  17.631  0.00  0.00    +0.000 NA
ATOM     25  C   UNL     1      48.312   3.076  17.499  0.00  0.00    +0.000 A 
ATOM     26  C   UNL     1      48.223   2.408  16.292  0.00  0.00    +0.000 A 
ATOM     27  N   UNL     1      47.780   3.001  15.155  0.00  0.00    +0.000 NA
ENDBRANCH  20  22
ENDBRANCH  15  16
ENDBRANCH   1  15
TORSDOF 6
ENDMDL
MODEL 2
REMARK VINA RESULT:    -8.219      2.583      4.129
REMARK INTER + INTRA:         -12.072
REMARK INTER:                 -11.155
REMARK INTRA:                  -0.917
REMARK UNBOUND:                -0.969
REMARK  Name = 
REMARK  6 active torsions:
REMARK  status: ('A' for Active; 'I' for Inactive)
REMARK    1  A    between atoms: C_2  and  C_4
REMARK    2  A    between atoms: C_7  and  N_8
REMARK    3  A    between atoms: N_8  and  C_9
REMARK    4  A    between atoms: C_9  and  C_10
REMARK    5  A    between atoms: C_10  and  C_11
REMARK    6  A    between atoms: C_15  and  C_16
REMARK                            x       y       z     vdW  Elec       q    Type
REMARK                         _______ _______ _______ _____ _____    ______ ____
ROOT
ATOM      1  C   UNL     1      43.186   4.311  11.281  0.00  0.00    +0.000 C 
ENDROOT
BRANCH   1   2
ATOM      2  N   UNL     1      43.665   4.786   9.984  0.00  0.00    +0.000 N 
ATOM      3  H   UNL     1      42.967   5.255   9.411  0.00  0.00    +0.000 HD
BRANCH   2   7
ATOM      4  C   UNL     1      46.423   2.465   7.781  0.00  0.00    +0.000 A 
ATOM      5  C   UNL     1      45.534   1.834   8.651  0.00  0.00    +0.000 A 
ATOM      6  C   UNL     1      44.605   2.590   9.374  0.00  0.00    +0.000 A 
ATOM      7  C   UNL     1      44.520   3.980   9.226  0.00  0.00    +0.000 A 
ATOM      8  C   UNL     1      45.435   4.600   8.361  0.00  0.00    +0.000 A 
ATOM      9  C   UNL     1      46.382   3.855   7.648  0.00  0.00    +0.000 A 
BRANCH   4  11
ATOM     10  N   UNL     1      48.464   2.409   6.457  0.00  0.00    +0.000 N 
ATOM     11  C   UNL     1      47.447   1.695   7.028  0.00  0.00    +0.000 C 
ATOM     12  O   UNL     1      47.405   0.476   6.945  0.00  0.00    +0.000 OA
ATOM     13  H   UNL     1      49.203   1.869   6.024  0.00  0.00    +0.000 HD
ATOM     14  H   UNL     1      48.666   3.365   6.710  0.00  0.00    +0.000 HD
ENDBRANCH   4  11
ENDBRANCH   2   7
ENDBRANCH   1   2
BRANCH   1  15
ATOM     15  C   UNL     1      43.274   5.409  12.347  0.00  0.00    +0.000 C 
BRANCH  15  16
ATOM     16  C   UNL     1      44.711   5.630  12.763  0.00  0.00    +0.000 A 
ATOM     17  C   UNL     1      45.458   4.585  13.318  0.00  0.00    +0.000 A 
ATOM     18  C   UNL     1      46.800   4.775  13.637  0.00  0.00    +0.000 A 
ATOM     19  C   UNL     1      47.417   5.996  13.363  0.00  0.00    +0.000 A 
ATOM     20  C   UNL     1      46.715   7.052  12.755  0.00  0.00    +0.000 A 
ATOM     21  C   UNL     1      45.343   6.860  12.506  0.00  0.00    +0.000 A 
BRANCH  20  22
ATOM     22  C   UNL     1      47.405   8.280  12.308  0.00  0.00    +0.000 A 
ATOM     23  C   UNL     1      48.704   8.261  11.804  0.00  0.00    +0.000 A 
ATOM     24  N   UNL     1      49.347   9.356  11.326  0.00  0.00    +0.000 NA
ATOM     25  C   UNL     1      48.627  10.496  11.365  0.00  0.00    +0.000 A 
ATOM     26  C   UNL     1      47.337  10.537  11.858  0.00  0.00    +0.000 A 
ATOM     27  N   UNL     1      46.698   9.439  12.335  0.00  0.00    +0.000 NA
ENDBRANCH  20  22
ENDBRANCH  15  16
ENDBRANCH   1  15
TORSDOF 6
ENDMDL
MODEL 3
REMARK VINA RESULT:    -7.481      3.097      5.154
REMARK INTER + INTRA:         -11.075
REMARK INTER:                 -10.284
REMARK INTRA:                  -0.791
REMARK UNBOUND:                -0.969
REMARK  Name = 
REMARK  6 active torsions:
REMARK  status: ('A' for Active; 'I' for Inactive)
REMARK    1  A    between atoms: C_2  and  C_4
REMARK    2  A    between atoms: C_7  and  N_8
REMARK    3  A    between atoms: N_8  and  C_9
REMARK    4  A    between atoms: C_9  and  C_10
REMARK    5  A    between atoms: C_10  and  C_11
REMARK    6  A    between atoms: C_15  and  C_16
REMARK                            x       y       z     vdW  Elec       q    Type
REMARK                         _______ _______ _______ _____ _____    ______ ____
ROOT
ATOM      1  C   UNL     1      43.909   5.054  11.250  0.00  0.00    +0.000 C 
ENDROOT
BRANCH   1   2
ATOM      2  N   UNL     1      43.644   3.797  10.554  0.00  0.00    +0.000 N 
ATOM      3  H   UNL     1      43.343   3.029  11.149  0.00  0.00    +0.000 HD
BRANCH   2   7
ATOM      4  C   UNL     1      46.405   2.662   7.565  0.00  0.00    +0.000 A 
ATOM      5  C   UNL     1      45.863   1.690   8.405  0.00  0.00    +0.000 A 
ATOM      6  C   UNL     1      44.935   2.051   9.387  0.00  0.00    +0.000 A 
ATOM      7  C   UNL     1      44.506   3.375   9.537  0.00  0.00    +0.000 A 
ATOM      8  C   UNL     1      45.076   4.343   8.696  0.00  0.00    +0.000 A 
ATOM      9  C   UNL     1      46.021   3.996   7.722  0.00  0.00    +0.000 A 
BRANCH   4  11
ATOM     10  N   UNL     1      47.452   3.093   5.410  0.00  0.00    +0.000 N 
ATOM     11  C   UNL     1      47.421   2.318   6.536  0.00  0.00    +0.000 C 
ATOM     12  O   UNL     1      48.218   1.404   6.697  0.00  0.00    +0.000 OA
ATOM     13  H   UNL     1      48.204   2.907   4.758  0.00  0.00    +0.000 HD
ATOM     14  H   UNL     1      46.990   3.989   5.354  0.00  0.00    +0.000 HD
ENDBRANCH   4  11
ENDBRANCH   2   7
ENDBRANCH   1   2
BRANCH   1  15
ATOM     15  C   UNL     1      45.086   4.918  12.223  0.00  0.00    +0.000 C 
BRANCH  15  16
ATOM     16  C   UNL     1      45.853   6.218  12.313  0.00  0.00    +0.000 A 
ATOM     17  C   UNL     1      47.246   6.212  12.449  0.00  0.00    +0.000 A 
ATOM     18  C   UNL     1      47.953   7.412  12.465  0.00  0.00    +0.000 A 
ATOM     19  C   UNL     1      47.279   8.622  12.300  0.00  0.00    +0.000 A 
ATOM     20  C   UNL     1      45.887   8.666  12.105  0.00  0.00    +0.000 A 
ATOM     21  C   UNL     1      45.186   7.447  12.163  0.00  0.00    +0.000 A 
BRANCH  20  22
ATOM     22  C   UNL     1      45.197   9.926  11.760  0.00  0.00    +0.000 A 
ATOM     23  C   UNL     1      45.844  11.159  11.783  0.00  0.00    +0.000 A 
ATOM     24  N   UNL     1      45.263  12.328  11.413  0.00  0.00    +0.000 NA
ATOM     25  C   UNL     1      43.982  12.216  11.002  0.00  0.00    +0.000 A 
ATOM     26  C   UNL     1      43.322  11.003  10.968  0.00  0.00    +0.000 A 
ATOM     27  N   UNL     1      43.908   9.837  11.340  0.00  0.00    +0.000 NA
ENDBRANCH  20  22
ENDBRANCH  15  16
ENDBRANCH   1  15
TORSDOF 6
ENDMDL
MODEL 4
REMARK VINA RESULT:    -7.405      2.447      3.070
REMARK INTER + INTRA:         -10.972
REMARK INTER:                 -10.262
REMARK INTRA:                  -0.710
REMARK UNBOUND:                -0.969
REMARK  Name = 
REMARK  6 active torsions:
REMARK  status: ('A' for Active; 'I' for Inactive)
REMARK    1  A    between atoms: C_2  and  C_4
REMARK    2  A    between atoms: C_7  and  N_8
REMARK    3  A    between atoms: N_8  and  C_9
REMARK    4  A    between atoms: C_9  and  C_10
REMARK    5  A    between atoms: C_10  and  C_11
REMARK    6  A    between atoms: C_15  and  C_16
REMARK                            x       y       z     vdW  Elec       q    Type
REMARK                         _______ _______ _______ _____ _____    ______ ____
ROOT
ATOM      1  C   UNL     1      43.995   5.595  11.017  0.00  0.00    +0.000 C 
ENDROOT
BRANCH   1   2
ATOM      2  N   UNL     1      43.672   4.928   9.757  0.00  0.00    +0.000 N 
ATOM      3  H   UNL     1      42.712   4.602   9.675  0.00  0.00    +0.000 HD
BRANCH   2   7
ATOM      4  C   UNL     1      46.262   2.097   7.989  0.00  0.00    +0.000 A 
ATOM      5  C   UNL     1      46.329   3.432   7.592  0.00  0.00    +0.000 A 
ATOM      6  C   UNL     1      45.488   4.382   8.182  0.00  0.00    +0.000 A 
ATOM      7  C   UNL     1      44.587   4.033   9.195  0.00  0.00    +0.000 A 
ATOM      8  C   UNL     1      44.520   2.681   9.569  0.00  0.00    +0.000 A 
ATOM      9  C   UNL     1      45.343   1.718   8.970  0.00  0.00    +0.000 A 
BRANCH   4  11
ATOM     10  N   UNL     1      46.726  -0.244   7.515  0.00  0.00    +0.000 N 
ATOM     11  C   UNL     1      47.114   1.057   7.356  0.00  0.00    +0.000 C 
ATOM     12  O   UNL     1      48.101   1.347   6.695  0.00  0.00    +0.000 OA
ATOM     13  H   UNL     1      47.261  -0.938   7.006  0.00  0.00    +0.000 HD
ATOM     14  H   UNL     1      45.803  -0.501   7.833  0.00  0.00    +0.000 HD
ENDBRANCH   4  11
ENDBRANCH   2   7
ENDBRANCH   1   2
BRANCH   1  15
ATOM     15  C   UNL     1      45.429   6.139  11.011  0.00  0.00    +0.000 C 
BRANCH  15  16
ATOM     16  C   UNL     1      46.118   5.829  12.321  0.00  0.00    +0.000 A 
ATOM     17  C   UNL     1      46.017   4.556  12.892  0.00  0.00    +0.000 A 
ATOM     18  C   UNL     1      46.709   4.257  14.064  0.00  0.00    +0.000 A 
ATOM     19  C   UNL     1      47.540   5.213  14.648  0.00  0.00    +0.000 A 
ATOM     20  C   UNL     1      47.711   6.485  14.073  0.00  0.00    +0.000 A 
ATOM     21  C   UNL     1      46.949   6.787  12.929  0.00  0.00    +0.000 A 
BRANCH  20  22
ATOM     22  C   UNL     1      48.718   7.435  14.590  0.00  0.00    +0.000 A 
ATOM     23  C   UNL     1      48.407   8.761  14.886  0.00  0.00    +0.000 A 
ATOM     24  N   UNL     1      49.287   9.645  15.421  0.00  0.00    +0.000 NA
ATOM     25  C   UNL     1      50.516   9.143  15.661  0.00  0.00    +0.000 A 
ATOM     26  C   UNL     1      50.845   7.832  15.377  0.00  0.00    +0.000 A 
ATOM     27  N   UNL     1      49.962   6.951  14.842  0.00  0.00    +0.000 NA
ENDBRANCH  20  22
ENDBRANCH  15  16
ENDBRANCH   1  15
TORSDOF 6
ENDMDL
MODEL 5
REMARK VINA RESULT:    -7.092      2.661      7.400
REMARK INTER + INTRA:         -10.549
REMARK INTER:                  -9.500
REMARK INTRA:                  -1.048
REMARK UNBOUND:                -0.969
REMARK  Name = 
REMARK  6 active torsions:
REMARK  status: ('A' for Active; 'I' for Inactive)
REMARK    1  A    between atoms: C_2  and  C_4
REMARK    2  A    between atoms: C_7  and  N_8
REMARK    3  A    between atoms: N_8  and  C_9
REMARK    4  A    between atoms: C_9  and  C_10
REMARK    5  A    between atoms: C_10  and  C_11
REMARK    6  A    between atoms: C_15  and  C_16
REMARK                            x       y       z     vdW  Elec       q    Type
REMARK                         _______ _______ _______ _____ _____    ______ ____
ROOT
ATOM      1  C   UNL     1      45.586   7.740  12.814  0.00  0.00    +0.000 C 
ENDROOT
BRANCH   1   2
ATOM      2  N   UNL     1      46.943   7.202  12.872  0.00  0.00    +0.000 N 
ATOM      3  H   UNL     1      47.407   7.102  11.972  0.00  0.00    +0.000 HD
BRANCH   2   7
ATOM      4  C   UNL     1      47.718   4.122  15.659  0.00  0.00    +0.000 A 
ATOM      5  C   UNL     1      46.947   3.850  14.530  0.00  0.00    +0.000 A 
ATOM      6  C   UNL     1      46.697   4.857  13.592  0.00  0.00    +0.000 A 
ATOM      7  C   UNL     1      47.230   6.143  13.739  0.00  0.00    +0.000 A 
ATOM      8  C   UNL     1      47.988   6.405  14.891  0.00  0.00    +0.000 A 
ATOM      9  C   UNL     1      48.228   5.409  15.847  0.00  0.00    +0.000 A 
BRANCH   4  11
ATOM     10  N   UNL     1      46.985   2.879  17.618  0.00  0.00    +0.000 N 
ATOM     11  C   UNL     1      47.970   3.085  16.693  0.00  0.00    +0.000 C 
ATOM     12  O   UNL     1      48.997   2.422  16.704  0.00  0.00    +0.000 OA
ATOM     13  H   UNL     1      47.128   2.111  18.262  0.00  0.00    +0.000 HD
ATOM     14  H   UNL     1      46.043   3.221  17.495  0.00  0.00    +0.000 HD
ENDBRANCH   4  11
ENDBRANCH   2   7
ENDBRANCH   1   2
BRANCH   1  15
ATOM     15  C   UNL     1      44.986   7.596  11.411  0.00  0.00    +0.000 C 
BRANCH  15  16
ATOM     16  C   UNL     1      44.633   6.152  11.131  0.00  0.00    +0.000 A 
ATOM     17  C   UNL     1      43.502   5.572  11.714  0.00  0.00    +0.000 A 
ATOM     18  C   UNL     1      43.145   4.263  11.400  0.00  0.00    +0.000 A 
ATOM     19  C   UNL     1      43.891   3.540  10.468  0.00  0.00    +0.000 A 
ATOM     20  C   UNL     1      45.002   4.108   9.819  0.00  0.00    +0.000 A 
ATOM     21  C   UNL     1      45.384   5.406  10.205  0.00  0.00    +0.000 A 
BRANCH  20  22
ATOM     22  C   UNL     1      45.687   3.409   8.712  0.00  0.00    +0.000 A 
ATOM     23  C   UNL     1      45.817   2.022   8.674  0.00  0.00    +0.000 A 
ATOM     24  N   UNL     1      46.383   1.342   7.646  0.00  0.00    +0.000 NA
ATOM     25  C   UNL     1      46.817   2.115   6.628  0.00  0.00    +0.000 A 
ATOM     26  C   UNL     1      46.695   3.491   6.644  0.00  0.00    +0.000 A 
ATOM     27  N   UNL     1      46.129   4.167   7.675  0.00  0.00    +0.000 NA
ENDBRANCH  20  22
ENDBRANCH  15  16
ENDBRANCH   1  15
TORSDOF 6
ENDMDL
MODEL 6
REMARK VINA RESULT:    -6.998      1.906      2.601
REMARK INTER + INTRA:         -10.422
REMARK INTER:                  -9.695
REMARK INTRA:                  -0.727
REMARK UNBOUND:                -0.969
REMARK  Name = 
REMARK  6 active torsions:
REMARK  status: ('A' for Active; 'I' for Inactive)
REMARK    1  A    between atoms: C_2  and  C_4
REMARK    2  A    between atoms: C_7  and  N_8
REMARK    3  A    between atoms: N_8  and  C_9
REMARK    4  A    between atoms: C_9  and  C_10
REMARK    5  A    between atoms: C_10  and  C_11
REMARK    6  A    between atoms: C_15  and  C_16
REMARK                            x       y       z     vdW  Elec       q    Type
REMARK                         _______ _______ _______ _____ _____    ______ ____
ROOT
ATOM      1  C   UNL     1      44.604   3.802  11.879  0.00  0.00    +0.000 C 
ENDROOT
BRANCH   1   2
ATOM      2  N   UNL     1      44.023   3.136  10.716  0.00  0.00    +0.000 N 
ATOM      3  H   UNL     1      43.464   2.312  10.924  0.00  0.00    +0.000 HD
BRANCH   2   7
ATOM      4  C   UNL     1      46.493   2.793   7.305  0.00  0.00    +0.000 A 
ATOM      5  C   UNL     1      46.104   1.643   7.991  0.00  0.00    +0.000 A 
ATOM      6  C   UNL     1      45.273   1.742   9.111  0.00  0.00    +0.000 A 
ATOM      7  C   UNL     1      44.789   2.978   9.556  0.00  0.00    +0.000 A 
ATOM      8  C   UNL     1      45.206   4.127   8.866  0.00  0.00    +0.000 A 
ATOM      9  C   UNL     1      46.054   4.041   7.754  0.00  0.00    +0.000 A 
BRANCH   4  11
ATOM     10  N   UNL     1      48.712   2.408   6.382  0.00  0.00    +0.000 N 
ATOM     11  C   UNL     1      47.405   2.726   6.134  0.00  0.00    +0.000 C 
ATOM     12  O   UNL     1      47.006   2.913   4.993  0.00  0.00    +0.000 OA
ATOM     13  H   UNL     1      49.304   2.277   5.571  0.00  0.00    +0.000 HD
ATOM     14  H   UNL     1      49.017   2.010   7.258  0.00  0.00    +0.000 HD
ENDBRANCH   4  11
ENDBRANCH   2   7
ENDBRANCH   1   2
BRANCH   1  15
ATOM     15  C   UNL     1      43.897   5.130  12.175  0.00  0.00    +0.000 C 
BRANCH  15  16
ATOM     16  C   UNL     1      44.900   6.257  12.263  0.00  0.00    +0.000 A 
ATOM     17  C   UNL     1      44.602   7.516  11.729  0.00  0.00    +0.000 A 
ATOM     18  C   UNL     1      45.503   8.569  11.871  0.00  0.00    +0.000 A 
ATOM     19  C   UNL     1      46.687   8.384  12.586  0.00  0.00    +0.000 A 
ATOM     20  C   UNL     1      46.997   7.149  13.184  0.00  0.00    +0.000 A 
ATOM     21  C   UNL     1      46.105   6.082  12.967  0.00  0.00    +0.000 A 
BRANCH  20  22
ATOM     22  C   UNL     1      48.161   6.999  14.081  0.00  0.00    +0.000 A 
ATOM     23  C   UNL     1      49.372   7.646  13.844  0.00  0.00    +0.000 A 
ATOM     24  N   UNL     1      50.441   7.583  14.676  0.00  0.00    +0.000 NA
ATOM     25  C   UNL     1      50.251   6.838  15.785  0.00  0.00    +0.000 A 
ATOM     26  C   UNL     1      49.058   6.190  16.042  0.00  0.00    +0.000 A 
ATOM     27  N   UNL     1      47.991   6.256  15.206  0.00  0.00    +0.000 NA
ENDBRANCH  20  22
ENDBRANCH  15  16
ENDBRANCH   1  15
TORSDOF 6
ENDMDL
MODEL 7
REMARK VINA RESULT:    -6.556      2.980      5.206
REMARK INTER + INTRA:          -9.825
REMARK INTER:                  -9.076
REMARK INTRA:                  -0.749
REMARK UNBOUND:                -0.969
REMARK  Name = 
REMARK  6 active torsions:
REMARK  status: ('A' for Active; 'I' for Inactive)
REMARK    1  A    between atoms: C_2  and  C_4
REMARK    2  A    between atoms: C_7  and  N_8
REMARK    3  A    between atoms: N_8  and  C_9
REMARK    4  A    between atoms: C_9  and  C_10
REMARK    5  A    between atoms: C_10  and  C_11
REMARK    6  A    between atoms: C_15  and  C_16
REMARK                            x       y       z     vdW  Elec       q    Type
REMARK                         _______ _______ _______ _____ _____    ______ ____
ROOT
ATOM      1  C   UNL     1      48.465   6.572  14.436  0.00  0.00    +0.000 C 
ENDROOT
BRANCH   1   2
ATOM      2  N   UNL     1      47.142   6.982  13.967  0.00  0.00    +0.000 N 
ATOM      3  H   UNL     1      46.507   7.304  14.694  0.00  0.00    +0.000 HD
BRANCH   2   7
ATOM      4  C   UNL     1      44.987   4.699  11.140  0.00  0.00    +0.000 A 
ATOM      5  C   UNL     1      45.561   5.910  10.753  0.00  0.00    +0.000 A 
ATOM      6  C   UNL     1      46.290   6.666  11.675  0.00  0.00    +0.000 A 
ATOM      7  C   UNL     1      46.490   6.225  12.989  0.00  0.00    +0.000 A 
ATOM      8  C   UNL     1      45.890   5.014  13.367  0.00  0.00    +0.000 A 
ATOM      9  C   UNL     1      45.140   4.258  12.457  0.00  0.00    +0.000 A 
BRANCH   4  11
ATOM     10  N   UNL     1      44.112   4.324   8.901  0.00  0.00    +0.000 N 
ATOM     11  C   UNL     1      44.174   3.890  10.196  0.00  0.00    +0.000 C 
ATOM     12  O   UNL     1      43.610   2.863  10.547  0.00  0.00    +0.000 OA
ATOM     13  H   UNL     1      43.630   3.719   8.247  0.00  0.00    +0.000 HD
ATOM     14  H   UNL     1      44.752   5.008   8.525  0.00  0.00    +0.000 HD
ENDBRANCH   4  11
ENDBRANCH   2   7
ENDBRANCH   1   2
BRANCH   1  15
ATOM     15  C   UNL     1      48.581   6.692  15.959  0.00  0.00    +0.000 C 
BRANCH  15  16
ATOM     16  C   UNL     1      48.582   5.322  16.600  0.00  0.00    +0.000 A 
ATOM     17  C   UNL     1      47.389   4.607  16.748  0.00  0.00    +0.000 A 
ATOM     18  C   UNL     1      47.406   3.318  17.278  0.00  0.00    +0.000 A 
ATOM     19  C   UNL     1      48.619   2.719  17.621  0.00  0.00    +0.000 A 
ATOM     20  C   UNL     1      49.843   3.385  17.434  0.00  0.00    +0.000 A 
ATOM     21  C   UNL     1      49.796   4.710  16.963  0.00  0.00    +0.000 A 
BRANCH  20  22
ATOM     22  C   UNL     1      51.134   2.693  17.633  0.00  0.00    +0.000 A 
ATOM     23  C   UNL     1      52.245   3.334  18.177  0.00  0.00    +0.000 A 
ATOM     24  N   UNL     1      53.426   2.717  18.433  0.00  0.00    +0.000 NA
ATOM     25  C   UNL     1      53.456   1.404  18.126  0.00  0.00    +0.000 A 
ATOM     26  C   UNL     1      52.365   0.748  17.589  0.00  0.00    +0.000 A 
ATOM     27  N   UNL     1      51.186   1.369  17.334  0.00  0.00    +0.000 NA
ENDBRANCH  20  22
ENDBRANCH  15  16
ENDBRANCH   1  15
TORSDOF 6
ENDMDL
MODEL 8
REMARK VINA RESULT:    -6.372      3.572      7.956
REMARK INTER + INTRA:          -9.576
REMARK INTER:                  -8.836
REMARK INTRA:                  -0.740
REMARK UNBOUND:                -0.969
REMARK  Name = 
REMARK  6 active torsions:
REMARK  status: ('A' for Active; 'I' for Inactive)
REMARK    1  A    between atoms: C_2  and  C_4
REMARK    2  A    between atoms: C_7  and  N_8
REMARK    3  A    between atoms: N_8  and  C_9
REMARK    4  A    between atoms: C_9  and  C_10
REMARK    5  A    between atoms: C_10  and  C_11
REMARK    6  A    between atoms: C_15  and  C_16
REMARK                            x       y       z     vdW  Elec       q    Type
REMARK                         _______ _______ _______ _____ _____    ______ ____
ROOT
ATOM      1  C   UNL     1      48.852   7.148  16.058  0.00  0.00    +0.000 C 
ENDROOT
BRANCH   1   2
ATOM      2  N   UNL     1      48.417   6.030  16.893  0.00  0.00    +0.000 N 
ATOM      3  H   UNL     1      47.867   6.288  17.709  0.00  0.00    +0.000 HD
BRANCH   2   7
ATOM      4  C   UNL     1      51.048   2.779  17.490  0.00  0.00    +0.000 A 
ATOM      5  C   UNL     1      51.529   4.083  17.607  0.00  0.00    +0.000 A 
ATOM      6  C   UNL     1      50.664   5.167  17.427  0.00  0.00    +0.000 A 
ATOM      7  C   UNL     1      49.302   4.980  17.159  0.00  0.00    +0.000 A 
ATOM      8  C   UNL     1      48.840   3.662  17.026  0.00  0.00    +0.000 A 
ATOM      9  C   UNL     1      49.702   2.569  17.183  0.00  0.00    +0.000 A 
BRANCH   4  11
ATOM     10  N   UNL     1      51.374   0.427  18.023  0.00  0.00    +0.000 N 
ATOM     11  C   UNL     1      51.949   1.605  17.637  0.00  0.00    +0.000 C 
ATOM     12  O   UNL     1      53.145   1.676  17.395  0.00  0.00    +0.000 OA
ATOM     13  H   UNL     1      51.979  -0.386  18.034  0.00  0.00    +0.000 HD
ATOM     14  H   UNL     1      50.377   0.271  17.990  0.00  0.00    +0.000 HD
ENDBRANCH   4  11
ENDBRANCH   2   7
ENDBRANCH   1   2
BRANCH   1  15
ATOM     15  C   UNL     1      48.912   6.752  14.578  0.00  0.00    +0.000 C 
BRANCH  15  16
ATOM     16  C   UNL     1      47.590   7.033  13.900  0.00  0.00    +0.000 A 
ATOM     17  C   UNL     1      47.221   8.344  13.582  0.00  0.00    +0.000 A 
ATOM     18  C   UNL     1      46.033   8.591  12.898  0.00  0.00    +0.000 A 
ATOM     19  C   UNL     1      45.229   7.527  12.487  0.00  0.00    +0.000 A 
ATOM     20  C   UNL     1      45.595   6.192  12.738  0.00  0.00    +0.000 A 
ATOM     21  C   UNL     1      46.763   5.971  13.492  0.00  0.00    +0.000 A 
BRANCH  20  22
ATOM     22  C   UNL     1      44.838   5.064  12.158  0.00  0.00    +0.000 A 
ATOM     23  C   UNL     1      44.640   4.929  10.785  0.00  0.00    +0.000 A 
ATOM     24  N   UNL     1      44.006   3.876  10.210  0.00  0.00    +0.000 NA
ATOM     25  C   UNL     1      43.573   2.937  11.077  0.00  0.00    +0.000 A 
ATOM     26  C   UNL     1      43.760   3.049  12.441  0.00  0.00    +0.000 A 
ATOM     27  N   UNL     1      44.394   4.104  13.011  0.00  0.00    +0.000 NA
ENDBRANCH  20  22
ENDBRANCH  15  16
ENDBRANCH   1  15
TORSDOF 6
ENDMDL
MODEL 9
REMARK VINA RESULT:    -6.319      3.136      8.332
REMARK INTER + INTRA:          -9.505
REMARK INTER:                  -9.020
REMARK INTRA:                  -0.486
REMARK UNBOUND:                -0.969
REMARK  Name = 
REMARK  6 active torsions:
REMARK  status: ('A' for Active; 'I' for Inactive)
REMARK    1  A    between atoms: C_2  and  C_4
REMARK    2  A    between atoms: C_7  and  N_8
REMARK    3  A    between atoms: N_8  and  C_9
REMARK    4  A    between atoms: C_9  and  C_10
REMARK    5  A    between atoms: C_10  and  C_11
REMARK    6  A    between atoms: C_15  and  C_16
REMARK                            x       y       z     vdW  Elec       q    Type
REMARK                         _______ _______ _______ _____ _____    ______ ____
ROOT
ATOM      1  C   UNL     1      46.984   4.087  14.208  0.00  0.00    +0.000 C 
ENDROOT
BRANCH   1   2
ATOM      2  N   UNL     1      46.978   3.544  15.565  0.00  0.00    +0.000 N 
ATOM      3  H   UNL     1      46.138   3.738  16.105  0.00  0.00    +0.000 HD
BRANCH   2   7
ATOM      4  C   UNL     1      50.592   3.658  17.751  0.00  0.00    +0.000 A 
ATOM      5  C   UNL     1      49.930   4.849  17.454  0.00  0.00    +0.000 A 
ATOM      6  C   UNL     1      48.725   4.823  16.746  0.00  0.00    +0.000 A 
ATOM      7  C   UNL     1      48.138   3.617  16.344  0.00  0.00    +0.000 A 
ATOM      8  C   UNL     1      48.827   2.429  16.634  0.00  0.00    +0.000 A 
ATOM      9  C   UNL     1      50.045   2.445  17.326  0.00  0.00    +0.000 A 
BRANCH   4  11
ATOM     10  N   UNL     1      52.160   4.723  19.278  0.00  0.00    +0.000 N 
ATOM     11  C   UNL     1      51.893   3.653  18.469  0.00  0.00    +0.000 C 
ATOM     12  O   UNL     1      52.680   2.722  18.371  0.00  0.00    +0.000 OA
ATOM     13  H   UNL     1      53.007   4.668  19.830  0.00  0.00    +0.000 HD
ATOM     14  H   UNL     1      51.446   5.372  19.574  0.00  0.00    +0.000 HD
ENDBRANCH   4  11
ENDBRANCH   2   7
ENDBRANCH   1   2
BRANCH   1  15
ATOM     15  C   UNL     1      45.935   5.192  14.043  0.00  0.00    +0.000 C 
BRANCH  15  16
ATOM     16  C   UNL     1      45.009   4.876  12.890  0.00  0.00    +0.000 A 
ATOM     17  C   UNL     1      43.670   5.280  12.924  0.00  0.00    +0.000 A 
ATOM     18  C   UNL     1      42.840   5.045  11.830  0.00  0.00    +0.000 A 
ATOM     19  C   UNL     1      43.352   4.446  10.679  0.00  0.00    +0.000 A 
ATOM     20  C   UNL     1      44.706   4.077  10.586  0.00  0.00    +0.000 A 
ATOM     21  C   UNL     1      45.508   4.260  11.728  0.00  0.00    +0.000 A 
BRANCH  20  22
ATOM     22  C   UNL     1      45.289   3.603   9.314  0.00  0.00    +0.000 A 
ATOM     23  C   UNL     1      45.742   4.480   8.330  0.00  0.00    +0.000 A 
ATOM     24  N   UNL     1      46.339   4.084   7.178  0.00  0.00    +0.000 NA
ATOM     25  C   UNL     1      46.479   2.749   7.044  0.00  0.00    +0.000 A 
ATOM     26  C   UNL     1      46.040   1.862   8.008  0.00  0.00    +0.000 A 
ATOM     27  N   UNL     1      45.442   2.262   9.158  0.00  0.00    +0.000 NA
ENDBRANCH  20  22
ENDBRANCH  15  16
ENDBRANCH   1  15
TORSDOF 6
ENDMDL
