MODEL 1
REMARK VINA RESULT:    -8.438      0.000      0.000
REMARK INTER + INTRA:         -11.656
REMARK INTER:                 -10.905
REMARK INTRA:                  -0.751
REMARK UNBOUND:                -0.751
REMARK  Name = 
REMARK  5 active torsions:
REMARK  status: ('A' for Active; 'I' for Inactive)
REMARK    1  A    between atoms: C_2  and  C_4
REMARK    2  A    between atoms: C_8  and  N_9
REMARK    3  A    between atoms: N_9  and  C_10
REMARK    4  A    between atoms: C_10  and  C_11
REMARK    5  A    between atoms: C_16  and  C_17
REMARK                            x       y       z     vdW  Elec       q    Type
REMARK                         _______ _______ _______ _____ _____    ______ ____
ROOT
ATOM      1  C   UNL     1      43.219   6.447  10.981  0.00  0.00    +0.000 C 
ENDROOT
BRANCH   1   2
ATOM      2  C   UNL     1      43.601   5.007  10.775  0.00  0.00    +0.000 A 
ATOM      3  C   UNL     1      43.157   4.018  11.661  0.00  0.00    +0.000 A 
ATOM      4  C   UNL     1      43.475   2.687  11.427  0.00  0.00    +0.000 A 
ATOM      5  F   UNL     1      43.027   1.746  12.267  0.00  0.00    +0.000 F 
ATOM      6  C   UNL     1      44.217   2.310  10.311  0.00  0.00    +0.000 A 
ATOM      7  C   UNL     1      44.659   3.282   9.403  0.00  0.00    +0.000 A 
ATOM      8  C   UNL     1      44.375   4.632   9.670  0.00  0.00    +0.000 A 
BRANCH   7   9
ATOM      9  C   UNL     1      45.381   2.883   8.131  0.00  0.00    +0.000 C 
ATOM     10  C   UNL     1      46.141   1.562   8.304  0.00  0.00    +0.000 C 
ATOM     11  C   UNL     1      46.988   1.255   7.080  0.00  0.00    +0.000 C 
ATOM     12  O   UNL     1      47.861   2.343   6.783  0.00  0.00    +0.000 OA
ATOM     13  C   UNL     1      47.148   3.535   6.462  0.00  0.00    +0.000 C 
ATOM     14  C   UNL     1      46.326   4.001   7.653  0.00  0.00    +0.000 C 
ENDBRANCH   7   9
ENDBRANCH   1   2
BRANCH   1  15
ATOM     15  N   UNL     1      43.880   6.976  12.166  0.00  0.00    +0.000 N 
ATOM     16  H   UNL     1      43.325   6.837  13.008  0.00  0.00    +0.000 HD
BRANCH  15  21
ATOM     17  C   UNL     1      46.896   5.381  13.625  0.00  0.00    +0.000 A 
ATOM     18  C   UNL     1      47.926   6.012  12.924  0.00  0.00    +0.000 A 
ATOM     19  C   UNL     1      47.616   6.981  11.978  0.00  0.00    +0.000 A 
ATOM     20  C   UNL     1      46.281   7.300  11.718  0.00  0.00    +0.000 A 
ATOM     21  C   UNL     1      45.227   6.638  12.364  0.00  0.00    +0.000 A 
ATOM     22  C   UNL     1      45.557   5.696  13.349  0.00  0.00    +0.000 A 
BRANCH  17  24
ATOM     23  N   UNL     1      47.189   4.756  15.958  0.00  0.00    +0.000 N 
ATOM     24  C   UNL     1      47.190   4.348  14.652  0.00  0.00    +0.000 C 
ATOM     25  O   UNL     1      47.398   3.184  14.352  0.00  0.00    +0.000 OA
ATOM     26  H   UNL     1      47.291   4.029  16.654  0.00  0.00    +0.000 HD
ATOM     27  H   UNL     1      46.768   5.629  16.248  0.00  0.00    +0.000 HD
ENDBRANCH  17  24
ENDBRANCH  15  21
ENDBRANCH   1  15
TORSDOF 5
ENDMDL
MODEL 2
REMARK VINA RESULT:    -8.265      2.999      6.550
REMARK INTER + INTRA:         -11.433
REMARK INTER:                 -10.565
REMARK INTRA:                  -0.868
REMARK UNBOUND:                -0.751
REMARK  Name = 
REMARK  5 active torsions:
REMARK  status: ('A' for Active; 'I' for Inactive)
REMARK    1  A    between atoms: C_2  and  C_4
REMARK    2  A    between atoms: C_8  and  N_9
REMARK    3  A    between atoms: N_9  and  C_10
REMARK    4  A    between atoms: C_10  and  C_11
REMARK    5  A    between atoms: C_16  and  C_17
REMARK                            x       y       z     vdW  Elec       q    Type
REMARK                         _______ _______ _______ _____ _____    ______ ____
ROOT
ATOM      1  C   UNL     1      43.892   4.925  10.684  0.00  0.00    +0.000 C 
ENDROOT
BRANCH   1   2
ATOM      2  C   UNL     1      45.012   5.123  11.669  0.00  0.00    +0.000 A 
ATOM      3  C   UNL     1      45.466   4.059  12.455  0.00  0.00    +0.000 A 
ATOM      4  C   UNL     1      46.536   4.247  13.321  0.00  0.00    +0.000 A 
ATOM      5  F   UNL     1      46.978   3.216  14.053  0.00  0.00    +0.000 F 
ATOM      6  C   UNL     1      47.181   5.477  13.411  0.00  0.00    +0.000 A 
ATOM      7  C   UNL     1      46.752   6.553  12.622  0.00  0.00    +0.000 A 
ATOM      8  C   UNL     1      45.639   6.370  11.783  0.00  0.00    +0.000 A 
BRANCH   7   9
ATOM      9  C   UNL     1      47.503   7.869  12.631  0.00  0.00    +0.000 C 
ATOM     10  C   UNL     1      46.585   9.045  12.271  0.00  0.00    +0.000 C 
ATOM     11  C   UNL     1      47.379  10.333  12.125  0.00  0.00    +0.000 C 
ATOM     12  O   UNL     1      48.438  10.170  11.184  0.00  0.00    +0.000 OA
ATOM     13  C   UNL     1      49.383   9.186  11.600  0.00  0.00    +0.000 C 
ATOM     14  C   UNL     1      48.724   7.820  11.692  0.00  0.00    +0.000 C 
ENDBRANCH   7   9
ENDBRANCH   1   2
BRANCH   1  15
ATOM     15  N   UNL     1      44.415   4.914   9.325  0.00  0.00    +0.000 N 
ATOM     16  H   UNL     1      44.987   5.733   9.128  0.00  0.00    +0.000 HD
BRANCH  15  21
ATOM     17  C   UNL     1      46.472   2.623   7.253  0.00  0.00    +0.000 A 
ATOM     18  C   UNL     1      46.161   1.378   7.804  0.00  0.00    +0.000 A 
ATOM     19  C   UNL     1      45.255   1.299   8.853  0.00  0.00    +0.000 A 
ATOM     20  C   UNL     1      44.678   2.465   9.365  0.00  0.00    +0.000 A 
ATOM     21  C   UNL     1      45.019   3.732   8.870  0.00  0.00    +0.000 A 
ATOM     22  C   UNL     1      45.900   3.791   7.782  0.00  0.00    +0.000 A 
BRANCH  17  24
ATOM     23  N   UNL     1      48.746   2.498   6.400  0.00  0.00    +0.000 N 
ATOM     24  C   UNL     1      47.428   2.744   6.123  0.00  0.00    +0.000 C 
ATOM     25  O   UNL     1      47.059   3.025   4.994  0.00  0.00    +0.000 OA
ATOM     26  H   UNL     1      49.375   2.485   5.607  0.00  0.00    +0.000 HD
ATOM     27  H   UNL     1      49.038   2.016   7.239  0.00  0.00    +0.000 HD
ENDBRANCH  17  24
ENDBRANCH  15  21
ENDBRANCH   1  15
TORSDOF 5
ENDMDL
MODEL 3
REMARK VINA RESULT:    -8.022      2.892      7.126
REMARK INTER + INTRA:         -11.118
REMARK INTER:                 -10.213
REMARK INTRA:                  -0.905
REMARK UNBOUND:                -0.751
REMARK  Name = 
REMARK  5 active torsions:
REMARK  status: ('A' for Active; 'I' for Inactive)
REMARK    1  A    between atoms: C_2  and  C_4
REMARK    2  A    between atoms: C_8  and  N_9
REMARK    3  A    between atoms: N_9  and  C_10
REMARK    4  A    between atoms: C_10  and  C_11
REMARK    5  A    between atoms: C_16  and  C_17
REMARK                            x       y       z     vdW  Elec       q    Type
REMARK                         _______ _______ _______ _____ _____    ______ ____
ROOT
ATOM      1  C   UNL     1      44.393   5.284  11.026  0.00  0.00    +0.000 C 
ENDROOT
BRANCH   1   2
ATOM      2  C   UNL     1      45.655   5.641  11.764  0.00  0.00    +0.000 A 
ATOM      3  C   UNL     1      46.541   6.591  11.244  0.00  0.00    +0.000 A 
ATOM      4  C   UNL     1      47.674   6.946  11.963  0.00  0.00    +0.000 A 
ATOM      5  F   UNL     1      48.503   7.872  11.467  0.00  0.00    +0.000 F 
ATOM      6  C   UNL     1      47.941   6.384  13.209  0.00  0.00    +0.000 A 
ATOM      7  C   UNL     1      47.060   5.442  13.756  0.00  0.00    +0.000 A 
ATOM      8  C   UNL     1      45.939   5.051  13.002  0.00  0.00    +0.000 A 
BRANCH   7   9
ATOM      9  C   UNL     1      47.279   4.895  15.152  0.00  0.00    +0.000 C 
ATOM     10  C   UNL     1      48.385   5.660  15.890  0.00  0.00    +0.000 C 
ATOM     11  C   UNL     1      48.706   5.003  17.223  0.00  0.00    +0.000 C 
ATOM     12  O   UNL     1      49.033   3.627  17.043  0.00  0.00    +0.000 OA
ATOM     13  C   UNL     1      47.943   2.880  16.506  0.00  0.00    +0.000 C 
ATOM     14  C   UNL     1      47.585   3.386  15.118  0.00  0.00    +0.000 C 
ENDBRANCH   7   9
ENDBRANCH   1   2
BRANCH   1  15
ATOM     15  N   UNL     1      44.660   5.174   9.600  0.00  0.00    +0.000 N 
ATOM     16  H   UNL     1      45.233   5.942   9.257  0.00  0.00    +0.000 HD
BRANCH  15  21
ATOM     17  C   UNL     1      46.377   2.680   7.455  0.00  0.00    +0.000 A 
ATOM     18  C   UNL     1      45.921   1.473   7.992  0.00  0.00    +0.000 A 
ATOM     19  C   UNL     1      45.029   1.491   9.056  0.00  0.00    +0.000 A 
ATOM     20  C   UNL     1      44.613   2.710   9.597  0.00  0.00    +0.000 A 
ATOM     21  C   UNL     1      45.103   3.934   9.116  0.00  0.00    +0.000 A 
ATOM     22  C   UNL     1      45.966   3.900   8.012  0.00  0.00    +0.000 A 
BRANCH  17  24
ATOM     23  N   UNL     1      48.576   2.197   6.534  0.00  0.00    +0.000 N 
ATOM     24  C   UNL     1      47.323   2.699   6.309  0.00  0.00    +0.000 C 
ATOM     25  O   UNL     1      46.996   3.119   5.211  0.00  0.00    +0.000 OA
ATOM     26  H   UNL     1      49.180   2.123   5.725  0.00  0.00    +0.000 HD
ATOM     27  H   UNL     1      48.786   1.614   7.332  0.00  0.00    +0.000 HD
ENDBRANCH  17  24
ENDBRANCH  15  21
ENDBRANCH   1  15
TORSDOF 5
ENDMDL
MODEL 4
REMARK VINA RESULT:    -7.515      2.378      3.401
REMARK INTER + INTRA:         -10.463
REMARK INTER:                  -9.390
REMARK INTRA:                  -1.073
REMARK UNBOUND:                -0.751
REMARK  Name = 
REMARK  5 active torsions:
REMARK  status: ('A' for Active; 'I' for Inactive)
REMARK    1  A    between atoms: C_2  and  C_4
REMARK    2  A    between atoms: C_8  and  N_9
REMARK    3  A    between atoms: N_9  and  C_10
REMARK    4  A    between atoms: C_10  and  C_11
REMARK    5  A    between atoms: C_16  and  C_17
REMARK                            x       y       z     vdW  Elec       q    Type
REMARK                         _______ _______ _______ _____ _____    ______ ____
ROOT
ATOM      1  C   UNL     1      46.379   4.312  13.756  0.00  0.00    +0.000 C 
ENDROOT
BRANCH   1   2
ATOM      2  C   UNL     1      45.331   4.332  12.676  0.00  0.00    +0.000 A 
ATOM      3  C   UNL     1      44.095   4.950  12.893  0.00  0.00    +0.000 A 
ATOM      4  C   UNL     1      43.160   5.004  11.868  0.00  0.00    +0.000 A 
ATOM      5  F   UNL     1      41.989   5.619  12.079  0.00  0.00    +0.000 F 
ATOM      6  C   UNL     1      43.435   4.467  10.614  0.00  0.00    +0.000 A 
ATOM      7  C   UNL     1      44.672   3.855  10.370  0.00  0.00    +0.000 A 
ATOM      8  C   UNL     1      45.596   3.761  11.425  0.00  0.00    +0.000 A 
BRANCH   7   9
ATOM      9  C   UNL     1      45.030   3.355   8.985  0.00  0.00    +0.000 C 
ATOM     10  C   UNL     1      45.666   1.959   9.037  0.00  0.00    +0.000 C 
ATOM     11  C   UNL     1      46.167   1.537   7.665  0.00  0.00    +0.000 C 
ATOM     12  O   UNL     1      47.055   2.514   7.127  0.00  0.00    +0.000 OA
ATOM     13  C   UNL     1      46.416   3.773   6.926  0.00  0.00    +0.000 C 
ATOM     14  C   UNL     1      45.949   4.350   8.253  0.00  0.00    +0.000 C 
ENDBRANCH   7   9
ENDBRANCH   1   2
BRANCH   1  15
ATOM     15  N   UNL     1      46.543   5.645  14.319  0.00  0.00    +0.000 N 
ATOM     16  H   UNL     1      46.986   5.623  15.235  0.00  0.00    +0.000 HD
BRANCH  15  21
ATOM     17  C   UNL     1      46.826   8.753  12.310  0.00  0.00    +0.000 A 
ATOM     18  C   UNL     1      48.083   8.603  11.721  0.00  0.00    +0.000 A 
ATOM     19  C   UNL     1      48.829   7.460  11.979  0.00  0.00    +0.000 A 
ATOM     20  C   UNL     1      48.329   6.481  12.841  0.00  0.00    +0.000 A 
ATOM     21  C   UNL     1      47.097   6.636  13.493  0.00  0.00    +0.000 A 
ATOM     22  C   UNL     1      46.336   7.773  13.187  0.00  0.00    +0.000 A 
BRANCH  17  24
ATOM     23  N   UNL     1      44.713   9.938  12.523  0.00  0.00    +0.000 N 
ATOM     24  C   UNL     1      45.996   9.957  12.049  0.00  0.00    +0.000 C 
ATOM     25  O   UNL     1      46.440  10.930  11.461  0.00  0.00    +0.000 OA
ATOM     26  H   UNL     1      44.187  10.798  12.429  0.00  0.00    +0.000 HD
ATOM     27  H   UNL     1      44.409   9.277  13.226  0.00  0.00    +0.000 HD
ENDBRANCH  17  24
ENDBRANCH  15  21
ENDBRANCH   1  15
TORSDOF 5
ENDMDL
MODEL 5
REMARK VINA RESULT:    -7.443      2.041      2.697
REMARK INTER + INTRA:         -10.369
REMARK INTER:                  -9.387
REMARK INTRA:                  -0.982
REMARK UNBOUND:                -0.751
REMARK  Name = 
REMARK  5 active torsions:
REMARK  status: ('A' for Active; 'I' for Inactive)
REMARK    1  A    between atoms: C_2  and  C_4
REMARK    2  A    between atoms: C_8  and  N_9
REMARK    3  A    between atoms: N_9  and  C_10
REMARK    4  A    between atoms: C_10  and  C_11
REMARK    5  A    between atoms: C_16  and  C_17
REMARK                            x       y       z     vdW  Elec       q    Type
REMARK                         _______ _______ _______ _____ _____    ______ ____
ROOT
ATOM      1  C   UNL     1      43.712   6.409  11.342  0.00  0.00    +0.000 C 
ENDROOT
BRANCH   1   2
ATOM      2  C   UNL     1      43.903   4.961  10.981  0.00  0.00    +0.000 A 
ATOM      3  C   UNL     1      43.313   3.951  11.749  0.00  0.00    +0.000 A 
ATOM      4  C   UNL     1      43.457   2.622  11.371  0.00  0.00    +0.000 A 
ATOM      5  F   UNL     1      42.869   1.665  12.099  0.00  0.00    +0.000 F 
ATOM      6  C   UNL     1      44.167   2.273  10.226  0.00  0.00    +0.000 A 
ATOM      7  C   UNL     1      44.755   3.269   9.434  0.00  0.00    +0.000 A 
ATOM      8  C   UNL     1      44.646   4.608   9.848  0.00  0.00    +0.000 A 
BRANCH   7   9
ATOM      9  C   UNL     1      45.446   2.918   8.132  0.00  0.00    +0.000 C 
ATOM     10  C   UNL     1      46.225   1.601   8.245  0.00  0.00    +0.000 C 
ATOM     11  C   UNL     1      47.042   1.341   6.989  0.00  0.00    +0.000 C 
ATOM     12  O   UNL     1      47.895   2.448   6.702  0.00  0.00    +0.000 OA
ATOM     13  C   UNL     1      47.159   3.641   6.437  0.00  0.00    +0.000 C 
ATOM     14  C   UNL     1      46.365   4.061   7.663  0.00  0.00    +0.000 C 
ENDBRANCH   7   9
ENDBRANCH   1   2
BRANCH   1  15
ATOM     15  N   UNL     1      44.245   6.669  12.672  0.00  0.00    +0.000 N 
ATOM     16  H   UNL     1      43.939   5.975  13.350  0.00  0.00    +0.000 HD
BRANCH  15  21
ATOM     17  C   UNL     1      47.475   8.478  12.414  0.00  0.00    +0.000 A 
ATOM     18  C   UNL     1      48.386   7.504  12.829  0.00  0.00    +0.000 A 
ATOM     19  C   UNL     1      47.927   6.241  13.179  0.00  0.00    +0.000 A 
ATOM     20  C   UNL     1      46.559   5.960  13.135  0.00  0.00    +0.000 A 
ATOM     21  C   UNL     1      45.618   6.938  12.780  0.00  0.00    +0.000 A 
ATOM     22  C   UNL     1      46.101   8.193  12.386  0.00  0.00    +0.000 A 
BRANCH  17  24
ATOM     23  N   UNL     1      47.150  10.889  12.417  0.00  0.00    +0.000 N 
ATOM     24  C   UNL     1      47.931   9.836  12.022  0.00  0.00    +0.000 C 
ATOM     25  O   UNL     1      48.965  10.013  11.399  0.00  0.00    +0.000 OA
ATOM     26  H   UNL     1      47.519  11.813  12.233  0.00  0.00    +0.000 HD
ATOM     27  H   UNL     1      46.452  10.797  13.143  0.00  0.00    +0.000 HD
ENDBRANCH  17  24
ENDBRANCH  15  21
ENDBRANCH   1  15
TORSDOF 5
ENDMDL
MODEL 6
REMARK VINA RESULT:    -7.391      3.455      7.083
REMARK INTER + INTRA:         -10.303
REMARK INTER:                  -9.656
REMARK INTRA:                  -0.647
REMARK UNBOUND:                -0.751
REMARK  Name = 
REMARK  5 active torsions:
REMARK  status: ('A' for Active; 'I' for Inactive)
REMARK    1  A    between atoms: C_2  and  C_4
REMARK    2  A    between atoms: C_8  and  N_9
REMARK    3  A    between atoms: N_9  and  C_10
REMARK    4  A    between atoms: C_10  and  C_11
REMARK    5  A    between atoms: C_16  and  C_17
REMARK                            x       y       z     vdW  Elec       q    Type
REMARK                         _______ _______ _______ _____ _____    ______ ____
ROOT
ATOM      1  C   UNL     1      44.782   5.546  10.879  0.00  0.00    +0.000 C 
ENDROOT
BRANCH   1   2
ATOM      2  C   UNL     1      45.478   6.778  11.390  0.00  0.00    +0.000 A 
ATOM      3  C   UNL     1      44.752   7.939  11.678  0.00  0.00    +0.000 A 
ATOM      4  C   UNL     1      45.403   9.050  12.199  0.00  0.00    +0.000 A 
ATOM      5  F   UNL     1      44.696  10.148  12.493  0.00  0.00    +0.000 F 
ATOM      6  C   UNL     1      46.770   9.027  12.459  0.00  0.00    +0.000 A 
ATOM      7  C   UNL     1      47.514   7.869  12.192  0.00  0.00    +0.000 A 
ATOM      8  C   UNL     1      46.859   6.765  11.620  0.00  0.00    +0.000 A 
BRANCH   7   9
ATOM      9  C   UNL     1      48.982   7.789  12.561  0.00  0.00    +0.000 C 
ATOM     10  C   UNL     1      49.340   8.788  13.670  0.00  0.00    +0.000 C 
ATOM     11  C   UNL     1      50.840   8.812  13.918  0.00  0.00    +0.000 C 
ATOM     12  O   UNL     1      51.549   9.074  12.709  0.00  0.00    +0.000 OA
ATOM     13  C   UNL     1      51.343   8.056  11.731  0.00  0.00    +0.000 C 
ATOM     14  C   UNL     1      49.880   7.996  11.326  0.00  0.00    +0.000 C 
ENDBRANCH   7   9
ENDBRANCH   1   2
BRANCH   1  15
ATOM     15  N   UNL     1      45.089   5.346   9.469  0.00  0.00    +0.000 N 
ATOM     16  H   UNL     1      45.784   6.008   9.131  0.00  0.00    +0.000 HD
BRANCH  15  21
ATOM     17  C   UNL     1      46.516   2.549   7.492  0.00  0.00    +0.000 A 
ATOM     18  C   UNL     1      45.850   1.445   8.030  0.00  0.00    +0.000 A 
ATOM     19  C   UNL     1      44.914   1.634   9.038  0.00  0.00    +0.000 A 
ATOM     20  C   UNL     1      44.662   2.920   9.523  0.00  0.00    +0.000 A 
ATOM     21  C   UNL     1      45.361   4.037   9.043  0.00  0.00    +0.000 A 
ATOM     22  C   UNL     1      46.269   3.836   7.994  0.00  0.00    +0.000 A 
BRANCH  17  24
ATOM     23  N   UNL     1      47.354   3.167   5.294  0.00  0.00    +0.000 N 
ATOM     24  C   UNL     1      47.516   2.386   6.406  0.00  0.00    +0.000 C 
ATOM     25  O   UNL     1      48.453   1.611   6.504  0.00  0.00    +0.000 OA
ATOM     26  H   UNL     1      48.093   3.122   4.603  0.00  0.00    +0.000 HD
ATOM     27  H   UNL     1      46.761   3.986   5.295  0.00  0.00    +0.000 HD
ENDBRANCH  17  24
ENDBRANCH  15  21
ENDBRANCH   1  15
TORSDOF 5
ENDMDL
MODEL 7
REMARK VINA RESULT:    -7.290      3.928      7.466
REMARK INTER + INTRA:         -10.172
REMARK INTER:                  -9.500
REMARK INTRA:                  -0.671
REMARK UNBOUND:                -0.751
REMARK  Name = 
REMARK  5 active torsions:
REMARK  status: ('A' for Active; 'I' for Inactive)
REMARK    1  A    between atoms: C_2  and  C_4
REMARK    2  A    between atoms: C_8  and  N_9
REMARK    3  A    between atoms: N_9  and  C_10
REMARK    4  A    between atoms: C_10  and  C_11
REMARK    5  A    between atoms: C_16  and  C_17
REMARK                            x       y       z     vdW  Elec       q    Type
REMARK                         _______ _______ _______ _____ _____    ______ ____
ROOT
ATOM      1  C   UNL     1      44.313   5.251  11.096  0.00  0.00    +0.000 C 
ENDROOT
BRANCH   1   2
ATOM      2  C   UNL     1      45.093   6.404  11.668  0.00  0.00    +0.000 A 
ATOM      3  C   UNL     1      46.203   6.175  12.490  0.00  0.00    +0.000 A 
ATOM      4  C   UNL     1      46.943   7.250  12.966  0.00  0.00    +0.000 A 
ATOM      5  F   UNL     1      48.016   7.020  13.732  0.00  0.00    +0.000 F 
ATOM      6  C   UNL     1      46.612   8.558  12.627  0.00  0.00    +0.000 A 
ATOM      7  C   UNL     1      45.513   8.809  11.793  0.00  0.00    +0.000 A 
ATOM      8  C   UNL     1      44.740   7.722  11.353  0.00  0.00    +0.000 A 
BRANCH   7   9
ATOM      9  C   UNL     1      45.197  10.218  11.331  0.00  0.00    +0.000 C 
ATOM     10  C   UNL     1      46.104  11.251  12.011  0.00  0.00    +0.000 C 
ATOM     11  C   UNL     1      45.673  12.668  11.664  0.00  0.00    +0.000 C 
ATOM     12  O   UNL     1      44.297  12.869  11.980  0.00  0.00    +0.000 OA
ATOM     13  C   UNL     1      43.439  12.016  11.225  0.00  0.00    +0.000 C 
ATOM     14  C   UNL     1      43.712  10.558  11.558  0.00  0.00    +0.000 C 
ENDBRANCH   7   9
ENDBRANCH   1   2
BRANCH   1  15
ATOM     15  N   UNL     1      44.535   5.159   9.660  0.00  0.00    +0.000 N 
ATOM     16  H   UNL     1      45.054   5.957   9.301  0.00  0.00    +0.000 HD
BRANCH  15  21
ATOM     17  C   UNL     1      46.330   2.768   7.463  0.00  0.00    +0.000 A 
ATOM     18  C   UNL     1      45.934   1.536   7.990  0.00  0.00    +0.000 A 
ATOM     19  C   UNL     1      45.056   1.503   9.067  0.00  0.00    +0.000 A 
ATOM     20  C   UNL     1      44.595   2.696   9.628  0.00  0.00    +0.000 A 
ATOM     21  C   UNL     1      45.025   3.945   9.155  0.00  0.00    +0.000 A 
ATOM     22  C   UNL     1      45.874   3.962   8.041  0.00  0.00    +0.000 A 
BRANCH  17  24
ATOM     23  N   UNL     1      48.580   2.589   6.556  0.00  0.00    +0.000 N 
ATOM     24  C   UNL     1      47.259   2.842   6.306  0.00  0.00    +0.000 C 
ATOM     25  O   UNL     1      46.864   3.092   5.179  0.00  0.00    +0.000 OA
ATOM     26  H   UNL     1      49.188   2.544   5.748  0.00  0.00    +0.000 HD
ATOM     27  H   UNL     1      48.888   2.129   7.403  0.00  0.00    +0.000 HD
ENDBRANCH  17  24
ENDBRANCH  15  21
ENDBRANCH   1  15
TORSDOF 5
ENDMDL
MODEL 8
REMARK VINA RESULT:    -7.168      2.523      2.983
REMARK INTER + INTRA:         -10.014
REMARK INTER:                  -9.353
REMARK INTRA:                  -0.661
REMARK UNBOUND:                -0.751
REMARK  Name = 
REMARK  5 active torsions:
REMARK  status: ('A' for Active; 'I' for Inactive)
REMARK    1  A    between atoms: C_2  and  C_4
REMARK    2  A    between atoms: C_8  and  N_9
REMARK    3  A    between atoms: N_9  and  C_10
REMARK    4  A    between atoms: C_10  and  C_11
REMARK    5  A    between atoms: C_16  and  C_17
REMARK                            x       y       z     vdW  Elec       q    Type
REMARK                         _______ _______ _______ _____ _____    ______ ____
ROOT
ATOM      1  C   UNL     1      45.101   6.574  10.936  0.00  0.00    +0.000 C 
ENDROOT
BRANCH   1   2
ATOM      2  C   UNL     1      44.858   5.124  10.613  0.00  0.00    +0.000 A 
ATOM      3  C   UNL     1      43.983   4.357  11.391  0.00  0.00    +0.000 A 
ATOM      4  C   UNL     1      43.730   3.036  11.047  0.00  0.00    +0.000 A 
ATOM      5  F   UNL     1      42.874   2.318  11.785  0.00  0.00    +0.000 F 
ATOM      6  C   UNL     1      44.320   2.458   9.927  0.00  0.00    +0.000 A 
ATOM      7  C   UNL     1      45.188   3.212   9.125  0.00  0.00    +0.000 A 
ATOM      8  C   UNL     1      45.477   4.534   9.504  0.00  0.00    +0.000 A 
BRANCH   7   9
ATOM      9  C   UNL     1      45.760   2.635   7.846  0.00  0.00    +0.000 C 
ATOM     10  C   UNL     1      46.383   1.252   8.081  0.00  0.00    +0.000 C 
ATOM     11  C   UNL     1      47.094   0.754   6.833  0.00  0.00    +0.000 C 
ATOM     12  O   UNL     1      48.055   1.708   6.384  0.00  0.00    +0.000 OA
ATOM     13  C   UNL     1      47.453   2.945   6.009  0.00  0.00    +0.000 C 
ATOM     14  C   UNL     1      46.782   3.595   7.209  0.00  0.00    +0.000 C 
ENDBRANCH   7   9
ENDBRANCH   1   2
BRANCH   1  15
ATOM     15  N   UNL     1      46.005   6.689  12.072  0.00  0.00    +0.000 N 
ATOM     16  H   UNL     1      46.474   5.810  12.279  0.00  0.00    +0.000 HD
BRANCH  15  21
ATOM     17  C   UNL     1      49.197   8.581  12.057  0.00  0.00    +0.000 A 
ATOM     18  C   UNL     1      48.757   9.892  12.257  0.00  0.00    +0.000 A 
ATOM     19  C   UNL     1      47.400  10.143  12.413  0.00  0.00    +0.000 A 
ATOM     20  C   UNL     1      46.484   9.090  12.347  0.00  0.00    +0.000 A 
ATOM     21  C   UNL     1      46.894   7.774  12.088  0.00  0.00    +0.000 A 
ATOM     22  C   UNL     1      48.270   7.530  11.978  0.00  0.00    +0.000 A 
BRANCH  17  24
ATOM     23  N   UNL     1      50.966   7.264  11.032  0.00  0.00    +0.000 N 
ATOM     24  C   UNL     1      50.641   8.274  11.897  0.00  0.00    +0.000 C 
ATOM     25  O   UNL     1      51.503   8.904  12.487  0.00  0.00    +0.000 OA
ATOM     26  H   UNL     1      51.953   7.128  10.853  0.00  0.00    +0.000 HD
ATOM     27  H   UNL     1      50.312   6.913  10.346  0.00  0.00    +0.000 HD
ENDBRANCH  17  24
ENDBRANCH  15  21
ENDBRANCH   1  15
TORSDOF 5
ENDMDL
MODEL 9
REMARK VINA RESULT:    -7.156      2.523      3.096
REMARK INTER + INTRA:          -9.998
REMARK INTER:                  -9.124
REMARK INTRA:                  -0.874
REMARK UNBOUND:                -0.751
REMARK  Name = 
REMARK  5 active torsions:
REMARK  status: ('A' for Active; 'I' for Inactive)
REMARK    1  A    between atoms: C_2  and  C_4
REMARK    2  A    between atoms: C_8  and  N_9
REMARK    3  A    between atoms: N_9  and  C_10
REMARK    4  A    between atoms: C_10  and  C_11
REMARK    5  A    between atoms: C_16  and  C_17
REMARK                            x       y       z     vdW  Elec       q    Type
REMARK                         _______ _______ _______ _____ _____    ______ ____
ROOT
ATOM      1  C   UNL     1      46.112   4.706  13.714  0.00  0.00    +0.000 C 
ENDROOT
BRANCH   1   2
ATOM      2  C   UNL     1      45.112   4.648  12.592  0.00  0.00    +0.000 A 
ATOM      3  C   UNL     1      43.869   5.279  12.711  0.00  0.00    +0.000 A 
ATOM      4  C   UNL     1      42.979   5.260  11.646  0.00  0.00    +0.000 A 
ATOM      5  F   UNL     1      41.801   5.886  11.762  0.00  0.00    +0.000 F 
ATOM      6  C   UNL     1      43.306   4.636  10.446  0.00  0.00    +0.000 A 
ATOM      7  C   UNL     1      44.552   4.010  10.299  0.00  0.00    +0.000 A 
ATOM      8  C   UNL     1      45.429   3.991  11.396  0.00  0.00    +0.000 A 
BRANCH   7   9
ATOM      9  C   UNL     1      44.967   3.413   8.969  0.00  0.00    +0.000 C 
ATOM     10  C   UNL     1      45.576   2.015   9.144  0.00  0.00    +0.000 C 
ATOM     11  C   UNL     1      46.135   1.495   7.829  0.00  0.00    +0.000 C 
ATOM     12  O   UNL     1      47.066   2.422   7.273  0.00  0.00    +0.000 OA
ATOM     13  C   UNL     1      46.459   3.673   6.959  0.00  0.00    +0.000 C 
ATOM     14  C   UNL     1      45.939   4.344   8.220  0.00  0.00    +0.000 C 
ENDBRANCH   7   9
ENDBRANCH   1   2
BRANCH   1  15
ATOM     15  N   UNL     1      46.440   6.091  14.022  0.00  0.00    +0.000 N 
ATOM     16  H   UNL     1      46.406   6.280  15.022  0.00  0.00    +0.000 HD
BRANCH  15  21
ATOM     17  C   UNL     1      49.822   7.580  13.683  0.00  0.00    +0.000 A 
ATOM     18  C   UNL     1      49.874   7.872  12.318  0.00  0.00    +0.000 A 
ATOM     19  C   UNL     1      48.776   7.590  11.514  0.00  0.00    +0.000 A 
ATOM     20  C   UNL     1      47.640   6.995  12.070  0.00  0.00    +0.000 A 
ATOM     21  C   UNL     1      47.586   6.636  13.425  0.00  0.00    +0.000 A 
ATOM     22  C   UNL     1      48.683   6.970  14.231  0.00  0.00    +0.000 A 
BRANCH  17  24
ATOM     23  N   UNL     1      52.203   7.976  13.983  0.00  0.00    +0.000 N 
ATOM     24  C   UNL     1      50.972   7.878  14.574  0.00  0.00    +0.000 C 
ATOM     25  O   UNL     1      50.829   8.053  15.773  0.00  0.00    +0.000 OA
ATOM     26  H   UNL     1      52.963   8.277  14.580  0.00  0.00    +0.000 HD
ATOM     27  H   UNL     1      52.311   8.100  12.986  0.00  0.00    +0.000 HD
ENDBRANCH  17  24
ENDBRANCH  15  21
ENDBRANCH   1  15
TORSDOF 5
ENDMDL
