MODEL 1
REMARK VINA RESULT:    -7.880      0.000      0.000
REMARK INTER + INTRA:         -10.217
REMARK INTER:                  -9.723
REMARK INTRA:                  -0.494
REMARK UNBOUND:                -0.494
REMARK  Name = 
REMARK  4 active torsions:
REMARK  status: ('A' for Active; 'I' for Inactive)
REMARK    1  A    between atoms: C_2  and  C_4
REMARK    2  A    between atoms: N_8  and  C_9
REMARK    3  A    between atoms: C_9  and  C_10
REMARK    4  A    between atoms: C_10  and  C_11
REMARK                            x       y       z     vdW  Elec       q    Type
REMARK                         _______ _______ _______ _____ _____    ______ ____
ROOT
ATOM      1  C   UNL     1      46.325   2.368   7.868  0.00  0.00    +0.000 A 
ATOM      2  C   UNL     1      46.320   3.742   7.653  0.00  0.00    +0.000 A 
ATOM      3  C   UNL     1      45.422   4.535   8.370  0.00  0.00    +0.000 A 
ATOM      4  C   UNL     1      44.585   3.948   9.318  0.00  0.00    +0.000 A 
ATOM      5  N   UNL     1      43.733   4.790  10.055  0.00  0.00    +0.000 N 
ATOM      6  N   UNL     1      44.572   2.615   9.520  0.00  0.00    +0.000 NA
ATOM      7  C   UNL     1      45.417   1.852   8.778  0.00  0.00    +0.000 A 
ATOM      8  H   UNL     1      43.033   5.161   9.418  0.00  0.00    +0.000 HD
ENDROOT
BRANCH   1  10
ATOM      9  N   UNL     1      47.057   0.201   7.147  0.00  0.00    +0.000 NA
ATOM     10  C   UNL     1      47.277   1.473   7.166  0.00  0.00    +0.000 C 
ATOM     11  N   UNL     1      48.391   1.990   6.569  0.00  0.00    +0.000 N 
ATOM     12  H   UNL     1      47.780  -0.270   6.600  0.00  0.00    +0.000 HD
ATOM     13  H   UNL     1      49.143   1.333   6.401  0.00  0.00    +0.000 HD
ATOM     14  H   UNL     1      48.742   2.855   6.972  0.00  0.00    +0.000 HD
ENDBRANCH   1  10
BRANCH   5  15
ATOM     15  C   UNL     1      43.153   4.169  11.247  0.00  0.00    +0.000 C 
BRANCH  15  16
ATOM     16  C   UNL     1      43.236   5.137  12.435  0.00  0.00    +0.000 C 
BRANCH  16  17
ATOM     17  C   UNL     1      44.657   5.509  12.778  0.00  0.00    +0.000 A 
ATOM     18  C   UNL     1      45.097   6.834  12.632  0.00  0.00    +0.000 A 
ATOM     19  C   UNL     1      46.413   7.181  12.938  0.00  0.00    +0.000 A 
ATOM     20  C   UNL     1      47.306   6.210  13.388  0.00  0.00    +0.000 A 
ATOM     21  C   UNL     1      46.882   4.889  13.528  0.00  0.00    +0.000 A 
ATOM     22  C   UNL     1      45.565   4.539  13.223  0.00  0.00    +0.000 A 
ENDBRANCH  16  17
ENDBRANCH  15  16
ENDBRANCH   5  15
TORSDOF 4
ENDMDL
MODEL 2
REMARK VINA RESULT:    -7.503      2.342      6.647
REMARK INTER + INTRA:          -9.751
REMARK INTER:                  -9.419
REMARK INTRA:                  -0.332
REMARK UNBOUND:                -0.494
REMARK  Name = 
REMARK  4 active torsions:
REMARK  status: ('A' for Active; 'I' for Inactive)
REMARK    1  A    between atoms: C_2  and  C_4
REMARK    2  A    between atoms: N_8  and  C_9
REMARK    3  A    between atoms: C_9  and  C_10
REMARK    4  A    between atoms: C_10  and  C_11
REMARK                            x       y       z     vdW  Elec       q    Type
REMARK                         _______ _______ _______ _____ _____    ______ ____
ROOT
ATOM      1  C   UNL     1      45.452   7.599  12.429  0.00  0.00    +0.000 A 
ATOM      2  C   UNL     1      46.245   6.618  13.013  0.00  0.00    +0.000 A 
ATOM      3  C   UNL     1      46.056   5.286  12.641  0.00  0.00    +0.000 A 
ATOM      4  C   UNL     1      45.114   4.968  11.662  0.00  0.00    +0.000 A 
ATOM      5  N   UNL     1      44.991   3.620  11.280  0.00  0.00    +0.000 N 
ATOM      6  N   UNL     1      44.329   5.912  11.105  0.00  0.00    +0.000 NA
ATOM      7  C   UNL     1      44.493   7.197  11.514  0.00  0.00    +0.000 A 
ATOM      8  H   UNL     1      44.599   3.107  12.065  0.00  0.00    +0.000 HD
ENDROOT
BRANCH   1  10
ATOM      9  N   UNL     1      44.612   9.832  12.681  0.00  0.00    +0.000 NA
ATOM     10  C   UNL     1      45.627   9.037  12.753  0.00  0.00    +0.000 C 
ATOM     11  N   UNL     1      46.858   9.517  13.098  0.00  0.00    +0.000 N 
ATOM     12  H   UNL     1      44.887  10.774  12.965  0.00  0.00    +0.000 HD
ATOM     13  H   UNL     1      46.984  10.516  12.988  0.00  0.00    +0.000 HD
ATOM     14  H   UNL     1      47.649   9.003  12.720  0.00  0.00    +0.000 HD
ENDBRANCH   1  10
BRANCH   5  15
ATOM     15  C   UNL     1      44.256   3.411  10.032  0.00  0.00    +0.000 C 
BRANCH  15  16
ATOM     16  C   UNL     1      44.659   2.070   9.403  0.00  0.00    +0.000 C 
BRANCH  16  17
ATOM     17  C   UNL     1      45.690   2.232   8.313  0.00  0.00    +0.000 A 
ATOM     18  C   UNL     1      45.816   3.452   7.633  0.00  0.00    +0.000 A 
ATOM     19  C   UNL     1      46.761   3.603   6.618  0.00  0.00    +0.000 A 
ATOM     20  C   UNL     1      47.588   2.537   6.268  0.00  0.00    +0.000 A 
ATOM     21  C   UNL     1      47.466   1.317   6.932  0.00  0.00    +0.000 A 
ATOM     22  C   UNL     1      46.521   1.163   7.948  0.00  0.00    +0.000 A 
ENDBRANCH  16  17
ENDBRANCH  15  16
ENDBRANCH   5  15
TORSDOF 4
ENDMDL
MODEL 3
REMARK VINA RESULT:    -7.476      1.114      1.860
REMARK INTER + INTRA:          -9.718
REMARK INTER:                  -9.185
REMARK INTRA:                  -0.533
REMARK UNBOUND:                -0.494
REMARK  Name = 
REMARK  4 active torsions:
REMARK  status: ('A' for Active; 'I' for Inactive)
REMARK    1  A    between atoms: C_2  and  C_4
REMARK    2  A    between atoms: N_8  and  C_9
REMARK    3  A    between atoms: C_9  and  C_10
REMARK    4  A    between atoms: C_10  and  C_11
REMARK                            x       y       z     vdW  Elec       q    Type
REMARK                         _______ _______ _______ _____ _____    ______ ____
ROOT
ATOM      1  C   UNL     1      46.563   2.768   7.410  0.00  0.00    +0.000 A 
ATOM      2  C   UNL     1      46.015   1.718   8.139  0.00  0.00    +0.000 A 
ATOM      3  C   UNL     1      45.176   2.008   9.216  0.00  0.00    +0.000 A 
ATOM      4  C   UNL     1      44.864   3.335   9.512  0.00  0.00    +0.000 A 
ATOM      5  N   UNL     1      43.974   3.582  10.573  0.00  0.00    +0.000 N 
ATOM      6  N   UNL     1      45.405   4.358   8.821  0.00  0.00    +0.000 NA
ATOM      7  C   UNL     1      46.258   4.059   7.807  0.00  0.00    +0.000 A 
ATOM      8  H   UNL     1      44.439   3.320  11.438  0.00  0.00    +0.000 HD
ENDROOT
BRANCH   1  10
ATOM      9  N   UNL     1      48.410   1.690   6.325  0.00  0.00    +0.000 NA
ATOM     10  C   UNL     1      47.433   2.528   6.232  0.00  0.00    +0.000 C 
ATOM     11  N   UNL     1      47.214   3.208   5.069  0.00  0.00    +0.000 N 
ATOM     12  H   UNL     1      48.889   1.612   5.427  0.00  0.00    +0.000 HD
ATOM     13  H   UNL     1      48.002   3.253   4.434  0.00  0.00    +0.000 HD
ATOM     14  H   UNL     1      46.773   4.118   5.170  0.00  0.00    +0.000 HD
ENDBRANCH   1  10
BRANCH   5  15
ATOM     15  C   UNL     1      43.429   4.940  10.600  0.00  0.00    +0.000 C 
BRANCH  15  16
ATOM     16  C   UNL     1      43.650   5.566  11.984  0.00  0.00    +0.000 C 
BRANCH  16  17
ATOM     17  C   UNL     1      45.112   5.774  12.295  0.00  0.00    +0.000 A 
ATOM     18  C   UNL     1      45.708   5.105  13.375  0.00  0.00    +0.000 A 
ATOM     19  C   UNL     1      47.057   5.302  13.672  0.00  0.00    +0.000 A 
ATOM     20  C   UNL     1      47.824   6.171  12.899  0.00  0.00    +0.000 A 
ATOM     21  C   UNL     1      47.239   6.847  11.829  0.00  0.00    +0.000 A 
ATOM     22  C   UNL     1      45.890   6.652  11.528  0.00  0.00    +0.000 A 
ENDBRANCH  16  17
ENDBRANCH  15  16
ENDBRANCH   5  15
TORSDOF 4
ENDMDL
MODEL 4
REMARK VINA RESULT:    -6.854      2.493      6.290
REMARK INTER + INTRA:          -8.951
REMARK INTER:                  -8.551
REMARK INTRA:                  -0.400
REMARK UNBOUND:                -0.494
REMARK  Name = 
REMARK  4 active torsions:
REMARK  status: ('A' for Active; 'I' for Inactive)
REMARK    1  A    between atoms: C_2  and  C_4
REMARK    2  A    between atoms: N_8  and  C_9
REMARK    3  A    between atoms: C_9  and  C_10
REMARK    4  A    between atoms: C_10  and  C_11
REMARK                            x       y       z     vdW  Elec       q    Type
REMARK                         _______ _______ _______ _____ _____    ______ ____
ROOT
ATOM      1  C   UNL     1      46.586   5.448  13.459  0.00  0.00    +0.000 A 
ATOM      2  C   UNL     1      45.429   4.854  13.951  0.00  0.00    +0.000 A 
ATOM      3  C   UNL     1      44.435   4.461  13.053  0.00  0.00    +0.000 A 
ATOM      4  C   UNL     1      44.638   4.625  11.683  0.00  0.00    +0.000 A 
ATOM      5  N   UNL     1      43.634   4.169  10.809  0.00  0.00    +0.000 N 
ATOM      6  N   UNL     1      45.749   5.216  11.199  0.00  0.00    +0.000 NA
ATOM      7  C   UNL     1      46.684   5.636  12.090  0.00  0.00    +0.000 A 
ATOM      8  H   UNL     1      42.819   4.764  10.932  0.00  0.00    +0.000 HD
ENDROOT
BRANCH   1  10
ATOM      9  N   UNL     1      48.689   6.522  13.875  0.00  0.00    +0.000 NA
ATOM     10  C   UNL     1      47.695   5.854  14.356  0.00  0.00    +0.000 C 
ATOM     11  N   UNL     1      47.674   5.501  15.675  0.00  0.00    +0.000 N 
ATOM     12  H   UNL     1      49.348   6.753  14.620  0.00  0.00    +0.000 HD
ATOM     13  H   UNL     1      48.571   5.515  16.146  0.00  0.00    +0.000 HD
ATOM     14  H   UNL     1      47.158   4.653  15.894  0.00  0.00    +0.000 HD
ENDBRANCH   1  10
BRANCH   5  15
ATOM     15  C   UNL     1      44.056   4.053   9.413  0.00  0.00    +0.000 C 
BRANCH  15  16
ATOM     16  C   UNL     1      44.459   2.605   9.105  0.00  0.00    +0.000 C 
BRANCH  16  17
ATOM     17  C   UNL     1      45.616   2.521   8.139  0.00  0.00    +0.000 A 
ATOM     18  C   UNL     1      45.915   3.603   7.298  0.00  0.00    +0.000 A 
ATOM     19  C   UNL     1      46.977   3.527   6.397  0.00  0.00    +0.000 A 
ATOM     20  C   UNL     1      47.749   2.369   6.322  0.00  0.00    +0.000 A 
ATOM     21  C   UNL     1      47.455   1.285   7.147  0.00  0.00    +0.000 A 
ATOM     22  C   UNL     1      46.393   1.358   8.050  0.00  0.00    +0.000 A 
ENDBRANCH  16  17
ENDBRANCH  15  16
ENDBRANCH   5  15
TORSDOF 4
ENDMDL
MODEL 5
REMARK VINA RESULT:    -6.454      3.874      5.603
REMARK INTER + INTRA:          -8.457
REMARK INTER:                  -8.205
REMARK INTRA:                  -0.252
REMARK UNBOUND:                -0.494
REMARK  Name = 
REMARK  4 active torsions:
REMARK  status: ('A' for Active; 'I' for Inactive)
REMARK    1  A    between atoms: C_2  and  C_4
REMARK    2  A    between atoms: N_8  and  C_9
REMARK    3  A    between atoms: C_9  and  C_10
REMARK    4  A    between atoms: C_10  and  C_11
REMARK                            x       y       z     vdW  Elec       q    Type
REMARK                         _______ _______ _______ _____ _____    ______ ____
ROOT
ATOM      1  C   UNL     1      44.970   4.194  11.112  0.00  0.00    +0.000 A 
ATOM      2  C   UNL     1      45.419   5.490  11.342  0.00  0.00    +0.000 A 
ATOM      3  C   UNL     1      45.993   5.796  12.578  0.00  0.00    +0.000 A 
ATOM      4  C   UNL     1      46.150   4.794  13.535  0.00  0.00    +0.000 A 
ATOM      5  N   UNL     1      46.779   5.134  14.746  0.00  0.00    +0.000 N 
ATOM      6  N   UNL     1      45.700   3.541  13.325  0.00  0.00    +0.000 NA
ATOM      7  C   UNL     1      45.100   3.272  12.137  0.00  0.00    +0.000 A 
ATOM      8  H   UNL     1      46.161   5.760  15.256  0.00  0.00    +0.000 HD
ENDROOT
BRANCH   1  10
ATOM      9  N   UNL     1      43.773   4.674   9.090  0.00  0.00    +0.000 NA
ATOM     10  C   UNL     1      44.384   3.794   9.809  0.00  0.00    +0.000 C 
ATOM     11  N   UNL     1      44.470   2.497   9.388  0.00  0.00    +0.000 N 
ATOM     12  H   UNL     1      43.458   4.253   8.214  0.00  0.00    +0.000 HD
ATOM     13  H   UNL     1      43.796   2.220   8.685  0.00  0.00    +0.000 HD
ATOM     14  H   UNL     1      44.537   1.801  10.126  0.00  0.00    +0.000 HD
ENDBRANCH   1  10
BRANCH   5  15
ATOM     15  C   UNL     1      47.217   3.986  15.542  0.00  0.00    +0.000 C 
BRANCH  15  16
ATOM     16  C   UNL     1      47.793   4.465  16.881  0.00  0.00    +0.000 C 
BRANCH  16  17
ATOM     17  C   UNL     1      49.151   3.873  17.170  0.00  0.00    +0.000 A 
ATOM     18  C   UNL     1      50.222   4.702  17.533  0.00  0.00    +0.000 A 
ATOM     19  C   UNL     1      51.481   4.160  17.792  0.00  0.00    +0.000 A 
ATOM     20  C   UNL     1      51.687   2.786  17.684  0.00  0.00    +0.000 A 
ATOM     21  C   UNL     1      50.631   1.953  17.315  0.00  0.00    +0.000 A 
ATOM     22  C   UNL     1      49.370   2.492  17.057  0.00  0.00    +0.000 A 
ENDBRANCH  16  17
ENDBRANCH  15  16
ENDBRANCH   5  15
TORSDOF 4
ENDMDL
MODEL 6
REMARK VINA RESULT:    -6.024      4.643      7.490
REMARK INTER + INTRA:          -7.927
REMARK INTER:                  -7.678
REMARK INTRA:                  -0.249
REMARK UNBOUND:                -0.494
REMARK  Name = 
REMARK  4 active torsions:
REMARK  status: ('A' for Active; 'I' for Inactive)
REMARK    1  A    between atoms: C_2  and  C_4
REMARK    2  A    between atoms: N_8  and  C_9
REMARK    3  A    between atoms: C_9  and  C_10
REMARK    4  A    between atoms: C_10  and  C_11
REMARK                            x       y       z     vdW  Elec       q    Type
REMARK                         _______ _______ _______ _____ _____    ______ ____
ROOT
ATOM      1  C   UNL     1      48.573   4.288  17.223  0.00  0.00    +0.000 A 
ATOM      2  C   UNL     1      48.834   5.572  16.758  0.00  0.00    +0.000 A 
ATOM      3  C   UNL     1      48.240   5.994  15.567  0.00  0.00    +0.000 A 
ATOM      4  C   UNL     1      47.362   5.145  14.893  0.00  0.00    +0.000 A 
ATOM      5  N   UNL     1      46.746   5.627  13.725  0.00  0.00    +0.000 N 
ATOM      6  N   UNL     1      47.118   3.893  15.329  0.00  0.00    +0.000 NA
ATOM      7  C   UNL     1      47.743   3.481  16.463  0.00  0.00    +0.000 A 
ATOM      8  H   UNL     1      47.463   5.730  13.012  0.00  0.00    +0.000 HD
ENDROOT
BRANCH   1  10
ATOM      9  N   UNL     1      48.350   3.416  19.446  0.00  0.00    +0.000 NA
ATOM     10  C   UNL     1      49.143   3.791  18.499  0.00  0.00    +0.000 C 
ATOM     11  N   UNL     1      50.497   3.755  18.678  0.00  0.00    +0.000 N 
ATOM     12  H   UNL     1      48.892   3.071  20.239  0.00  0.00    +0.000 HD
ATOM     13  H   UNL     1      50.810   3.725  19.640  0.00  0.00    +0.000 HD
ATOM     14  H   UNL     1      51.027   4.437  18.141  0.00  0.00    +0.000 HD
ENDBRANCH   1  10
BRANCH   5  15
ATOM     15  C   UNL     1      45.599   4.837  13.277  0.00  0.00    +0.000 C 
BRANCH  15  16
ATOM     16  C   UNL     1      44.943   5.506  12.061  0.00  0.00    +0.000 C 
BRANCH  16  17
ATOM     17  C   UNL     1      44.992   4.636  10.829  0.00  0.00    +0.000 A 
ATOM     18  C   UNL     1      45.556   5.124   9.640  0.00  0.00    +0.000 A 
ATOM     19  C   UNL     1      45.595   4.327   8.496  0.00  0.00    +0.000 A 
ATOM     20  C   UNL     1      45.068   3.037   8.523  0.00  0.00    +0.000 A 
ATOM     21  C   UNL     1      44.497   2.546   9.697  0.00  0.00    +0.000 A 
ATOM     22  C   UNL     1      44.457   3.340  10.844  0.00  0.00    +0.000 A 
ENDBRANCH  16  17
ENDBRANCH  15  16
ENDBRANCH   5  15
TORSDOF 4
ENDMDL
MODEL 7
REMARK VINA RESULT:    -5.630      5.249      8.099
REMARK INTER + INTRA:          -7.440
REMARK INTER:                  -7.184
REMARK INTRA:                  -0.257
REMARK UNBOUND:                -0.494
REMARK  Name = 
REMARK  4 active torsions:
REMARK  status: ('A' for Active; 'I' for Inactive)
REMARK    1  A    between atoms: C_2  and  C_4
REMARK    2  A    between atoms: N_8  and  C_9
REMARK    3  A    between atoms: C_9  and  C_10
REMARK    4  A    between atoms: C_10  and  C_11
REMARK                            x       y       z     vdW  Elec       q    Type
REMARK                         _______ _______ _______ _____ _____    ______ ____
ROOT
ATOM      1  C   UNL     1      49.418   4.585  17.761  0.00  0.00    +0.000 A 
ATOM      2  C   UNL     1      48.758   3.363  17.697  0.00  0.00    +0.000 A 
ATOM      3  C   UNL     1      47.789   3.168  16.710  0.00  0.00    +0.000 A 
ATOM      4  C   UNL     1      47.536   4.177  15.781  0.00  0.00    +0.000 A 
ATOM      5  N   UNL     1      46.590   3.921  14.772  0.00  0.00    +0.000 N 
ATOM      6  N   UNL     1      48.159   5.370  15.847  0.00  0.00    +0.000 NA
ATOM      7  C   UNL     1      49.063   5.561  16.844  0.00  0.00    +0.000 A 
ATOM      8  H   UNL     1      45.675   3.860  15.210  0.00  0.00    +0.000 HD
ENDROOT
BRANCH   1  10
ATOM      9  N   UNL     1      51.493   5.578  18.437  0.00  0.00    +0.000 NA
ATOM     10  C   UNL     1      50.482   4.844  18.761  0.00  0.00    +0.000 C 
ATOM     11  N   UNL     1      50.403   4.287  20.006  0.00  0.00    +0.000 N 
ATOM     12  H   UNL     1      52.116   5.688  19.239  0.00  0.00    +0.000 HD
ATOM     13  H   UNL     1      51.277   4.225  20.513  0.00  0.00    +0.000 HD
ATOM     14  H   UNL     1      49.883   3.415  20.063  0.00  0.00    +0.000 HD
ENDBRANCH   1  10
BRANCH   5  15
ATOM     15  C   UNL     1      46.631   4.863  13.653  0.00  0.00    +0.000 C 
BRANCH  15  16
ATOM     16  C   UNL     1      45.220   5.060  13.082  0.00  0.00    +0.000 C 
BRANCH  16  17
ATOM     17  C   UNL     1      45.114   4.617  11.643  0.00  0.00    +0.000 A 
ATOM     18  C   UNL     1      44.558   3.368  11.326  0.00  0.00    +0.000 A 
ATOM     19  C   UNL     1      44.467   2.950   9.998  0.00  0.00    +0.000 A 
ATOM     20  C   UNL     1      44.933   3.771   8.973  0.00  0.00    +0.000 A 
ATOM     21  C   UNL     1      45.495   5.011   9.277  0.00  0.00    +0.000 A 
ATOM     22  C   UNL     1      45.587   5.432  10.605  0.00  0.00    +0.000 A 
ENDBRANCH  16  17
ENDBRANCH  15  16
ENDBRANCH   5  15
TORSDOF 4
ENDMDL
MODEL 8
REMARK VINA RESULT:    -5.268      5.216      7.784
REMARK INTER + INTRA:          -6.994
REMARK INTER:                  -6.659
REMARK INTRA:                  -0.334
REMARK UNBOUND:                -0.494
REMARK  Name = 
REMARK  4 active torsions:
REMARK  status: ('A' for Active; 'I' for Inactive)
REMARK    1  A    between atoms: C_2  and  C_4
REMARK    2  A    between atoms: N_8  and  C_9
REMARK    3  A    between atoms: C_9  and  C_10
REMARK    4  A    between atoms: C_10  and  C_11
REMARK                            x       y       z     vdW  Elec       q    Type
REMARK                         _______ _______ _______ _____ _____    ______ ____
ROOT
ATOM      1  C   UNL     1      47.115   6.908  13.484  0.00  0.00    +0.000 A 
ATOM      2  C   UNL     1      46.180   5.921  13.192  0.00  0.00    +0.000 A 
ATOM      3  C   UNL     1      46.269   4.690  13.846  0.00  0.00    +0.000 A 
ATOM      4  C   UNL     1      47.257   4.489  14.809  0.00  0.00    +0.000 A 
ATOM      5  N   UNL     1      47.280   3.254  15.481  0.00  0.00    +0.000 N 
ATOM      6  N   UNL     1      48.178   5.435  15.084  0.00  0.00    +0.000 NA
ATOM      7  C   UNL     1      48.106   6.609  14.403  0.00  0.00    +0.000 A 
ATOM      8  H   UNL     1      47.549   2.538  14.810  0.00  0.00    +0.000 HD
ENDROOT
BRANCH   1  10
ATOM      9  N   UNL     1      47.958   8.588  11.995  0.00  0.00    +0.000 NA
ATOM     10  C   UNL     1      47.054   8.249  12.852  0.00  0.00    +0.000 C 
ATOM     11  N   UNL     1      46.064   9.124  13.195  0.00  0.00    +0.000 N 
ATOM     12  H   UNL     1      47.759   9.521  11.629  0.00  0.00    +0.000 HD
ATOM     13  H   UNL     1      46.253  10.099  12.994  0.00  0.00    +0.000 HD
ATOM     14  H   UNL     1      45.683   9.010  14.130  0.00  0.00    +0.000 HD
ENDBRANCH   1  10
BRANCH   5  15
ATOM     15  C   UNL     1      48.099   3.241  16.694  0.00  0.00    +0.000 C 
BRANCH  15  16
ATOM     16  C   UNL     1      49.074   2.057  16.657  0.00  0.00    +0.000 C 
BRANCH  16  17
ATOM     17  C   UNL     1      50.421   2.401  17.244  0.00  0.00    +0.000 A 
ATOM     18  C   UNL     1      50.686   3.703  17.692  0.00  0.00    +0.000 A 
ATOM     19  C   UNL     1      51.933   4.028  18.227  0.00  0.00    +0.000 A 
ATOM     20  C   UNL     1      52.930   3.059  18.315  0.00  0.00    +0.000 A 
ATOM     21  C   UNL     1      52.680   1.763  17.865  0.00  0.00    +0.000 A 
ATOM     22  C   UNL     1      51.433   1.434  17.330  0.00  0.00    +0.000 A 
ENDBRANCH  16  17
ENDBRANCH  15  16
ENDBRANCH   5  15
TORSDOF 4
ENDMDL
MODEL 9
REMARK VINA RESULT:    -5.139      3.629      5.781
REMARK INTER + INTRA:          -6.835
REMARK INTER:                  -6.523
REMARK INTRA:                  -0.312
REMARK UNBOUND:                -0.494
REMARK  Name = 
REMARK  4 active torsions:
REMARK  status: ('A' for Active; 'I' for Inactive)
REMARK    1  A    between atoms: C_2  and  C_4
REMARK    2  A    between atoms: N_8  and  C_9
REMARK    3  A    between atoms: C_9  and  C_10
REMARK    4  A    between atoms: C_10  and  C_11
REMARK                            x       y       z     vdW  Elec       q    Type
REMARK                         _______ _______ _______ _____ _____    ______ ____
ROOT
ATOM      1  C   UNL     1      44.622   5.189  11.591  0.00  0.00    +0.000 A 
ATOM      2  C   UNL     1      44.702   6.572  11.467  0.00  0.00    +0.000 A 
ATOM      3  C   UNL     1      45.594   7.274  12.279  0.00  0.00    +0.000 A 
ATOM      4  C   UNL     1      46.421   6.578  13.161  0.00  0.00    +0.000 A 
ATOM      5  N   UNL     1      47.342   7.318  13.924  0.00  0.00    +0.000 N 
ATOM      6  N   UNL     1      46.337   5.239  13.299  0.00  0.00    +0.000 NA
ATOM      7  C   UNL     1      45.428   4.577  12.537  0.00  0.00    +0.000 A 
ATOM      8  H   UNL     1      46.817   7.879  14.590  0.00  0.00    +0.000 HD
ENDROOT
BRANCH   1  10
ATOM      9  N   UNL     1      42.867   3.584  11.283  0.00  0.00    +0.000 NA
ATOM     10  C   UNL     1      43.721   4.380  10.733  0.00  0.00    +0.000 C 
ATOM     11  N   UNL     1      43.816   4.460   9.373  0.00  0.00    +0.000 N 
ATOM     12  H   UNL     1      42.303   3.128  10.565  0.00  0.00    +0.000 HD
ATOM     13  H   UNL     1      43.427   3.678   8.861  0.00  0.00    +0.000 HD
ATOM     14  H   UNL     1      44.731   4.717   9.012  0.00  0.00    +0.000 HD
ENDBRANCH   1  10
BRANCH   5  15
ATOM     15  C   UNL     1      48.392   6.514  14.550  0.00  0.00    +0.000 C 
BRANCH  15  16
ATOM     16  C   UNL     1      49.289   7.407  15.419  0.00  0.00    +0.000 C 
BRANCH  16  17
ATOM     17  C   UNL     1      48.672   7.710  16.762  0.00  0.00    +0.000 A 
ATOM     18  C   UNL     1      48.287   9.020  17.084  0.00  0.00    +0.000 A 
ATOM     19  C   UNL     1      47.725   9.307  18.329  0.00  0.00    +0.000 A 
ATOM     20  C   UNL     1      47.546   8.292  19.266  0.00  0.00    +0.000 A 
ATOM     21  C   UNL     1      47.933   6.987  18.959  0.00  0.00    +0.000 A 
ATOM     22  C   UNL     1      48.495   6.697  17.715  0.00  0.00    +0.000 A 
ENDBRANCH  16  17
ENDBRANCH  15  16
ENDBRANCH   5  15
TORSDOF 4
ENDMDL
