MODEL 1
REMARK VINA RESULT:    -8.074      0.000      0.000
REMARK INTER + INTRA:         -11.359
REMARK INTER:                 -10.434
REMARK INTRA:                  -0.924
REMARK UNBOUND:                -0.924
REMARK  Name = 
REMARK  5 active torsions:
REMARK  status: ('A' for Active; 'I' for Inactive)
REMARK    1  A    between atoms: C_2  and  C_3
REMARK    2  A    between atoms: C_6  and  N_7
REMARK    3  A    between atoms: N_7  and  C_8
REMARK    4  A    between atoms: C_8  and  C_9
REMARK    5  A    between atoms: C_14  and  C_15
REMARK                            x       y       z     vdW  Elec       q    Type
REMARK                         _______ _______ _______ _____ _____    ______ ____
ROOT
ATOM      1  C   UNL     1      43.776   5.045  11.321  0.00  0.00    +0.000 C 
ATOM      2  C   UNL     1      42.408   5.353  11.935  0.00  0.00    +0.000 C 
ATOM      3  C   UNL     1      43.020   6.316  10.975  0.00  0.00    +0.000 C 
ENDROOT
BRANCH   1   4
ATOM      4  C   UNL     1      44.983   5.225  12.238  0.00  0.00    +0.000 A 
ATOM      5  C   UNL     1      45.511   4.137  12.948  0.00  0.00    +0.000 A 
ATOM      6  C   UNL     1      46.768   4.218  13.531  0.00  0.00    +0.000 A 
ATOM      7  F   UNL     1      47.286   3.136  14.126  0.00  0.00    +0.000 F 
ATOM      8  C   UNL     1      47.520   5.380  13.451  0.00  0.00    +0.000 A 
ATOM      9  C   UNL     1      46.988   6.521  12.840  0.00  0.00    +0.000 A 
ATOM     10  C   UNL     1      45.709   6.434  12.264  0.00  0.00    +0.000 A 
BRANCH   9  11
ATOM     11  C   UNL     1      47.776   7.815  12.754  0.00  0.00    +0.000 C 
ATOM     12  C   UNL     1      46.886   9.014  12.388  0.00  0.00    +0.000 C 
ATOM     13  C   UNL     1      47.726  10.262  12.157  0.00  0.00    +0.000 C 
ATOM     14  O   UNL     1      48.736  10.020  11.180  0.00  0.00    +0.000 OA
ATOM     15  C   UNL     1      49.658   9.015  11.597  0.00  0.00    +0.000 C 
ATOM     16  C   UNL     1      48.950   7.682  11.775  0.00  0.00    +0.000 C 
ENDBRANCH   9  11
ENDBRANCH   1   4
BRANCH   1  17
ATOM     17  N   UNL     1      43.805   3.883  10.442  0.00  0.00    +0.000 N 
ATOM     18  H   UNL     1      43.174   3.105  10.604  0.00  0.00    +0.000 HD
BRANCH  17  22
ATOM     19  C   UNL     1      46.526   2.685   7.604  0.00  0.00    +0.000 A 
ATOM     20  C   UNL     1      45.884   1.799   8.452  0.00  0.00    +0.000 A 
ATOM     21  N   UNL     1      44.995   2.204   9.395  0.00  0.00    +0.000 NA
ATOM     22  C   UNL     1      44.749   3.533   9.487  0.00  0.00    +0.000 A 
ATOM     23  C   UNL     1      45.404   4.414   8.627  0.00  0.00    +0.000 A 
ATOM     24  N   UNL     1      46.301   4.021   7.676  0.00  0.00    +0.000 NA
BRANCH  19  26
ATOM     25  N   UNL     1      48.194   1.787   5.826  0.00  0.00    +0.000 NA
ATOM     26  C   UNL     1      47.443   2.213   6.607  0.00  0.00    +0.000 C 
ENDBRANCH  19  26
ENDBRANCH  17  22
ENDBRANCH   1  17
TORSDOF 5
ENDMDL
MODEL 2
REMARK VINA RESULT:    -8.022      2.585      3.781
REMARK INTER + INTRA:         -11.292
REMARK INTER:                 -11.095
REMARK INTRA:                  -0.197
REMARK UNBOUND:                -0.924
REMARK  Name = 
REMARK  5 active torsions:
REMARK  status: ('A' for Active; 'I' for Inactive)
REMARK    1  A    between atoms: C_2  and  C_3
REMARK    2  A    between atoms: C_6  and  N_7
REMARK    3  A    between atoms: N_7  and  C_8
REMARK    4  A    between atoms: C_8  and  C_9
REMARK    5  A    between atoms: C_14  and  C_15
REMARK                            x       y       z     vdW  Elec       q    Type
REMARK                         _______ _______ _______ _____ _____    ______ ____
ROOT
ATOM      1  C   UNL     1      44.070   4.797  11.499  0.00  0.00    +0.000 C 
ATOM      2  C   UNL     1      43.261   3.791  12.321  0.00  0.00    +0.000 C 
ATOM      3  C   UNL     1      42.877   5.232  12.331  0.00  0.00    +0.000 C 
ENDROOT
BRANCH   1   4
ATOM      4  C   UNL     1      45.438   5.181  12.057  0.00  0.00    +0.000 A 
ATOM      5  C   UNL     1      46.217   6.163  11.429  0.00  0.00    +0.000 A 
ATOM      6  C   UNL     1      47.301   6.731  12.084  0.00  0.00    +0.000 A 
ATOM      7  F   UNL     1      47.973   7.729  11.497  0.00  0.00    +0.000 F 
ATOM      8  C   UNL     1      47.657   6.325  13.361  0.00  0.00    +0.000 A 
ATOM      9  C   UNL     1      46.968   5.277  13.983  0.00  0.00    +0.000 A 
ATOM     10  C   UNL     1      45.881   4.699  13.306  0.00  0.00    +0.000 A 
BRANCH   9  11
ATOM     11  C   UNL     1      47.346   4.794  15.372  0.00  0.00    +0.000 C 
ATOM     12  C   UNL     1      48.473   5.636  15.992  0.00  0.00    +0.000 C 
ATOM     13  C   UNL     1      48.934   5.034  17.313  0.00  0.00    +0.000 C 
ATOM     14  O   UNL     1      49.308   3.668  17.144  0.00  0.00    +0.000 OA
ATOM     15  C   UNL     1      48.212   2.859  16.722  0.00  0.00    +0.000 C 
ATOM     16  C   UNL     1      47.714   3.306  15.357  0.00  0.00    +0.000 C 
ENDBRANCH   9  11
ENDBRANCH   1   4
BRANCH   1  17
ATOM     17  N   UNL     1      43.997   4.608  10.055  0.00  0.00    +0.000 N 
ATOM     18  H   UNL     1      43.156   4.869   9.550  0.00  0.00    +0.000 HD
BRANCH  17  22
ATOM     19  C   UNL     1      46.603   2.632   7.568  0.00  0.00    +0.000 A 
ATOM     20  C   UNL     1      46.401   4.001   7.511  0.00  0.00    +0.000 A 
ATOM     21  N   UNL     1      45.528   4.644   8.329  0.00  0.00    +0.000 NA
ATOM     22  C   UNL     1      44.844   3.892   9.222  0.00  0.00    +0.000 A 
ATOM     23  C   UNL     1      45.057   2.514   9.267  0.00  0.00    +0.000 A 
ATOM     24  N   UNL     1      45.929   1.854   8.450  0.00  0.00    +0.000 NA
BRANCH  19  26
ATOM     25  N   UNL     1      48.350   1.518   5.999  0.00  0.00    +0.000 NA
ATOM     26  C   UNL     1      47.550   1.995   6.699  0.00  0.00    +0.000 C 
ENDBRANCH  19  26
ENDBRANCH  17  22
ENDBRANCH   1  17
TORSDOF 5
ENDMDL
MODEL 3
REMARK VINA RESULT:    -7.431      2.086      2.783
REMARK INTER + INTRA:         -10.527
REMARK INTER:                 -10.193
REMARK INTRA:                  -0.334
REMARK UNBOUND:                -0.924
REMARK  Name = 
REMARK  5 active torsions:
REMARK  status: ('A' for Active; 'I' for Inactive)
REMARK    1  A    between atoms: C_2  and  C_3
REMARK    2  A    between atoms: C_6  and  N_7
REMARK    3  A    between atoms: N_7  and  C_8
REMARK    4  A    between atoms: C_8  and  C_9
REMARK    5  A    between atoms: C_14  and  C_15
REMARK                            x       y       z     vdW  Elec       q    Type
REMARK                         _______ _______ _______ _____ _____    ______ ____
ROOT
ATOM      1  C   UNL     1      43.974   4.980  11.360  0.00  0.00    +0.000 C 
ATOM      2  C   UNL     1      44.198   3.966  12.483  0.00  0.00    +0.000 C 
ATOM      3  C   UNL     1      42.976   4.819  12.493  0.00  0.00    +0.000 C 
ENDROOT
BRANCH   1   4
ATOM      4  C   UNL     1      44.829   6.243  11.410  0.00  0.00    +0.000 A 
ATOM      5  C   UNL     1      44.235   7.513  11.356  0.00  0.00    +0.000 A 
ATOM      6  C   UNL     1      44.957   8.646  11.704  0.00  0.00    +0.000 A 
ATOM      7  F   UNL     1      44.341   9.834  11.730  0.00  0.00    +0.000 F 
ATOM      8  C   UNL     1      46.287   8.557  12.086  0.00  0.00    +0.000 A 
ATOM      9  C   UNL     1      46.946   7.322  12.055  0.00  0.00    +0.000 A 
ATOM     10  C   UNL     1      46.210   6.183  11.688  0.00  0.00    +0.000 A 
BRANCH   9  11
ATOM     11  C   UNL     1      48.407   7.193  12.447  0.00  0.00    +0.000 C 
ATOM     12  C   UNL     1      48.627   7.426  13.951  0.00  0.00    +0.000 C 
ATOM     13  C   UNL     1      50.112   7.445  14.284  0.00  0.00    +0.000 C 
ATOM     14  O   UNL     1      50.799   8.402  13.482  0.00  0.00    +0.000 OA
ATOM     15  C   UNL     1      50.728   8.091  12.092  0.00  0.00    +0.000 C 
ATOM     16  C   UNL     1      49.287   8.130  11.610  0.00  0.00    +0.000 C 
ENDBRANCH   9  11
ENDBRANCH   1   4
BRANCH   1  17
ATOM     17  N   UNL     1      43.766   4.397  10.040  0.00  0.00    +0.000 N 
ATOM     18  H   UNL     1      42.826   4.274   9.679  0.00  0.00    +0.000 HD
BRANCH  17  22
ATOM     19  C   UNL     1      46.547   2.605   7.602  0.00  0.00    +0.000 A 
ATOM     20  C   UNL     1      46.291   3.965   7.577  0.00  0.00    +0.000 A 
ATOM     21  N   UNL     1      45.361   4.548   8.378  0.00  0.00    +0.000 NA
ATOM     22  C   UNL     1      44.674   3.741   9.221  0.00  0.00    +0.000 A 
ATOM     23  C   UNL     1      44.942   2.373   9.235  0.00  0.00    +0.000 A 
ATOM     24  N   UNL     1      45.871   1.773   8.434  0.00  0.00    +0.000 NA
BRANCH  19  26
ATOM     25  N   UNL     1      48.363   1.523   6.092  0.00  0.00    +0.000 NA
ATOM     26  C   UNL     1      47.552   2.032   6.754  0.00  0.00    +0.000 C 
ENDBRANCH  19  26
ENDBRANCH  17  22
ENDBRANCH   1  17
TORSDOF 5
ENDMDL
MODEL 4
REMARK VINA RESULT:    -7.298      3.993      7.103
REMARK INTER + INTRA:         -10.355
REMARK INTER:                  -9.647
REMARK INTRA:                  -0.708
REMARK UNBOUND:                -0.924
REMARK  Name = 
REMARK  5 active torsions:
REMARK  status: ('A' for Active; 'I' for Inactive)
REMARK    1  A    between atoms: C_2  and  C_3
REMARK    2  A    between atoms: C_6  and  N_7
REMARK    3  A    between atoms: N_7  and  C_8
REMARK    4  A    between atoms: C_8  and  C_9
REMARK    5  A    between atoms: C_14  and  C_15
REMARK                            x       y       z     vdW  Elec       q    Type
REMARK                         _______ _______ _______ _____ _____    ______ ____
ROOT
ATOM      1  C   UNL     1      46.379   6.939  12.553  0.00  0.00    +0.000 C 
ATOM      2  C   UNL     1      46.659   8.241  11.799  0.00  0.00    +0.000 C 
ATOM      3  C   UNL     1      45.859   8.274  13.057  0.00  0.00    +0.000 C 
ENDROOT
BRANCH   1   4
ATOM      4  C   UNL     1      45.332   6.014  11.939  0.00  0.00    +0.000 A 
ATOM      5  C   UNL     1      43.979   6.131  12.290  0.00  0.00    +0.000 A 
ATOM      6  C   UNL     1      42.996   5.517  11.527  0.00  0.00    +0.000 A 
ATOM      7  F   UNL     1      41.708   5.718  11.832  0.00  0.00    +0.000 F 
ATOM      8  C   UNL     1      43.325   4.753  10.418  0.00  0.00    +0.000 A 
ATOM      9  C   UNL     1      44.668   4.528  10.092  0.00  0.00    +0.000 A 
ATOM     10  C   UNL     1      45.657   5.142  10.879  0.00  0.00    +0.000 A 
BRANCH   9  11
ATOM     11  C   UNL     1      45.062   3.679   8.897  0.00  0.00    +0.000 C 
ATOM     12  C   UNL     1      45.479   2.258   9.307  0.00  0.00    +0.000 C 
ATOM     13  C   UNL     1      46.016   1.484   8.110  0.00  0.00    +0.000 C 
ATOM     14  O   UNL     1      47.077   2.199   7.480  0.00  0.00    +0.000 OA
ATOM     15  C   UNL     1      46.644   3.453   6.956  0.00  0.00    +0.000 C 
ATOM     16  C   UNL     1      46.164   4.362   8.076  0.00  0.00    +0.000 C 
ENDBRANCH   9  11
ENDBRANCH   1   4
BRANCH   1  17
ATOM     17  N   UNL     1      47.558   6.292  13.116  0.00  0.00    +0.000 N 
ATOM     18  H   UNL     1      48.373   6.125  12.535  0.00  0.00    +0.000 HD
BRANCH  17  22
ATOM     19  C   UNL     1      48.025   4.472  16.771  0.00  0.00    +0.000 A 
ATOM     20  C   UNL     1      48.747   5.591  16.389  0.00  0.00    +0.000 A 
ATOM     21  N   UNL     1      48.595   6.179  15.174  0.00  0.00    +0.000 NA
ATOM     22  C   UNL     1      47.697   5.626  14.325  0.00  0.00    +0.000 A 
ATOM     23  C   UNL     1      46.978   4.499  14.722  0.00  0.00    +0.000 A 
ATOM     24  N   UNL     1      47.122   3.897  15.939  0.00  0.00    +0.000 NA
BRANCH  19  26
ATOM     25  N   UNL     1      48.377   3.464  19.139  0.00  0.00    +0.000 NA
ATOM     26  C   UNL     1      48.201   3.894  18.072  0.00  0.00    +0.000 C 
ENDBRANCH  19  26
ENDBRANCH  17  22
ENDBRANCH   1  17
TORSDOF 5
ENDMDL
MODEL 5
REMARK VINA RESULT:    -7.125      1.980      2.621
REMARK INTER + INTRA:         -10.133
REMARK INTER:                  -9.817
REMARK INTRA:                  -0.315
REMARK UNBOUND:                -0.924
REMARK  Name = 
REMARK  5 active torsions:
REMARK  status: ('A' for Active; 'I' for Inactive)
REMARK    1  A    between atoms: C_2  and  C_3
REMARK    2  A    between atoms: C_6  and  N_7
REMARK    3  A    between atoms: N_7  and  C_8
REMARK    4  A    between atoms: C_8  and  C_9
REMARK    5  A    between atoms: C_14  and  C_15
REMARK                            x       y       z     vdW  Elec       q    Type
REMARK                         _______ _______ _______ _____ _____    ______ ____
ROOT
ATOM      1  C   UNL     1      44.251   4.676  11.705  0.00  0.00    +0.000 C 
ATOM      2  C   UNL     1      44.371   3.421  12.572  0.00  0.00    +0.000 C 
ATOM      3  C   UNL     1      43.196   4.324  12.738  0.00  0.00    +0.000 C 
ENDROOT
BRANCH   1   4
ATOM      4  C   UNL     1      45.168   5.840  12.070  0.00  0.00    +0.000 A 
ATOM      5  C   UNL     1      46.550   5.644  12.217  0.00  0.00    +0.000 A 
ATOM      6  C   UNL     1      47.417   6.727  12.243  0.00  0.00    +0.000 A 
ATOM      7  F   UNL     1      48.737   6.509  12.294  0.00  0.00    +0.000 F 
ATOM      8  C   UNL     1      46.941   8.027  12.155  0.00  0.00    +0.000 A 
ATOM      9  C   UNL     1      45.564   8.270  12.110  0.00  0.00    +0.000 A 
ATOM     10  C   UNL     1      44.692   7.167  12.097  0.00  0.00    +0.000 A 
BRANCH   9  11
ATOM     11  C   UNL     1      45.009   9.681  12.034  0.00  0.00    +0.000 C 
ATOM     12  C   UNL     1      43.906   9.814  10.973  0.00  0.00    +0.000 C 
ATOM     13  C   UNL     1      43.482  11.268  10.812  0.00  0.00    +0.000 C 
ATOM     14  O   UNL     1      44.607  12.095  10.530  0.00  0.00    +0.000 OA
ATOM     15  C   UNL     1      45.557  12.095  11.594  0.00  0.00    +0.000 C 
ATOM     16  C   UNL     1      46.129  10.701  11.796  0.00  0.00    +0.000 C 
ENDBRANCH   9  11
ENDBRANCH   1   4
BRANCH   1  17
ATOM     17  N   UNL     1      44.074   4.422  10.280  0.00  0.00    +0.000 N 
ATOM     18  H   UNL     1      43.145   4.439   9.871  0.00  0.00    +0.000 HD
BRANCH  17  22
ATOM     19  C   UNL     1      46.672   2.776   7.555  0.00  0.00    +0.000 A 
ATOM     20  C   UNL     1      45.908   2.013   8.421  0.00  0.00    +0.000 A 
ATOM     21  N   UNL     1      45.060   2.565   9.327  0.00  0.00    +0.000 NA
ATOM     22  C   UNL     1      44.983   3.917   9.362  0.00  0.00    +0.000 A 
ATOM     23  C   UNL     1      45.759   4.673   8.484  0.00  0.00    +0.000 A 
ATOM     24  N   UNL     1      46.617   4.131   7.571  0.00  0.00    +0.000 NA
BRANCH  19  26
ATOM     25  N   UNL     1      48.269   1.621   5.861  0.00  0.00    +0.000 NA
ATOM     26  C   UNL     1      47.540   2.152   6.599  0.00  0.00    +0.000 C 
ENDBRANCH  19  26
ENDBRANCH  17  22
ENDBRANCH   1  17
TORSDOF 5
ENDMDL
MODEL 6
REMARK VINA RESULT:    -6.286      4.815      8.039
REMARK INTER + INTRA:          -9.047
REMARK INTER:                  -8.295
REMARK INTRA:                  -0.753
REMARK UNBOUND:                -0.924
REMARK  Name = 
REMARK  5 active torsions:
REMARK  status: ('A' for Active; 'I' for Inactive)
REMARK    1  A    between atoms: C_2  and  C_3
REMARK    2  A    between atoms: C_6  and  N_7
REMARK    3  A    between atoms: N_7  and  C_8
REMARK    4  A    between atoms: C_8  and  C_9
REMARK    5  A    between atoms: C_14  and  C_15
REMARK                            x       y       z     vdW  Elec       q    Type
REMARK                         _______ _______ _______ _____ _____    ______ ____
ROOT
ATOM      1  C   UNL     1      49.265   7.775  13.023  0.00  0.00    +0.000 C 
ATOM      2  C   UNL     1      50.033   7.610  11.710  0.00  0.00    +0.000 C 
ATOM      3  C   UNL     1      49.788   8.976  12.255  0.00  0.00    +0.000 C 
ENDROOT
BRANCH   1   4
ATOM      4  C   UNL     1      47.756   7.556  12.956  0.00  0.00    +0.000 A 
ATOM      5  C   UNL     1      46.873   8.645  13.001  0.00  0.00    +0.000 A 
ATOM      6  C   UNL     1      45.542   8.489  12.637  0.00  0.00    +0.000 A 
ATOM      7  F   UNL     1      44.742   9.562  12.603  0.00  0.00    +0.000 F 
ATOM      8  C   UNL     1      45.047   7.254  12.249  0.00  0.00    +0.000 A 
ATOM      9  C   UNL     1      45.870   6.123  12.288  0.00  0.00    +0.000 A 
ATOM     10  C   UNL     1      47.212   6.287  12.670  0.00  0.00    +0.000 A 
BRANCH   9  11
ATOM     11  C   UNL     1      45.353   4.752  11.889  0.00  0.00    +0.000 C 
ATOM     12  C   UNL     1      44.946   4.694  10.408  0.00  0.00    +0.000 C 
ATOM     13  C   UNL     1      44.289   3.360  10.079  0.00  0.00    +0.000 C 
ATOM     14  O   UNL     1      43.191   3.107  10.953  0.00  0.00    +0.000 OA
ATOM     15  C   UNL     1      43.601   3.000  12.315  0.00  0.00    +0.000 C 
ATOM     16  C   UNL     1      44.197   4.313  12.796  0.00  0.00    +0.000 C 
ENDBRANCH   9  11
ENDBRANCH   1   4
BRANCH   1  17
ATOM     17  N   UNL     1      49.940   7.239  14.199  0.00  0.00    +0.000 N 
ATOM     18  H   UNL     1      50.838   6.775  14.103  0.00  0.00    +0.000 HD
BRANCH  17  22
ATOM     19  C   UNL     1      48.532   6.505  17.989  0.00  0.00    +0.000 A 
ATOM     20  C   UNL     1      48.702   5.508  17.044  0.00  0.00    +0.000 A 
ATOM     21  N   UNL     1      49.157   5.761  15.789  0.00  0.00    +0.000 NA
ATOM     22  C   UNL     1      49.445   7.047  15.480  0.00  0.00    +0.000 A 
ATOM     23  C   UNL     1      49.268   8.041  16.442  0.00  0.00    +0.000 A 
ATOM     24  N   UNL     1      48.810   7.802  17.705  0.00  0.00    +0.000 NA
BRANCH  19  26
ATOM     25  N   UNL     1      47.663   5.901  20.362  0.00  0.00    +0.000 NA
ATOM     26  C   UNL     1      48.069   6.192  19.310  0.00  0.00    +0.000 C 
ENDBRANCH  19  26
ENDBRANCH  17  22
ENDBRANCH   1  17
TORSDOF 5
ENDMDL
MODEL 7
REMARK VINA RESULT:    -6.126      4.066      6.325
REMARK INTER + INTRA:          -8.841
REMARK INTER:                  -8.114
REMARK INTRA:                  -0.727
REMARK UNBOUND:                -0.924
REMARK  Name = 
REMARK  5 active torsions:
REMARK  status: ('A' for Active; 'I' for Inactive)
REMARK    1  A    between atoms: C_2  and  C_3
REMARK    2  A    between atoms: C_6  and  N_7
REMARK    3  A    between atoms: N_7  and  C_8
REMARK    4  A    between atoms: C_8  and  C_9
REMARK    5  A    between atoms: C_14  and  C_15
REMARK                            x       y       z     vdW  Elec       q    Type
REMARK                         _______ _______ _______ _____ _____    ______ ____
ROOT
ATOM      1  C   UNL     1      47.777   7.799  13.320  0.00  0.00    +0.000 C 
ATOM      2  C   UNL     1      48.363   8.824  12.347  0.00  0.00    +0.000 C 
ATOM      3  C   UNL     1      48.768   7.393  12.243  0.00  0.00    +0.000 C 
ENDROOT
BRANCH   1   4
ATOM      4  C   UNL     1      48.326   7.827  14.743  0.00  0.00    +0.000 A 
ATOM      5  C   UNL     1      48.183   8.971  15.543  0.00  0.00    +0.000 A 
ATOM      6  C   UNL     1      48.398   8.906  16.912  0.00  0.00    +0.000 A 
ATOM      7  F   UNL     1      48.167   9.990  17.665  0.00  0.00    +0.000 F 
ATOM      8  C   UNL     1      48.785   7.722  17.520  0.00  0.00    +0.000 A 
ATOM      9  C   UNL     1      49.037   6.584  16.745  0.00  0.00    +0.000 A 
ATOM     10  C   UNL     1      48.830   6.662  15.358  0.00  0.00    +0.000 A 
BRANCH   9  11
ATOM     11  C   UNL     1      49.481   5.277  17.377  0.00  0.00    +0.000 C 
ATOM     12  C   UNL     1      50.986   5.026  17.192  0.00  0.00    +0.000 C 
ATOM     13  C   UNL     1      51.371   3.641  17.696  0.00  0.00    +0.000 C 
ATOM     14  O   UNL     1      50.574   2.636  17.074  0.00  0.00    +0.000 OA
ATOM     15  C   UNL     1      49.189   2.780  17.383  0.00  0.00    +0.000 C 
ATOM     16  C   UNL     1      48.657   4.098  16.845  0.00  0.00    +0.000 C 
ENDBRANCH   9  11
ENDBRANCH   1   4
BRANCH   1  17
ATOM     17  N   UNL     1      46.341   7.582  13.189  0.00  0.00    +0.000 N 
ATOM     18  H   UNL     1      45.689   8.309  13.466  0.00  0.00    +0.000 HD
BRANCH  17  22
ATOM     19  C   UNL     1      44.281   4.145  12.277  0.00  0.00    +0.000 A 
ATOM     20  C   UNL     1      44.087   5.339  11.604  0.00  0.00    +0.000 A 
ATOM     21  N   UNL     1      44.764   6.474  11.920  0.00  0.00    +0.000 NA
ATOM     22  C   UNL     1      45.654   6.404  12.938  0.00  0.00    +0.000 A 
ATOM     23  C   UNL     1      45.838   5.194  13.607  0.00  0.00    +0.000 A 
ATOM     24  N   UNL     1      45.164   4.047  13.302  0.00  0.00    +0.000 NA
BRANCH  19  26
ATOM     25  N   UNL     1      43.004   1.979  11.625  0.00  0.00    +0.000 NA
ATOM     26  C   UNL     1      43.561   2.964  11.898  0.00  0.00    +0.000 C 
ENDBRANCH  19  26
ENDBRANCH  17  22
ENDBRANCH   1  17
TORSDOF 5
ENDMDL
MODEL 8
REMARK VINA RESULT:    -5.835      5.126      8.159
REMARK INTER + INTRA:          -8.465
REMARK INTER:                  -7.906
REMARK INTRA:                  -0.559
REMARK UNBOUND:                -0.924
REMARK  Name = 
REMARK  5 active torsions:
REMARK  status: ('A' for Active; 'I' for Inactive)
REMARK    1  A    between atoms: C_2  and  C_3
REMARK    2  A    between atoms: C_6  and  N_7
REMARK    3  A    between atoms: N_7  and  C_8
REMARK    4  A    between atoms: C_8  and  C_9
REMARK    5  A    between atoms: C_14  and  C_15
REMARK                            x       y       z     vdW  Elec       q    Type
REMARK                         _______ _______ _______ _____ _____    ______ ____
ROOT
ATOM      1  C   UNL     1      44.024  10.741  10.891  0.00  0.00    +0.000 C 
ATOM      2  C   UNL     1      44.887  11.731  10.106  0.00  0.00    +0.000 C 
ATOM      3  C   UNL     1      43.930  10.849   9.379  0.00  0.00    +0.000 C 
ENDROOT
BRANCH   1   4
ATOM      4  C   UNL     1      44.734   9.498  11.420  0.00  0.00    +0.000 A 
ATOM      5  C   UNL     1      45.708   9.602  12.423  0.00  0.00    +0.000 A 
ATOM      6  C   UNL     1      46.131   8.477  13.117  0.00  0.00    +0.000 A 
ATOM      7  F   UNL     1      46.996   8.616  14.129  0.00  0.00    +0.000 F 
ATOM      8  C   UNL     1      45.623   7.221  12.819  0.00  0.00    +0.000 A 
ATOM      9  C   UNL     1      44.725   7.059  11.758  0.00  0.00    +0.000 A 
ATOM     10  C   UNL     1      44.314   8.202  11.052  0.00  0.00    +0.000 A 
BRANCH   9  11
ATOM     11  C   UNL     1      44.167   5.696  11.392  0.00  0.00    +0.000 C 
ATOM     12  C   UNL     1      43.991   4.792  12.623  0.00  0.00    +0.000 C 
ATOM     13  C   UNL     1      43.580   3.386  12.208  0.00  0.00    +0.000 C 
ATOM     14  O   UNL     1      44.504   2.845  11.267  0.00  0.00    +0.000 OA
ATOM     15  C   UNL     1      44.544   3.599  10.057  0.00  0.00    +0.000 C 
ATOM     16  C   UNL     1      45.033   5.013  10.327  0.00  0.00    +0.000 C 
ENDBRANCH   9  11
ENDBRANCH   1   4
BRANCH   1  17
ATOM     17  N   UNL     1      43.049  11.354  11.785  0.00  0.00    +0.000 N 
ATOM     18  H   UNL     1      43.361  11.866  12.604  0.00  0.00    +0.000 HD
BRANCH  17  22
ATOM     19  C   UNL     1      38.963  10.974  12.006  0.00  0.00    +0.000 A 
ATOM     20  C   UNL     1      39.683  11.842  12.810  0.00  0.00    +0.000 A 
ATOM     21  N   UNL     1      41.035  11.952  12.740  0.00  0.00    +0.000 NA
ATOM     22  C   UNL     1      41.676  11.170  11.839  0.00  0.00    +0.000 A 
ATOM     23  C   UNL     1      40.938  10.300  11.036  0.00  0.00    +0.000 A 
ATOM     24  N   UNL     1      39.580  10.177  11.098  0.00  0.00    +0.000 NA
BRANCH  19  26
ATOM     25  N   UNL     1      36.375  10.801  12.149  0.00  0.00    +0.000 NA
ATOM     26  C   UNL     1      37.534  10.904  12.099  0.00  0.00    +0.000 C 
ENDBRANCH  19  26
ENDBRANCH  17  22
ENDBRANCH   1  17
TORSDOF 5
ENDMDL
MODEL 9
REMARK VINA RESULT:    -5.537      4.468      6.764
REMARK INTER + INTRA:          -8.081
REMARK INTER:                  -7.392
REMARK INTRA:                  -0.689
REMARK UNBOUND:                -0.924
REMARK  Name = 
REMARK  5 active torsions:
REMARK  status: ('A' for Active; 'I' for Inactive)
REMARK    1  A    between atoms: C_2  and  C_3
REMARK    2  A    between atoms: C_6  and  N_7
REMARK    3  A    between atoms: N_7  and  C_8
REMARK    4  A    between atoms: C_8  and  C_9
REMARK    5  A    between atoms: C_14  and  C_15
REMARK                            x       y       z     vdW  Elec       q    Type
REMARK                         _______ _______ _______ _____ _____    ______ ____
ROOT
ATOM      1  C   UNL     1      48.343   8.776  14.654  0.00  0.00    +0.000 C 
ATOM      2  C   UNL     1      49.207   9.996  14.327  0.00  0.00    +0.000 C 
ATOM      3  C   UNL     1      49.578   8.661  13.777  0.00  0.00    +0.000 C 
ENDROOT
BRANCH   1   4
ATOM      4  C   UNL     1      48.481   8.209  16.064  0.00  0.00    +0.000 A 
ATOM      5  C   UNL     1      48.060   8.950  17.178  0.00  0.00    +0.000 A 
ATOM      6  C   UNL     1      47.896   8.337  18.412  0.00  0.00    +0.000 A 
ATOM      7  F   UNL     1      47.407   9.046  19.437  0.00  0.00    +0.000 F 
ATOM      8  C   UNL     1      48.171   6.989  18.583  0.00  0.00    +0.000 A 
ATOM      9  C   UNL     1      48.691   6.237  17.523  0.00  0.00    +0.000 A 
ATOM     10  C   UNL     1      48.866   6.869  16.280  0.00  0.00    +0.000 A 
BRANCH   9  11
ATOM     11  C   UNL     1      49.022   4.764  17.683  0.00  0.00    +0.000 C 
ATOM     12  C   UNL     1      50.523   4.485  17.508  0.00  0.00    +0.000 C 
ATOM     13  C   UNL     1      50.801   2.988  17.518  0.00  0.00    +0.000 C 
ATOM     14  O   UNL     1      50.008   2.320  16.539  0.00  0.00    +0.000 OA
ATOM     15  C   UNL     1      48.612   2.447  16.799  0.00  0.00    +0.000 C 
ATOM     16  C   UNL     1      48.187   3.905  16.726  0.00  0.00    +0.000 C 
ENDBRANCH   9  11
ENDBRANCH   1   4
BRANCH   1  17
ATOM     17  N   UNL     1      46.992   8.818  14.108  0.00  0.00    +0.000 N 
ATOM     18  H   UNL     1      46.295   9.430  14.519  0.00  0.00    +0.000 HD
BRANCH  17  22
ATOM     19  C   UNL     1      45.238   6.137  11.534  0.00  0.00    +0.000 A 
ATOM     20  C   UNL     1      46.223   5.778  12.438  0.00  0.00    +0.000 A 
ATOM     21  N   UNL     1      46.806   6.672  13.277  0.00  0.00    +0.000 NA
ATOM     22  C   UNL     1      46.388   7.958  13.201  0.00  0.00    +0.000 A 
ATOM     23  C   UNL     1      45.397   8.306  12.285  0.00  0.00    +0.000 A 
ATOM     24  N   UNL     1      44.804   7.418  11.435  0.00  0.00    +0.000 NA
BRANCH  19  26
ATOM     25  N   UNL     1      44.189   4.338   9.979  0.00  0.00    +0.000 NA
ATOM     26  C   UNL     1      44.633   5.156  10.679  0.00  0.00    +0.000 C 
ENDBRANCH  19  26
ENDBRANCH  17  22
ENDBRANCH   1  17
TORSDOF 5
ENDMDL
