MODEL 1
REMARK VINA RESULT:    -8.568      0.000      0.000
REMARK INTER + INTRA:         -13.289
REMARK INTER:                 -12.325
REMARK INTRA:                  -0.964
REMARK UNBOUND:                -0.964
REMARK  Name = 
REMARK  9 active torsions:
REMARK  status: ('A' for Active; 'I' for Inactive)
REMARK    1  A    between atoms: C_1  and  C_2
REMARK    2  A    between atoms: C_4  and  C_5
REMARK    3  A    between atoms: C_5  and  N_6
REMARK    4  A    between atoms: N_6  and  C_7
REMARK    5  A    between atoms: C_7  and  C_8
REMARK    6  A    between atoms: C_16  and  C_17
REMARK    7  A    between atoms: C_17  and  N_18
REMARK    8  A    between atoms: C_19  and  C_21
REMARK    9  A    between atoms: C_28  and  O_29
REMARK                            x       y       z     vdW  Elec       q    Type
REMARK                         _______ _______ _______ _____ _____    ______ ____
ROOT
ATOM      1  C   UNL     1      44.875   9.564  12.121  0.00  0.00    +0.000 C 
ATOM      2  C   UNL     1      45.189   8.093  12.056  0.00  0.00    +0.000 A 
ATOM      3  C   UNL     1      44.258   7.242  11.425  0.00  0.00    +0.000 A 
ATOM      4  C   UNL     1      44.475   5.862  11.324  0.00  0.00    +0.000 A 
ATOM      5  C   UNL     1      45.643   5.329  11.877  0.00  0.00    +0.000 A 
ATOM      6  C   UNL     1      46.564   6.155  12.525  0.00  0.00    +0.000 A 
ATOM      7  C   UNL     1      46.359   7.544  12.620  0.00  0.00    +0.000 A 
ENDROOT
BRANCH   4   8
ATOM      8  C   UNL     1      43.471   4.969  10.629  0.00  0.00    +0.000 C 
BRANCH   8   9
ATOM      9  N   UNL     1      44.009   4.478   9.364  0.00  0.00    +0.000 NA
ATOM     10  H   UNL     1      44.844   5.011   9.128  0.00  0.00    +0.000 HD
BRANCH   9  11
ATOM     11  C   UNL     1      44.356   3.061   9.429  0.00  0.00    +0.000 C 
BRANCH  11  12
ATOM     12  C   UNL     1      45.454   2.745   8.438  0.00  0.00    +0.000 A 
ATOM     13  C   UNL     1      45.969   3.732   7.588  0.00  0.00    +0.000 A 
ATOM     14  C   UNL     1      46.976   3.418   6.673  0.00  0.00    +0.000 A 
ATOM     15  C   UNL     1      47.481   2.121   6.599  0.00  0.00    +0.000 A 
ATOM     16  C   UNL     1      46.981   1.131   7.445  0.00  0.00    +0.000 A 
ATOM     17  C   UNL     1      45.975   1.444   8.361  0.00  0.00    +0.000 A 
ENDBRANCH  11  12
ENDBRANCH   9  11
ENDBRANCH   8   9
ENDBRANCH   4   8
BRANCH   7  18
ATOM     18  C   UNL     1      47.393   8.365  13.360  0.00  0.00    +0.000 C 
BRANCH  18  19
ATOM     19  N   UNL     1      47.710   7.783  14.639  0.00  0.00    +0.000 N 
ATOM     20  C   UNL     1      48.840   7.031  14.835  0.00  0.00    +0.000 C 
ATOM     21  O   UNL     1      49.673   6.859  13.948  0.00  0.00    +0.000 OA
ATOM     22  H   UNL     1      46.961   7.697  15.318  0.00  0.00    +0.000 HD
BRANCH  20  23
ATOM     23  C   UNL     1      49.040   6.511  16.197  0.00  0.00    +0.000 A 
ATOM     24  C   UNL     1      49.733   7.278  17.124  0.00  0.00    +0.000 A 
ATOM     25  S   UNL     1      49.755   6.603  18.686  0.00  0.00    +0.000 S 
ATOM     26  C   UNL     1      48.897   5.233  18.161  0.00  0.00    +0.000 A 
ATOM     27  N   UNL     1      48.586   4.260  19.044  0.00  0.00    +0.000 NA
ATOM     28  C   UNL     1      47.939   3.209  18.513  0.00  0.00    +0.000 A 
ATOM     29  C   UNL     1      47.611   3.066  17.182  0.00  0.00    +0.000 A 
ATOM     30  C   UNL     1      47.946   4.100  16.313  0.00  0.00    +0.000 A 
ATOM     31  C   UNL     1      48.599   5.260  16.799  0.00  0.00    +0.000 A 
BRANCH  30  32
ATOM     32  O   UNL     1      47.636   3.981  14.980  0.00  0.00    +0.000 OA
ATOM     33  H   UNL     1      47.742   4.844  14.542  0.00  0.00    +0.000 HD
ENDBRANCH  30  32
ENDBRANCH  20  23
ENDBRANCH  18  19
ENDBRANCH   7  18
TORSDOF 8
ENDMDL
MODEL 2
REMARK VINA RESULT:    -8.543      2.093      2.913
REMARK INTER + INTRA:         -13.252
REMARK INTER:                 -12.100
REMARK INTRA:                  -1.152
REMARK UNBOUND:                -0.964
REMARK  Name = 
REMARK  9 active torsions:
REMARK  status: ('A' for Active; 'I' for Inactive)
REMARK    1  A    between atoms: C_1  and  C_2
REMARK    2  A    between atoms: C_4  and  C_5
REMARK    3  A    between atoms: C_5  and  N_6
REMARK    4  A    between atoms: N_6  and  C_7
REMARK    5  A    between atoms: C_7  and  C_8
REMARK    6  A    between atoms: C_16  and  C_17
REMARK    7  A    between atoms: C_17  and  N_18
REMARK    8  A    between atoms: C_19  and  C_21
REMARK    9  A    between atoms: C_28  and  O_29
REMARK                            x       y       z     vdW  Elec       q    Type
REMARK                         _______ _______ _______ _____ _____    ______ ____
ROOT
ATOM      1  C   UNL     1      45.735   7.668  12.831  0.00  0.00    +0.000 C 
ATOM      2  C   UNL     1      45.818   6.166  12.862  0.00  0.00    +0.000 A 
ATOM      3  C   UNL     1      44.778   5.430  12.258  0.00  0.00    +0.000 A 
ATOM      4  C   UNL     1      44.781   4.029  12.246  0.00  0.00    +0.000 A 
ATOM      5  C   UNL     1      45.841   3.359  12.862  0.00  0.00    +0.000 A 
ATOM      6  C   UNL     1      46.868   4.073  13.485  0.00  0.00    +0.000 A 
ATOM      7  C   UNL     1      46.878   5.480  13.491  0.00  0.00    +0.000 A 
ENDROOT
BRANCH   4   8
ATOM      8  C   UNL     1      43.663   3.259  11.578  0.00  0.00    +0.000 C 
BRANCH   8   9
ATOM      9  N   UNL     1      44.178   2.470  10.463  0.00  0.00    +0.000 NA
ATOM     10  H   UNL     1      43.536   1.702  10.274  0.00  0.00    +0.000 HD
BRANCH   9  11
ATOM     11  C   UNL     1      44.329   3.269   9.250  0.00  0.00    +0.000 C 
BRANCH  11  12
ATOM     12  C   UNL     1      45.473   2.740   8.414  0.00  0.00    +0.000 A 
ATOM     13  C   UNL     1      45.803   1.378   8.418  0.00  0.00    +0.000 A 
ATOM     14  C   UNL     1      46.869   0.910   7.646  0.00  0.00    +0.000 A 
ATOM     15  C   UNL     1      47.612   1.792   6.862  0.00  0.00    +0.000 A 
ATOM     16  C   UNL     1      47.288   3.148   6.845  0.00  0.00    +0.000 A 
ATOM     17  C   UNL     1      46.222   3.617   7.614  0.00  0.00    +0.000 A 
ENDBRANCH  11  12
ENDBRANCH   9  11
ENDBRANCH   8   9
ENDBRANCH   4   8
BRANCH   7  18
ATOM     18  C   UNL     1      48.013   6.178  14.209  0.00  0.00    +0.000 C 
BRANCH  18  19
ATOM     19  N   UNL     1      47.898   6.036  15.638  0.00  0.00    +0.000 N 
ATOM     20  C   UNL     1      48.997   6.007  16.457  0.00  0.00    +0.000 C 
ATOM     21  O   UNL     1      50.138   6.156  16.026  0.00  0.00    +0.000 OA
ATOM     22  H   UNL     1      47.022   5.681  16.008  0.00  0.00    +0.000 HD
BRANCH  20  23
ATOM     23  C   UNL     1      48.725   5.871  17.896  0.00  0.00    +0.000 A 
ATOM     24  C   UNL     1      49.003   4.668  18.531  0.00  0.00    +0.000 A 
ATOM     25  S   UNL     1      48.768   4.716  20.216  0.00  0.00    +0.000 S 
ATOM     26  C   UNL     1      48.223   6.324  20.145  0.00  0.00    +0.000 A 
ATOM     27  N   UNL     1      47.865   6.959  21.282  0.00  0.00    +0.000 NA
ATOM     28  C   UNL     1      47.418   8.214  21.103  0.00  0.00    +0.000 A 
ATOM     29  C   UNL     1      47.289   8.848  19.886  0.00  0.00    +0.000 A 
ATOM     30  C   UNL     1      47.680   8.154  18.745  0.00  0.00    +0.000 A 
ATOM     31  C   UNL     1      48.196   6.838  18.849  0.00  0.00    +0.000 A 
BRANCH  30  32
ATOM     32  O   UNL     1      47.557   8.760  17.519  0.00  0.00    +0.000 OA
ATOM     33  H   UNL     1      46.667   8.595  17.160  0.00  0.00    +0.000 HD
ENDBRANCH  30  32
ENDBRANCH  20  23
ENDBRANCH  18  19
ENDBRANCH   7  18
TORSDOF 8
ENDMDL
MODEL 3
REMARK VINA RESULT:    -8.470      1.871      2.716
REMARK INTER + INTRA:         -13.148
REMARK INTER:                 -11.905
REMARK INTRA:                  -1.243
REMARK UNBOUND:                -0.964
REMARK  Name = 
REMARK  9 active torsions:
REMARK  status: ('A' for Active; 'I' for Inactive)
REMARK    1  A    between atoms: C_1  and  C_2
REMARK    2  A    between atoms: C_4  and  C_5
REMARK    3  A    between atoms: C_5  and  N_6
REMARK    4  A    between atoms: N_6  and  C_7
REMARK    5  A    between atoms: C_7  and  C_8
REMARK    6  A    between atoms: C_16  and  C_17
REMARK    7  A    between atoms: C_17  and  N_18
REMARK    8  A    between atoms: C_19  and  C_21
REMARK    9  A    between atoms: C_28  and  O_29
REMARK                            x       y       z     vdW  Elec       q    Type
REMARK                         _______ _______ _______ _____ _____    ______ ____
ROOT
ATOM      1  C   UNL     1      46.944   4.175  14.417  0.00  0.00    +0.000 C 
ATOM      2  C   UNL     1      46.481   5.002  13.248  0.00  0.00    +0.000 A 
ATOM      3  C   UNL     1      45.322   4.589  12.559  0.00  0.00    +0.000 A 
ATOM      4  C   UNL     1      44.828   5.303  11.460  0.00  0.00    +0.000 A 
ATOM      5  C   UNL     1      45.518   6.444  11.042  0.00  0.00    +0.000 A 
ATOM      6  C   UNL     1      46.680   6.854  11.699  0.00  0.00    +0.000 A 
ATOM      7  C   UNL     1      47.176   6.149  12.811  0.00  0.00    +0.000 A 
ENDROOT
BRANCH   4   8
ATOM      8  C   UNL     1      43.574   4.852  10.745  0.00  0.00    +0.000 C 
BRANCH   8   9
ATOM      9  N   UNL     1      43.897   4.327   9.421  0.00  0.00    +0.000 NA
ATOM     10  H   UNL     1      44.647   4.884   9.016  0.00  0.00    +0.000 HD
BRANCH   9  11
ATOM     11  C   UNL     1      44.319   2.930   9.474  0.00  0.00    +0.000 C 
BRANCH  11  12
ATOM     12  C   UNL     1      45.399   2.672   8.447  0.00  0.00    +0.000 A 
ATOM     13  C   UNL     1      46.015   1.418   8.344  0.00  0.00    +0.000 A 
ATOM     14  C   UNL     1      47.018   1.202   7.395  0.00  0.00    +0.000 A 
ATOM     15  C   UNL     1      47.412   2.230   6.541  0.00  0.00    +0.000 A 
ATOM     16  C   UNL     1      46.802   3.480   6.630  0.00  0.00    +0.000 A 
ATOM     17  C   UNL     1      45.799   3.698   7.576  0.00  0.00    +0.000 A 
ENDBRANCH  11  12
ENDBRANCH   9  11
ENDBRANCH   8   9
ENDBRANCH   4   8
BRANCH   7  18
ATOM     18  C   UNL     1      48.456   6.643  13.452  0.00  0.00    +0.000 C 
BRANCH  18  19
ATOM     19  N   UNL     1      48.198   7.279  14.719  0.00  0.00    +0.000 N 
ATOM     20  C   UNL     1      48.915   6.972  15.846  0.00  0.00    +0.000 C 
ATOM     21  O   UNL     1      49.853   6.178  15.829  0.00  0.00    +0.000 OA
ATOM     22  H   UNL     1      47.307   7.749  14.839  0.00  0.00    +0.000 HD
BRANCH  20  23
ATOM     23  C   UNL     1      48.549   7.711  17.064  0.00  0.00    +0.000 A 
ATOM     24  C   UNL     1      48.400   9.090  17.005  0.00  0.00    +0.000 A 
ATOM     25  S   UNL     1      47.837   9.777  18.458  0.00  0.00    +0.000 S 
ATOM     26  C   UNL     1      47.839   8.265  19.233  0.00  0.00    +0.000 A 
ATOM     27  N   UNL     1      47.444   8.174  20.521  0.00  0.00    +0.000 NA
ATOM     28  C   UNL     1      47.519   6.937  21.042  0.00  0.00    +0.000 A 
ATOM     29  C   UNL     1      47.973   5.819  20.377  0.00  0.00    +0.000 A 
ATOM     30  C   UNL     1      48.360   5.963  19.048  0.00  0.00    +0.000 A 
ATOM     31  C   UNL     1      48.279   7.226  18.412  0.00  0.00    +0.000 A 
BRANCH  30  32
ATOM     32  O   UNL     1      48.822   4.866  18.363  0.00  0.00    +0.000 OA
ATOM     33  H   UNL     1      48.633   4.058  18.873  0.00  0.00    +0.000 HD
ENDBRANCH  30  32
ENDBRANCH  20  23
ENDBRANCH  18  19
ENDBRANCH   7  18
TORSDOF 8
ENDMDL
MODEL 4
REMARK VINA RESULT:    -8.446      2.094      3.310
REMARK INTER + INTRA:         -13.112
REMARK INTER:                 -12.014
REMARK INTRA:                  -1.098
REMARK UNBOUND:                -0.964
REMARK  Name = 
REMARK  9 active torsions:
REMARK  status: ('A' for Active; 'I' for Inactive)
REMARK    1  A    between atoms: C_1  and  C_2
REMARK    2  A    between atoms: C_4  and  C_5
REMARK    3  A    between atoms: C_5  and  N_6
REMARK    4  A    between atoms: N_6  and  C_7
REMARK    5  A    between atoms: C_7  and  C_8
REMARK    6  A    between atoms: C_16  and  C_17
REMARK    7  A    between atoms: C_17  and  N_18
REMARK    8  A    between atoms: C_19  and  C_21
REMARK    9  A    between atoms: C_28  and  O_29
REMARK                            x       y       z     vdW  Elec       q    Type
REMARK                         _______ _______ _______ _____ _____    ______ ____
ROOT
ATOM      1  C   UNL     1      46.970   3.998  14.341  0.00  0.00    +0.000 C 
ATOM      2  C   UNL     1      46.470   4.901  13.246  0.00  0.00    +0.000 A 
ATOM      3  C   UNL     1      45.351   4.483  12.498  0.00  0.00    +0.000 A 
ATOM      4  C   UNL     1      44.826   5.266  11.462  0.00  0.00    +0.000 A 
ATOM      5  C   UNL     1      45.444   6.484  11.168  0.00  0.00    +0.000 A 
ATOM      6  C   UNL     1      46.567   6.903  11.886  0.00  0.00    +0.000 A 
ATOM      7  C   UNL     1      47.093   6.128  12.936  0.00  0.00    +0.000 A 
ENDROOT
BRANCH   4   8
ATOM      8  C   UNL     1      43.615   4.805  10.681  0.00  0.00    +0.000 C 
BRANCH   8   9
ATOM      9  N   UNL     1      44.009   4.314   9.363  0.00  0.00    +0.000 NA
ATOM     10  H   UNL     1      44.793   4.867   9.023  0.00  0.00    +0.000 HD
BRANCH   9  11
ATOM     11  C   UNL     1      44.400   2.908   9.397  0.00  0.00    +0.000 C 
BRANCH  11  12
ATOM     12  C   UNL     1      45.492   2.644   8.384  0.00  0.00    +0.000 A 
ATOM     13  C   UNL     1      45.951   3.658   7.534  0.00  0.00    +0.000 A 
ATOM     14  C   UNL     1      46.954   3.392   6.598  0.00  0.00    +0.000 A 
ATOM     15  C   UNL     1      47.510   2.117   6.505  0.00  0.00    +0.000 A 
ATOM     16  C   UNL     1      47.066   1.102   7.351  0.00  0.00    +0.000 A 
ATOM     17  C   UNL     1      46.065   1.366   8.287  0.00  0.00    +0.000 A 
ENDBRANCH  11  12
ENDBRANCH   9  11
ENDBRANCH   8   9
ENDBRANCH   4   8
BRANCH   7  18
ATOM     18  C   UNL     1      48.327   6.641  13.647  0.00  0.00    +0.000 C 
BRANCH  18  19
ATOM     19  N   UNL     1      48.041   6.982  15.017  0.00  0.00    +0.000 N 
ATOM     20  C   UNL     1      48.907   6.684  16.037  0.00  0.00    +0.000 C 
ATOM     21  O   UNL     1      49.999   6.158  15.835  0.00  0.00    +0.000 OA
ATOM     22  H   UNL     1      47.079   7.194  15.260  0.00  0.00    +0.000 HD
BRANCH  20  23
ATOM     23  C   UNL     1      48.488   7.105  17.383  0.00  0.00    +0.000 A 
ATOM     24  C   UNL     1      48.401   6.160  18.396  0.00  0.00    +0.000 A 
ATOM     25  S   UNL     1      48.043   6.827  19.920  0.00  0.00    +0.000 S 
ATOM     26  C   UNL     1      47.926   8.390  19.266  0.00  0.00    +0.000 A 
ATOM     27  N   UNL     1      47.643   9.434  20.074  0.00  0.00    +0.000 NA
ATOM     28  C   UNL     1      47.541  10.617  19.444  0.00  0.00    +0.000 A 
ATOM     29  C   UNL     1      47.679  10.811  18.087  0.00  0.00    +0.000 A 
ATOM     30  C   UNL     1      47.980   9.705  17.297  0.00  0.00    +0.000 A 
ATOM     31  C   UNL     1      48.139   8.426  17.887  0.00  0.00    +0.000 A 
BRANCH  30  32
ATOM     32  O   UNL     1      48.118   9.869  15.941  0.00  0.00    +0.000 OA
ATOM     33  H   UNL     1      48.425  10.773  15.750  0.00  0.00    +0.000 HD
ENDBRANCH  30  32
ENDBRANCH  20  23
ENDBRANCH  18  19
ENDBRANCH   7  18
TORSDOF 8
ENDMDL
MODEL 5
REMARK VINA RESULT:    -7.642      3.760      5.726
REMARK INTER + INTRA:         -11.956
REMARK INTER:                 -10.688
REMARK INTRA:                  -1.268
REMARK UNBOUND:                -0.964
REMARK  Name = 
REMARK  9 active torsions:
REMARK  status: ('A' for Active; 'I' for Inactive)
REMARK    1  A    between atoms: C_1  and  C_2
REMARK    2  A    between atoms: C_4  and  C_5
REMARK    3  A    between atoms: C_5  and  N_6
REMARK    4  A    between atoms: N_6  and  C_7
REMARK    5  A    between atoms: C_7  and  C_8
REMARK    6  A    between atoms: C_16  and  C_17
REMARK    7  A    between atoms: C_17  and  N_18
REMARK    8  A    between atoms: C_19  and  C_21
REMARK    9  A    between atoms: C_28  and  O_29
REMARK                            x       y       z     vdW  Elec       q    Type
REMARK                         _______ _______ _______ _____ _____    ______ ____
ROOT
ATOM      1  C   UNL     1      47.297   4.687  15.115  0.00  0.00    +0.000 C 
ATOM      2  C   UNL     1      46.831   5.108  13.748  0.00  0.00    +0.000 A 
ATOM      3  C   UNL     1      45.833   4.336  13.118  0.00  0.00    +0.000 A 
ATOM      4  C   UNL     1      45.347   4.661  11.845  0.00  0.00    +0.000 A 
ATOM      5  C   UNL     1      45.881   5.775  11.192  0.00  0.00    +0.000 A 
ATOM      6  C   UNL     1      46.885   6.538  11.793  0.00  0.00    +0.000 A 
ATOM      7  C   UNL     1      47.370   6.225  13.076  0.00  0.00    +0.000 A 
ENDROOT
BRANCH   4   8
ATOM      8  C   UNL     1      44.266   3.828  11.193  0.00  0.00    +0.000 C 
BRANCH   8   9
ATOM      9  N   UNL     1      44.820   2.580  10.675  0.00  0.00    +0.000 NA
ATOM     10  H   UNL     1      44.528   1.812  11.275  0.00  0.00    +0.000 HD
BRANCH   9  11
ATOM     11  C   UNL     1      44.377   2.309   9.310  0.00  0.00    +0.000 C 
BRANCH  11  12
ATOM     12  C   UNL     1      45.547   2.394   8.355  0.00  0.00    +0.000 A 
ATOM     13  C   UNL     1      45.890   3.602   7.735  0.00  0.00    +0.000 A 
ATOM     14  C   UNL     1      46.968   3.657   6.847  0.00  0.00    +0.000 A 
ATOM     15  C   UNL     1      47.714   2.512   6.574  0.00  0.00    +0.000 A 
ATOM     16  C   UNL     1      47.385   1.305   7.190  0.00  0.00    +0.000 A 
ATOM     17  C   UNL     1      46.310   1.249   8.078  0.00  0.00    +0.000 A 
ENDBRANCH  11  12
ENDBRANCH   9  11
ENDBRANCH   8   9
ENDBRANCH   4   8
BRANCH   7  18
ATOM     18  C   UNL     1      48.477   7.086  13.646  0.00  0.00    +0.000 C 
BRANCH  18  19
ATOM     19  N   UNL     1      49.064   7.927  12.634  0.00  0.00    +0.000 N 
ATOM     20  C   UNL     1      49.483   9.205  12.903  0.00  0.00    +0.000 C 
ATOM     21  O   UNL     1      49.432   9.685  14.033  0.00  0.00    +0.000 OA
ATOM     22  H   UNL     1      48.913   7.673  11.663  0.00  0.00    +0.000 HD
BRANCH  20  23
ATOM     23  C   UNL     1      50.074   9.940  11.775  0.00  0.00    +0.000 A 
ATOM     24  C   UNL     1      49.571  11.190  11.438  0.00  0.00    +0.000 A 
ATOM     25  S   UNL     1      50.453  11.969  10.208  0.00  0.00    +0.000 S 
ATOM     26  C   UNL     1      51.492  10.637  10.038  0.00  0.00    +0.000 A 
ATOM     27  N   UNL     1      52.492  10.680   9.131  0.00  0.00    +0.000 NA
ATOM     28  C   UNL     1      53.229   9.559   9.058  0.00  0.00    +0.000 A 
ATOM     29  C   UNL     1      53.019   8.418   9.802  0.00  0.00    +0.000 A 
ATOM     30  C   UNL     1      51.982   8.426  10.730  0.00  0.00    +0.000 A 
ATOM     31  C   UNL     1      51.178   9.581  10.894  0.00  0.00    +0.000 A 
BRANCH  30  32
ATOM     32  O   UNL     1      51.747   7.300  11.481  0.00  0.00    +0.000 OA
ATOM     33  H   UNL     1      52.244   6.550  11.109  0.00  0.00    +0.000 HD
ENDBRANCH  30  32
ENDBRANCH  20  23
ENDBRANCH  18  19
ENDBRANCH   7  18
TORSDOF 8
ENDMDL
MODEL 6
REMARK VINA RESULT:    -7.586      1.756      2.112
REMARK INTER + INTRA:         -11.875
REMARK INTER:                 -10.288
REMARK INTRA:                  -1.588
REMARK UNBOUND:                -0.964
REMARK  Name = 
REMARK  9 active torsions:
REMARK  status: ('A' for Active; 'I' for Inactive)
REMARK    1  A    between atoms: C_1  and  C_2
REMARK    2  A    between atoms: C_4  and  C_5
REMARK    3  A    between atoms: C_5  and  N_6
REMARK    4  A    between atoms: N_6  and  C_7
REMARK    5  A    between atoms: C_7  and  C_8
REMARK    6  A    between atoms: C_16  and  C_17
REMARK    7  A    between atoms: C_17  and  N_18
REMARK    8  A    between atoms: C_19  and  C_21
REMARK    9  A    between atoms: C_28  and  O_29
REMARK                            x       y       z     vdW  Elec       q    Type
REMARK                         _______ _______ _______ _____ _____    ______ ____
ROOT
ATOM      1  C   UNL     1      45.655   8.714  12.708  0.00  0.00    +0.000 C 
ATOM      2  C   UNL     1      45.900   7.251  12.958  0.00  0.00    +0.000 A 
ATOM      3  C   UNL     1      44.804   6.369  12.874  0.00  0.00    +0.000 A 
ATOM      4  C   UNL     1      44.949   4.993  13.095  0.00  0.00    +0.000 A 
ATOM      5  C   UNL     1      46.216   4.499  13.416  0.00  0.00    +0.000 A 
ATOM      6  C   UNL     1      47.309   5.363  13.525  0.00  0.00    +0.000 A 
ATOM      7  C   UNL     1      47.173   6.744  13.293  0.00  0.00    +0.000 A 
ENDROOT
BRANCH   4   8
ATOM      8  C   UNL     1      43.762   4.062  12.984  0.00  0.00    +0.000 C 
BRANCH   8   9
ATOM      9  N   UNL     1      44.142   2.822  12.313  0.00  0.00    +0.000 NA
ATOM     10  H   UNL     1      43.882   2.032  12.900  0.00  0.00    +0.000 HD
BRANCH   9  11
ATOM     11  C   UNL     1      43.490   2.680  11.014  0.00  0.00    +0.000 C 
BRANCH  11  12
ATOM     12  C   UNL     1      44.460   3.015   9.903  0.00  0.00    +0.000 A 
ATOM     13  C   UNL     1      44.800   4.343   9.614  0.00  0.00    +0.000 A 
ATOM     14  C   UNL     1      45.690   4.633   8.577  0.00  0.00    +0.000 A 
ATOM     15  C   UNL     1      46.251   3.604   7.823  0.00  0.00    +0.000 A 
ATOM     16  C   UNL     1      45.925   2.278   8.105  0.00  0.00    +0.000 A 
ATOM     17  C   UNL     1      45.037   1.986   9.141  0.00  0.00    +0.000 A 
ENDBRANCH  11  12
ENDBRANCH   9  11
ENDBRANCH   8   9
ENDBRANCH   4   8
BRANCH   7  18
ATOM     18  C   UNL     1      48.401   7.615  13.457  0.00  0.00    +0.000 C 
BRANCH  18  19
ATOM     19  N   UNL     1      49.038   7.393  14.730  0.00  0.00    +0.000 N 
ATOM     20  C   UNL     1      48.807   8.205  15.810  0.00  0.00    +0.000 C 
ATOM     21  O   UNL     1      48.003   9.134  15.770  0.00  0.00    +0.000 OA
ATOM     22  H   UNL     1      49.864   6.805  14.748  0.00  0.00    +0.000 HD
BRANCH  20  23
ATOM     23  C   UNL     1      49.516   7.849  17.048  0.00  0.00    +0.000 A 
ATOM     24  C   UNL     1      50.555   8.655  17.493  0.00  0.00    +0.000 A 
ATOM     25  S   UNL     1      51.177   8.190  19.008  0.00  0.00    +0.000 S 
ATOM     26  C   UNL     1      50.125   6.858  19.088  0.00  0.00    +0.000 A 
ATOM     27  N   UNL     1      50.157   6.045  20.165  0.00  0.00    +0.000 NA
ATOM     28  C   UNL     1      49.308   5.005  20.106  0.00  0.00    +0.000 A 
ATOM     29  C   UNL     1      48.466   4.724  19.051  0.00  0.00    +0.000 A 
ATOM     30  C   UNL     1      48.464   5.597  17.968  0.00  0.00    +0.000 A 
ATOM     31  C   UNL     1      49.304   6.738  17.966  0.00  0.00    +0.000 A 
BRANCH  30  32
ATOM     32  O   UNL     1      47.639   5.338  16.901  0.00  0.00    +0.000 OA
ATOM     33  H   UNL     1      48.116   4.806  16.240  0.00  0.00    +0.000 HD
ENDBRANCH  30  32
ENDBRANCH  20  23
ENDBRANCH  18  19
ENDBRANCH   7  18
TORSDOF 8
ENDMDL
MODEL 7
REMARK VINA RESULT:    -7.279      2.670      3.898
REMARK INTER + INTRA:         -11.435
REMARK INTER:                 -10.322
REMARK INTRA:                  -1.113
REMARK UNBOUND:                -0.964
REMARK  Name = 
REMARK  9 active torsions:
REMARK  status: ('A' for Active; 'I' for Inactive)
REMARK    1  A    between atoms: C_1  and  C_2
REMARK    2  A    between atoms: C_4  and  C_5
REMARK    3  A    between atoms: C_5  and  N_6
REMARK    4  A    between atoms: N_6  and  C_7
REMARK    5  A    between atoms: C_7  and  C_8
REMARK    6  A    between atoms: C_16  and  C_17
REMARK    7  A    between atoms: C_17  and  N_18
REMARK    8  A    between atoms: C_19  and  C_21
REMARK    9  A    between atoms: C_28  and  O_29
REMARK                            x       y       z     vdW  Elec       q    Type
REMARK                         _______ _______ _______ _____ _____    ______ ____
ROOT
ATOM      1  C   UNL     1      48.842   7.333  13.564  0.00  0.00    +0.000 C 
ATOM      2  C   UNL     1      47.633   6.444  13.464  0.00  0.00    +0.000 A 
ATOM      3  C   UNL     1      46.725   6.671  12.409  0.00  0.00    +0.000 A 
ATOM      4  C   UNL     1      45.575   5.888  12.249  0.00  0.00    +0.000 A 
ATOM      5  C   UNL     1      45.329   4.867  13.171  0.00  0.00    +0.000 A 
ATOM      6  C   UNL     1      46.207   4.643  14.234  0.00  0.00    +0.000 A 
ATOM      7  C   UNL     1      47.370   5.418  14.396  0.00  0.00    +0.000 A 
ENDROOT
BRANCH   4   8
ATOM      8  C   UNL     1      44.622   6.138  11.100  0.00  0.00    +0.000 C 
BRANCH   8   9
ATOM      9  N   UNL     1      45.116   5.513   9.877  0.00  0.00    +0.000 NA
ATOM     10  H   UNL     1      46.118   5.358   9.964  0.00  0.00    +0.000 HD
BRANCH   9  11
ATOM     11  C   UNL     1      44.460   4.235   9.611  0.00  0.00    +0.000 C 
BRANCH  11  12
ATOM     12  C   UNL     1      45.338   3.369   8.736  0.00  0.00    +0.000 A 
ATOM     13  C   UNL     1      45.349   1.975   8.875  0.00  0.00    +0.000 A 
ATOM     14  C   UNL     1      46.175   1.193   8.064  0.00  0.00    +0.000 A 
ATOM     15  C   UNL     1      46.992   1.791   7.107  0.00  0.00    +0.000 A 
ATOM     16  C   UNL     1      46.985   3.177   6.955  0.00  0.00    +0.000 A 
ATOM     17  C   UNL     1      46.160   3.960   7.763  0.00  0.00    +0.000 A 
ENDBRANCH  11  12
ENDBRANCH   9  11
ENDBRANCH   8   9
ENDBRANCH   4   8
BRANCH   7  18
ATOM     18  C   UNL     1      48.256   5.128  15.589  0.00  0.00    +0.000 C 
BRANCH  18  19
ATOM     19  N   UNL     1      47.868   5.912  16.734  0.00  0.00    +0.000 N 
ATOM     20  C   UNL     1      48.703   6.845  17.294  0.00  0.00    +0.000 C 
ATOM     21  O   UNL     1      49.806   7.105  16.818  0.00  0.00    +0.000 OA
ATOM     22  H   UNL     1      47.089   5.579  17.293  0.00  0.00    +0.000 HD
BRANCH  20  23
ATOM     23  C   UNL     1      48.167   7.578  18.451  0.00  0.00    +0.000 A 
ATOM     24  C   UNL     1      47.922   6.896  19.635  0.00  0.00    +0.000 A 
ATOM     25  S   UNL     1      47.442   7.908  20.917  0.00  0.00    +0.000 S 
ATOM     26  C   UNL     1      47.480   9.280  19.915  0.00  0.00    +0.000 A 
ATOM     27  N   UNL     1      47.170  10.490  20.427  0.00  0.00    +0.000 NA
ATOM     28  C   UNL     1      47.199  11.498  19.538  0.00  0.00    +0.000 A 
ATOM     29  C   UNL     1      47.490  11.368  18.197  0.00  0.00    +0.000 A 
ATOM     30  C   UNL     1      47.812  10.101  17.719  0.00  0.00    +0.000 A 
ATOM     31  C   UNL     1      47.839   8.990  18.599  0.00  0.00    +0.000 A 
BRANCH  30  32
ATOM     32  O   UNL     1      48.101   9.942  16.386  0.00  0.00    +0.000 OA
ATOM     33  H   UNL     1      49.047  10.119  16.234  0.00  0.00    +0.000 HD
ENDBRANCH  30  32
ENDBRANCH  20  23
ENDBRANCH  18  19
ENDBRANCH   7  18
TORSDOF 8
ENDMDL
MODEL 8
REMARK VINA RESULT:    -7.220      2.919      8.790
REMARK INTER + INTRA:         -11.349
REMARK INTER:                  -9.131
REMARK INTRA:                  -2.218
REMARK UNBOUND:                -0.964
REMARK  Name = 
REMARK  9 active torsions:
REMARK  status: ('A' for Active; 'I' for Inactive)
REMARK    1  A    between atoms: C_1  and  C_2
REMARK    2  A    between atoms: C_4  and  C_5
REMARK    3  A    between atoms: C_5  and  N_6
REMARK    4  A    between atoms: N_6  and  C_7
REMARK    5  A    between atoms: C_7  and  C_8
REMARK    6  A    between atoms: C_16  and  C_17
REMARK    7  A    between atoms: C_17  and  N_18
REMARK    8  A    between atoms: C_19  and  C_21
REMARK    9  A    between atoms: C_28  and  O_29
REMARK                            x       y       z     vdW  Elec       q    Type
REMARK                         _______ _______ _______ _____ _____    ______ ____
ROOT
ATOM      1  C   UNL     1      49.957   3.243  17.435  0.00  0.00    +0.000 C 
ATOM      2  C   UNL     1      49.226   4.318  18.192  0.00  0.00    +0.000 A 
ATOM      3  C   UNL     1      49.950   5.081  19.131  0.00  0.00    +0.000 A 
ATOM      4  C   UNL     1      49.342   6.098  19.877  0.00  0.00    +0.000 A 
ATOM      5  C   UNL     1      47.981   6.345  19.681  0.00  0.00    +0.000 A 
ATOM      6  C   UNL     1      47.244   5.584  18.771  0.00  0.00    +0.000 A 
ATOM      7  C   UNL     1      47.850   4.569  18.009  0.00  0.00    +0.000 A 
ENDROOT
BRANCH   4   8
ATOM      8  C   UNL     1      50.141   6.915  20.868  0.00  0.00    +0.000 C 
BRANCH   8   9
ATOM      9  N   UNL     1      51.308   7.510  20.222  0.00  0.00    +0.000 NA
ATOM     10  H   UNL     1      51.772   6.803  19.656  0.00  0.00    +0.000 HD
BRANCH   9  11
ATOM     11  C   UNL     1      50.946   8.638  19.368  0.00  0.00    +0.000 C 
BRANCH  11  12
ATOM     12  C   UNL     1      50.748   8.172  17.943  0.00  0.00    +0.000 A 
ATOM     13  C   UNL     1      49.567   8.456  17.245  0.00  0.00    +0.000 A 
ATOM     14  C   UNL     1      49.399   8.008  15.932  0.00  0.00    +0.000 A 
ATOM     15  C   UNL     1      50.406   7.278  15.304  0.00  0.00    +0.000 A 
ATOM     16  C   UNL     1      51.589   6.995  15.986  0.00  0.00    +0.000 A 
ATOM     17  C   UNL     1      51.759   7.443  17.297  0.00  0.00    +0.000 A 
ENDBRANCH  11  12
ENDBRANCH   9  11
ENDBRANCH   8   9
ENDBRANCH   4   8
BRANCH   7  18
ATOM     18  C   UNL     1      46.976   3.773  17.063  0.00  0.00    +0.000 C 
BRANCH  18  19
ATOM     19  N   UNL     1      46.681   4.519  15.866  0.00  0.00    +0.000 N 
ATOM     20  C   UNL     1      47.019   4.057  14.620  0.00  0.00    +0.000 C 
ATOM     21  O   UNL     1      47.542   2.958  14.450  0.00  0.00    +0.000 OA
ATOM     22  H   UNL     1      46.474   5.507  15.965  0.00  0.00    +0.000 HD
BRANCH  20  23
ATOM     23  C   UNL     1      46.644   4.920  13.490  0.00  0.00    +0.000 A 
ATOM     24  C   UNL     1      47.107   6.228  13.448  0.00  0.00    +0.000 A 
ATOM     25  S   UNL     1      46.704   7.047  12.011  0.00  0.00    +0.000 S 
ATOM     26  C   UNL     1      45.841   5.705  11.428  0.00  0.00    +0.000 A 
ATOM     27  N   UNL     1      45.248   5.767  10.216  0.00  0.00    +0.000 NA
ATOM     28  C   UNL     1      44.565   4.663   9.871  0.00  0.00    +0.000 A 
ATOM     29  C   UNL     1      44.424   3.536  10.653  0.00  0.00    +0.000 A 
ATOM     30  C   UNL     1      45.062   3.518  11.890  0.00  0.00    +0.000 A 
ATOM     31  C   UNL     1      45.832   4.629  12.315  0.00  0.00    +0.000 A 
BRANCH  30  32
ATOM     32  O   UNL     1      44.934   2.411  12.692  0.00  0.00    +0.000 OA
ATOM     33  H   UNL     1      44.050   2.020  12.572  0.00  0.00    +0.000 HD
ENDBRANCH  30  32
ENDBRANCH  20  23
ENDBRANCH  18  19
ENDBRANCH   7  18
TORSDOF 8
ENDMDL
MODEL 9
REMARK VINA RESULT:    -7.125      2.908      8.113
REMARK INTER + INTRA:         -11.213
REMARK INTER:                  -9.737
REMARK INTRA:                  -1.477
REMARK UNBOUND:                -0.964
REMARK  Name = 
REMARK  9 active torsions:
REMARK  status: ('A' for Active; 'I' for Inactive)
REMARK    1  A    between atoms: C_1  and  C_2
REMARK    2  A    between atoms: C_4  and  C_5
REMARK    3  A    between atoms: C_5  and  N_6
REMARK    4  A    between atoms: N_6  and  C_7
REMARK    5  A    between atoms: C_7  and  C_8
REMARK    6  A    between atoms: C_16  and  C_17
REMARK    7  A    between atoms: C_17  and  N_18
REMARK    8  A    between atoms: C_19  and  C_21
REMARK    9  A    between atoms: C_28  and  O_29
REMARK                            x       y       z     vdW  Elec       q    Type
REMARK                         _______ _______ _______ _____ _____    ______ ____
ROOT
ATOM      1  C   UNL     1      50.098   7.553  11.893  0.00  0.00    +0.000 C 
ATOM      2  C   UNL     1      49.547   7.959  13.233  0.00  0.00    +0.000 A 
ATOM      3  C   UNL     1      50.419   7.949  14.342  0.00  0.00    +0.000 A 
ATOM      4  C   UNL     1      49.983   8.312  15.622  0.00  0.00    +0.000 A 
ATOM      5  C   UNL     1      48.646   8.681  15.792  0.00  0.00    +0.000 A 
ATOM      6  C   UNL     1      47.764   8.676  14.709  0.00  0.00    +0.000 A 
ATOM      7  C   UNL     1      48.197   8.324  13.417  0.00  0.00    +0.000 A 
ENDROOT
BRANCH   4   8
ATOM      8  C   UNL     1      50.939   8.308  16.795  0.00  0.00    +0.000 C 
BRANCH   8   9
ATOM      9  N   UNL     1      51.270   6.941  17.185  0.00  0.00    +0.000 NA
ATOM     10  H   UNL     1      52.211   6.923  17.571  0.00  0.00    +0.000 HD
BRANCH   9  11
ATOM     11  C   UNL     1      50.340   6.415  18.180  0.00  0.00    +0.000 C 
BRANCH  11  12
ATOM     12  C   UNL     1      49.660   5.170  17.654  0.00  0.00    +0.000 A 
ATOM     13  C   UNL     1      48.401   5.236  17.043  0.00  0.00    +0.000 A 
ATOM     14  C   UNL     1      47.785   4.074  16.573  0.00  0.00    +0.000 A 
ATOM     15  C   UNL     1      48.418   2.839  16.703  0.00  0.00    +0.000 A 
ATOM     16  C   UNL     1      49.674   2.762  17.304  0.00  0.00    +0.000 A 
ATOM     17  C   UNL     1      50.292   3.922  17.773  0.00  0.00    +0.000 A 
ENDBRANCH  11  12
ENDBRANCH   9  11
ENDBRANCH   8   9
ENDBRANCH   4   8
BRANCH   7  18
ATOM     18  C   UNL     1      47.173   8.319  12.302  0.00  0.00    +0.000 C 
BRANCH  18  19
ATOM     19  N   UNL     1      46.573   7.018  12.145  0.00  0.00    +0.000 N 
ATOM     20  C   UNL     1      45.274   6.862  11.734  0.00  0.00    +0.000 C 
ATOM     21  O   UNL     1      44.567   7.818  11.423  0.00  0.00    +0.000 OA
ATOM     22  H   UNL     1      47.022   6.232  12.603  0.00  0.00    +0.000 HD
BRANCH  20  23
ATOM     23  C   UNL     1      44.801   5.475  11.606  0.00  0.00    +0.000 A 
ATOM     24  C   UNL     1      44.191   4.861  12.691  0.00  0.00    +0.000 A 
ATOM     25  S   UNL     1      43.574   3.314  12.340  0.00  0.00    +0.000 S 
ATOM     26  C   UNL     1      44.161   3.385  10.748  0.00  0.00    +0.000 A 
ATOM     27  N   UNL     1      43.949   2.348   9.909  0.00  0.00    +0.000 NA
ATOM     28  C   UNL     1      44.487   2.498   8.687  0.00  0.00    +0.000 A 
ATOM     29  C   UNL     1      45.225   3.585   8.269  0.00  0.00    +0.000 A 
ATOM     30  C   UNL     1      45.408   4.632   9.167  0.00  0.00    +0.000 A 
ATOM     31  C   UNL     1      44.844   4.569  10.466  0.00  0.00    +0.000 A 
BRANCH  30  32
ATOM     32  O   UNL     1      46.144   5.725   8.779  0.00  0.00    +0.000 OA
ATOM     33  H   UNL     1      46.308   5.685   7.820  0.00  0.00    +0.000 HD
ENDBRANCH  30  32
ENDBRANCH  20  23
ENDBRANCH  18  19
ENDBRANCH   7  18
TORSDOF 8
ENDMDL
