MODEL 1
REMARK VINA RESULT:    -7.157      0.000      0.000
REMARK INTER + INTRA:         -12.350
REMARK INTER:                 -10.923
REMARK INTRA:                  -1.427
REMARK UNBOUND:                -1.427
REMARK  Name = 
REMARK  14 active torsions:
REMARK  status: ('A' for Active; 'I' for Inactive)
REMARK    1  A    between atoms: C_1  and  O_2
REMARK    2  A    between atoms: O_2  and  C_3
REMARK    3  A    between atoms: C_5  and  O_6
REMARK    4  A    between atoms: O_6  and  C_7
REMARK    5  A    between atoms: C_7  and  C_8
REMARK    6  A    between atoms: C_8  and  C_9
REMARK    7  A    between atoms: C_8  and  C_10
REMARK    8  A    between atoms: C_8  and  C_11
REMARK    9  A    between atoms: C_15  and  C_16
REMARK   10  A    between atoms: C_21  and  C_22
REMARK   11  A    between atoms: C_22  and  C_23
REMARK   12  A    between atoms: C_22  and  C_24
REMARK   13  A    between atoms: C_25  and  N_26
REMARK   14  A    between atoms: N_26  and  C_27
REMARK                            x       y       z     vdW  Elec       q    Type
REMARK                         _______ _______ _______ _____ _____    ______ ____
ROOT
ATOM      1  C   UNL     1      47.959   5.350  15.255  0.00  0.00    +0.000 A 
ATOM      2  C   UNL     1      46.840   4.625  14.824  0.00  0.00    +0.000 A 
ATOM      3  C   UNL     1      46.145   4.970  13.671  0.00  0.00    +0.000 A 
ATOM      4  C   UNL     1      46.567   6.072  12.934  0.00  0.00    +0.000 A 
ATOM      5  C   UNL     1      47.655   6.867  13.356  0.00  0.00    +0.000 A 
ATOM      6  C   UNL     1      48.397   6.475  14.513  0.00  0.00    +0.000 A 
ENDROOT
BRANCH   5   7
ATOM      7  C   UNL     1      47.953   8.176  12.612  0.00  0.00    +0.000 C 
ATOM      8  C   UNL     1      48.858   7.962  11.398  0.00  0.00    +0.000 C 
ATOM      9  C   UNL     1      46.689   8.939  12.179  0.00  0.00    +0.000 C 
ENDBRANCH   5   7
BRANCH   1  11
ATOM     10  C   UNL     1      48.355   3.728  16.970  0.00  0.00    +0.000 C 
ATOM     11  O   UNL     1      48.652   5.000  16.394  0.00  0.00    +0.000 OA
ENDBRANCH   1  11
BRANCH   6  12
ATOM     12  N   UNL     1      49.490   7.288  14.909  0.00  0.00    +0.000 N 
ATOM     13  H   UNL     1      50.386   6.860  14.694  0.00  0.00    +0.000 HD
BRANCH  12  14
ATOM     14  C   UNL     1      49.549   8.314  15.913  0.00  0.00    +0.000 C 
ATOM     15  C   UNL     1      48.143   8.862  16.236  0.00  0.00    +0.000 C 
ATOM     16  N   UNL     1      48.628  10.239  16.052  0.00  0.00    +0.000 NA
ATOM     17  C   UNL     1      49.860   9.736  15.411  0.00  0.00    +0.000 C 
ATOM     18  H   UNL     1      48.796  10.726  16.933  0.00  0.00    +0.000 HD
ENDBRANCH  12  14
ENDBRANCH   6  12
BRANCH   3  19
ATOM     19  O   UNL     1      45.029   4.324  13.198  0.00  0.00    +0.000 OA
BRANCH  19  20
ATOM     20  C   UNL     1      45.279   3.276  12.251  0.00  0.00    +0.000 C 
BRANCH  20  21
ATOM     21  C   UNL     1      44.229   3.246  11.108  0.00  0.00    +0.000 C 
ATOM     22  C   UNL     1      43.430   1.928  11.162  0.00  0.00    +0.000 C 
ATOM     23  C   UNL     1      43.235   4.403  11.350  0.00  0.00    +0.000 C 
BRANCH  21  24
ATOM     24  C   UNL     1      44.988   3.350   9.761  0.00  0.00    +0.000 A 
ATOM     25  C   UNL     1      45.235   4.582   9.135  0.00  0.00    +0.000 A 
ATOM     26  C   UNL     1      46.006   4.664   7.972  0.00  0.00    +0.000 A 
ATOM     27  C   UNL     1      46.560   3.513   7.415  0.00  0.00    +0.000 A 
ATOM     28  C   UNL     1      46.326   2.264   7.998  0.00  0.00    +0.000 A 
ATOM     29  C   UNL     1      45.523   2.191   9.148  0.00  0.00    +0.000 A 
BRANCH  28  30
ATOM     30  C   UNL     1      46.995   1.083   7.385  0.00  0.00    +0.000 C 
ATOM     31  N   UNL     1      46.616  -0.174   7.770  0.00  0.00    +0.000 N 
ATOM     32  O   UNL     1      47.898   1.210   6.556  0.00  0.00    +0.000 OA
ATOM     33  H   UNL     1      45.881  -0.399   8.419  0.00  0.00    +0.000 HD
ATOM     34  H   UNL     1      47.123  -0.943   7.348  0.00  0.00    +0.000 HD
ENDBRANCH  28  30
ENDBRANCH  21  24
ENDBRANCH  20  21
ENDBRANCH  19  20
ENDBRANCH   3  19
TORSDOF 9
ENDMDL
MODEL 2
REMARK VINA RESULT:    -6.918      1.240      2.971
REMARK INTER + INTRA:         -11.984
REMARK INTER:                 -10.489
REMARK INTRA:                  -1.495
REMARK UNBOUND:                -1.427
REMARK  Name = 
REMARK  14 active torsions:
REMARK  status: ('A' for Active; 'I' for Inactive)
REMARK    1  A    between atoms: C_1  and  O_2
REMARK    2  A    between atoms: O_2  and  C_3
REMARK    3  A    between atoms: C_5  and  O_6
REMARK    4  A    between atoms: O_6  and  C_7
REMARK    5  A    between atoms: C_7  and  C_8
REMARK    6  A    between atoms: C_8  and  C_9
REMARK    7  A    between atoms: C_8  and  C_10
REMARK    8  A    between atoms: C_8  and  C_11
REMARK    9  A    between atoms: C_15  and  C_16
REMARK   10  A    between atoms: C_21  and  C_22
REMARK   11  A    between atoms: C_22  and  C_23
REMARK   12  A    between atoms: C_22  and  C_24
REMARK   13  A    between atoms: C_25  and  N_26
REMARK   14  A    between atoms: N_26  and  C_27
REMARK                            x       y       z     vdW  Elec       q    Type
REMARK                         _______ _______ _______ _____ _____    ______ ____
ROOT
ATOM      1  C   UNL     1      48.016   6.492  13.686  0.00  0.00    +0.000 A 
ATOM      2  C   UNL     1      46.924   5.753  13.210  0.00  0.00    +0.000 A 
ATOM      3  C   UNL     1      46.304   4.781  13.987  0.00  0.00    +0.000 A 
ATOM      4  C   UNL     1      46.790   4.531  15.266  0.00  0.00    +0.000 A 
ATOM      5  C   UNL     1      47.921   5.210  15.771  0.00  0.00    +0.000 A 
ATOM      6  C   UNL     1      48.520   6.244  14.987  0.00  0.00    +0.000 A 
ENDROOT
BRANCH   5   7
ATOM      7  C   UNL     1      48.527   4.757  17.106  0.00  0.00    +0.000 C 
ATOM      8  C   UNL     1      47.654   5.142  18.301  0.00  0.00    +0.000 C 
ATOM      9  C   UNL     1      48.835   3.250  17.162  0.00  0.00    +0.000 C 
ENDBRANCH   5   7
BRANCH   1  11
ATOM     10  C   UNL     1      47.777   8.454  12.337  0.00  0.00    +0.000 C 
ATOM     11  O   UNL     1      48.622   7.461  12.917  0.00  0.00    +0.000 OA
ENDBRANCH   1  11
BRANCH   6  12
ATOM     12  N   UNL     1      49.649   6.915  15.522  0.00  0.00    +0.000 N 
ATOM     13  H   UNL     1      50.378   6.270  15.815  0.00  0.00    +0.000 HD
BRANCH  12  14
ATOM     14  C   UNL     1      49.741   8.220  16.115  0.00  0.00    +0.000 C 
ATOM     15  C   UNL     1      49.977   8.127  17.638  0.00  0.00    +0.000 C 
ATOM     16  N   UNL     1      48.863   9.059  17.876  0.00  0.00    +0.000 NA
ATOM     17  C   UNL     1      48.404   8.892  16.482  0.00  0.00    +0.000 C 
ATOM     18  H   UNL     1      49.173  10.007  18.093  0.00  0.00    +0.000 HD
ENDBRANCH  12  14
ENDBRANCH   6  12
BRANCH   3  19
ATOM     19  O   UNL     1      45.247   4.003  13.583  0.00  0.00    +0.000 OA
BRANCH  19  20
ATOM     20  C   UNL     1      45.457   3.255  12.379  0.00  0.00    +0.000 C 
BRANCH  20  21
ATOM     21  C   UNL     1      44.353   3.512  11.318  0.00  0.00    +0.000 C 
ATOM     22  C   UNL     1      43.299   2.389  11.373  0.00  0.00    +0.000 C 
ATOM     23  C   UNL     1      43.644   4.834  11.688  0.00  0.00    +0.000 C 
BRANCH  21  24
ATOM     24  C   UNL     1      45.028   3.538   9.924  0.00  0.00    +0.000 A 
ATOM     25  C   UNL     1      45.246   4.733   9.219  0.00  0.00    +0.000 A 
ATOM     26  C   UNL     1      45.944   4.745   8.009  0.00  0.00    +0.000 A 
ATOM     27  C   UNL     1      46.452   3.561   7.480  0.00  0.00    +0.000 A 
ATOM     28  C   UNL     1      46.244   2.346   8.141  0.00  0.00    +0.000 A 
ATOM     29  C   UNL     1      45.514   2.342   9.340  0.00  0.00    +0.000 A 
BRANCH  28  30
ATOM     30  C   UNL     1      46.864   1.127   7.551  0.00  0.00    +0.000 C 
ATOM     31  N   UNL     1      47.797   1.265   6.559  0.00  0.00    +0.000 N 
ATOM     32  O   UNL     1      46.541  -0.004   7.918  0.00  0.00    +0.000 OA
ATOM     33  H   UNL     1      48.152   2.133   6.196  0.00  0.00    +0.000 HD
ATOM     34  H   UNL     1      48.165   0.406   6.169  0.00  0.00    +0.000 HD
ENDBRANCH  28  30
ENDBRANCH  21  24
ENDBRANCH  20  21
ENDBRANCH  19  20
ENDBRANCH   3  19
TORSDOF 9
ENDMDL
MODEL 3
REMARK VINA RESULT:    -6.752      1.699      2.006
REMARK INTER + INTRA:         -11.730
REMARK INTER:                 -10.593
REMARK INTRA:                  -1.137
REMARK UNBOUND:                -1.427
REMARK  Name = 
REMARK  14 active torsions:
REMARK  status: ('A' for Active; 'I' for Inactive)
REMARK    1  A    between atoms: C_1  and  O_2
REMARK    2  A    between atoms: O_2  and  C_3
REMARK    3  A    between atoms: C_5  and  O_6
REMARK    4  A    between atoms: O_6  and  C_7
REMARK    5  A    between atoms: C_7  and  C_8
REMARK    6  A    between atoms: C_8  and  C_9
REMARK    7  A    between atoms: C_8  and  C_10
REMARK    8  A    between atoms: C_8  and  C_11
REMARK    9  A    between atoms: C_15  and  C_16
REMARK   10  A    between atoms: C_21  and  C_22
REMARK   11  A    between atoms: C_22  and  C_23
REMARK   12  A    between atoms: C_22  and  C_24
REMARK   13  A    between atoms: C_25  and  N_26
REMARK   14  A    between atoms: N_26  and  C_27
REMARK                            x       y       z     vdW  Elec       q    Type
REMARK                         _______ _______ _______ _____ _____    ______ ____
ROOT
ATOM      1  C   UNL     1      47.579   4.644  15.803  0.00  0.00    +0.000 A 
ATOM      2  C   UNL     1      46.806   4.288  14.690  0.00  0.00    +0.000 A 
ATOM      3  C   UNL     1      46.777   5.069  13.540  0.00  0.00    +0.000 A 
ATOM      4  C   UNL     1      47.528   6.238  13.501  0.00  0.00    +0.000 A 
ATOM      5  C   UNL     1      48.281   6.669  14.616  0.00  0.00    +0.000 A 
ATOM      6  C   UNL     1      48.347   5.835  15.775  0.00  0.00    +0.000 A 
ENDROOT
BRANCH   5   7
ATOM      7  C   UNL     1      48.931   8.058  14.585  0.00  0.00    +0.000 C 
ATOM      8  C   UNL     1      50.357   8.021  14.033  0.00  0.00    +0.000 C 
ATOM      9  C   UNL     1      48.110   9.104  13.809  0.00  0.00    +0.000 C 
ENDBRANCH   5   7
BRANCH   1  11
ATOM     10  C   UNL     1      48.470   2.723  16.918  0.00  0.00    +0.000 C 
ATOM     11  O   UNL     1      47.613   3.864  16.938  0.00  0.00    +0.000 OA
ENDBRANCH   1  11
BRANCH   6  12
ATOM     12  N   UNL     1      49.116   6.288  16.877  0.00  0.00    +0.000 N 
ATOM     13  H   UNL     1      50.001   5.794  16.959  0.00  0.00    +0.000 HD
BRANCH  12  14
ATOM     14  C   UNL     1      48.689   6.939  18.084  0.00  0.00    +0.000 C 
ATOM     15  C   UNL     1      49.805   7.835  18.663  0.00  0.00    +0.000 C 
ATOM     16  N   UNL     1      49.637   7.207  19.983  0.00  0.00    +0.000 NA
ATOM     17  C   UNL     1      48.833   6.123  19.382  0.00  0.00    +0.000 C 
ATOM     18  H   UNL     1      49.113   7.787  20.639  0.00  0.00    +0.000 HD
ENDBRANCH  12  14
ENDBRANCH   6  12
BRANCH   3  19
ATOM     19  O   UNL     1      46.029   4.798  12.421  0.00  0.00    +0.000 OA
BRANCH  19  20
ATOM     20  C   UNL     1      45.196   3.634  12.503  0.00  0.00    +0.000 C 
BRANCH  20  21
ATOM     21  C   UNL     1      44.131   3.584  11.374  0.00  0.00    +0.000 C 
ATOM     22  C   UNL     1      43.289   2.298  11.502  0.00  0.00    +0.000 C 
ATOM     23  C   UNL     1      43.179   4.784  11.572  0.00  0.00    +0.000 C 
BRANCH  21  24
ATOM     24  C   UNL     1      44.875   3.598  10.016  0.00  0.00    +0.000 A 
ATOM     25  C   UNL     1      45.157   4.789   9.328  0.00  0.00    +0.000 A 
ATOM     26  C   UNL     1      45.914   4.788   8.154  0.00  0.00    +0.000 A 
ATOM     27  C   UNL     1      46.420   3.594   7.647  0.00  0.00    +0.000 A 
ATOM     28  C   UNL     1      46.151   2.383   8.291  0.00  0.00    +0.000 A 
ATOM     29  C   UNL     1      45.361   2.392   9.452  0.00  0.00    +0.000 A 
BRANCH  28  30
ATOM     30  C   UNL     1      46.771   1.151   7.728  0.00  0.00    +0.000 C 
ATOM     31  N   UNL     1      47.789   1.269   6.822  0.00  0.00    +0.000 N 
ATOM     32  O   UNL     1      46.374   0.027   8.041  0.00  0.00    +0.000 OA
ATOM     33  H   UNL     1      48.208   2.129   6.510  0.00  0.00    +0.000 HD
ATOM     34  H   UNL     1      48.155   0.403   6.444  0.00  0.00    +0.000 HD
ENDBRANCH  28  30
ENDBRANCH  21  24
ENDBRANCH  20  21
ENDBRANCH  19  20
ENDBRANCH   3  19
TORSDOF 9
ENDMDL
MODEL 4
REMARK VINA RESULT:    -6.561      2.192      3.944
REMARK INTER + INTRA:         -11.440
REMARK INTER:                 -10.030
REMARK INTRA:                  -1.410
REMARK UNBOUND:                -1.427
REMARK  Name = 
REMARK  14 active torsions:
REMARK  status: ('A' for Active; 'I' for Inactive)
REMARK    1  A    between atoms: C_1  and  O_2
REMARK    2  A    between atoms: O_2  and  C_3
REMARK    3  A    between atoms: C_5  and  O_6
REMARK    4  A    between atoms: O_6  and  C_7
REMARK    5  A    between atoms: C_7  and  C_8
REMARK    6  A    between atoms: C_8  and  C_9
REMARK    7  A    between atoms: C_8  and  C_10
REMARK    8  A    between atoms: C_8  and  C_11
REMARK    9  A    between atoms: C_15  and  C_16
REMARK   10  A    between atoms: C_21  and  C_22
REMARK   11  A    between atoms: C_22  and  C_23
REMARK   12  A    between atoms: C_22  and  C_24
REMARK   13  A    between atoms: C_25  and  N_26
REMARK   14  A    between atoms: N_26  and  C_27
REMARK                            x       y       z     vdW  Elec       q    Type
REMARK                         _______ _______ _______ _____ _____    ______ ____
ROOT
ATOM      1  C   UNL     1      48.480   6.676  15.096  0.00  0.00    +0.000 A 
ATOM      2  C   UNL     1      47.649   6.287  14.037  0.00  0.00    +0.000 A 
ATOM      3  C   UNL     1      46.976   5.071  14.045  0.00  0.00    +0.000 A 
ATOM      4  C   UNL     1      47.143   4.215  15.129  0.00  0.00    +0.000 A 
ATOM      5  C   UNL     1      48.011   4.538  16.195  0.00  0.00    +0.000 A 
ATOM      6  C   UNL     1      48.659   5.811  16.205  0.00  0.00    +0.000 A 
ENDROOT
BRANCH   5   7
ATOM      7  C   UNL     1      48.304   3.476  17.264  0.00  0.00    +0.000 C 
ATOM      8  C   UNL     1      47.034   2.787  17.763  0.00  0.00    +0.000 C 
ATOM      9  C   UNL     1      49.319   2.412  16.812  0.00  0.00    +0.000 C 
ENDBRANCH   5   7
BRANCH   1  11
ATOM     10  C   UNL     1      48.698   8.862  14.147  0.00  0.00    +0.000 C 
ATOM     11  O   UNL     1      49.139   7.887  15.090  0.00  0.00    +0.000 OA
ENDBRANCH   1  11
BRANCH   6  12
ATOM     12  N   UNL     1      49.520   6.112  17.292  0.00  0.00    +0.000 N 
ATOM     13  H   UNL     1      50.286   5.449  17.371  0.00  0.00    +0.000 HD
BRANCH  12  14
ATOM     14  C   UNL     1      49.251   6.853  18.492  0.00  0.00    +0.000 C 
ATOM     15  C   UNL     1      49.345   5.949  19.741  0.00  0.00    +0.000 C 
ATOM     16  N   UNL     1      48.030   6.429  20.197  0.00  0.00    +0.000 NA
ATOM     17  C   UNL     1      47.767   7.018  18.868  0.00  0.00    +0.000 C 
ATOM     18  H   UNL     1      48.093   7.120  20.945  0.00  0.00    +0.000 HD
ENDBRANCH  12  14
ENDBRANCH   6  12
BRANCH   3  19
ATOM     19  O   UNL     1      46.164   4.612  13.038  0.00  0.00    +0.000 OA
BRANCH  19  20
ATOM     20  C   UNL     1      44.851   5.186  12.993  0.00  0.00    +0.000 C 
BRANCH  20  21
ATOM     21  C   UNL     1      44.421   5.578  11.554  0.00  0.00    +0.000 C 
ATOM     22  C   UNL     1      42.942   6.014  11.546  0.00  0.00    +0.000 C 
ATOM     23  C   UNL     1      45.268   6.797  11.125  0.00  0.00    +0.000 C 
BRANCH  21  24
ATOM     24  C   UNL     1      44.613   4.338  10.645  0.00  0.00    +0.000 A 
ATOM     25  C   UNL     1      43.971   3.116  10.900  0.00  0.00    +0.000 A 
ATOM     26  C   UNL     1      44.078   2.041  10.014  0.00  0.00    +0.000 A 
ATOM     27  C   UNL     1      44.821   2.168   8.844  0.00  0.00    +0.000 A 
ATOM     28  C   UNL     1      45.489   3.362   8.558  0.00  0.00    +0.000 A 
ATOM     29  C   UNL     1      45.400   4.425   9.471  0.00  0.00    +0.000 A 
BRANCH  28  30
ATOM     30  C   UNL     1      46.218   3.449   7.261  0.00  0.00    +0.000 C 
ATOM     31  N   UNL     1      47.274   4.311   7.145  0.00  0.00    +0.000 N 
ATOM     32  O   UNL     1      45.879   2.781   6.283  0.00  0.00    +0.000 OA
ATOM     33  H   UNL     1      47.652   4.888   7.878  0.00  0.00    +0.000 HD
ATOM     34  H   UNL     1      47.716   4.357   6.234  0.00  0.00    +0.000 HD
ENDBRANCH  28  30
ENDBRANCH  21  24
ENDBRANCH  20  21
ENDBRANCH  19  20
ENDBRANCH   3  19
TORSDOF 9
ENDMDL
MODEL 5
REMARK VINA RESULT:    -6.394      2.959      5.262
REMARK INTER + INTRA:         -11.185
REMARK INTER:                  -9.745
REMARK INTRA:                  -1.440
REMARK UNBOUND:                -1.427
REMARK  Name = 
REMARK  14 active torsions:
REMARK  status: ('A' for Active; 'I' for Inactive)
REMARK    1  A    between atoms: C_1  and  O_2
REMARK    2  A    between atoms: O_2  and  C_3
REMARK    3  A    between atoms: C_5  and  O_6
REMARK    4  A    between atoms: O_6  and  C_7
REMARK    5  A    between atoms: C_7  and  C_8
REMARK    6  A    between atoms: C_8  and  C_9
REMARK    7  A    between atoms: C_8  and  C_10
REMARK    8  A    between atoms: C_8  and  C_11
REMARK    9  A    between atoms: C_15  and  C_16
REMARK   10  A    between atoms: C_21  and  C_22
REMARK   11  A    between atoms: C_22  and  C_23
REMARK   12  A    between atoms: C_22  and  C_24
REMARK   13  A    between atoms: C_25  and  N_26
REMARK   14  A    between atoms: N_26  and  C_27
REMARK                            x       y       z     vdW  Elec       q    Type
REMARK                         _______ _______ _______ _____ _____    ______ ____
ROOT
ATOM      1  C   UNL     1      49.702   7.410  17.645  0.00  0.00    +0.000 A 
ATOM      2  C   UNL     1      49.359   7.663  16.310  0.00  0.00    +0.000 A 
ATOM      3  C   UNL     1      48.733   6.704  15.522  0.00  0.00    +0.000 A 
ATOM      4  C   UNL     1      48.450   5.459  16.073  0.00  0.00    +0.000 A 
ATOM      5  C   UNL     1      48.824   5.137  17.396  0.00  0.00    +0.000 A 
ATOM      6  C   UNL     1      49.420   6.144  18.216  0.00  0.00    +0.000 A 
ENDROOT
BRANCH   5   7
ATOM      7  C   UNL     1      48.661   3.691  17.885  0.00  0.00    +0.000 C 
ATOM      8  C   UNL     1      47.297   3.104  17.522  0.00  0.00    +0.000 C 
ATOM      9  C   UNL     1      49.772   2.747  17.393  0.00  0.00    +0.000 C 
ENDBRANCH   5   7
BRANCH   1  11
ATOM     10  C   UNL     1      49.491   9.411  18.941  0.00  0.00    +0.000 C 
ATOM     11  O   UNL     1      50.315   8.366  18.426  0.00  0.00    +0.000 OA
ENDBRANCH   1  11
BRANCH   6  12
ATOM     12  N   UNL     1      49.778   5.796  19.544  0.00  0.00    +0.000 N 
ATOM     13  H   UNL     1      50.400   4.992  19.577  0.00  0.00    +0.000 HD
BRANCH  12  14
ATOM     14  C   UNL     1      49.090   6.063  20.776  0.00  0.00    +0.000 C 
ATOM     15  C   UNL     1      48.532   4.764  21.398  0.00  0.00    +0.000 C 
ATOM     16  N   UNL     1      47.209   5.393  21.543  0.00  0.00    +0.000 NA
ATOM     17  C   UNL     1      47.617   6.496  20.649  0.00  0.00    +0.000 C 
ATOM     18  H   UNL     1      47.009   5.693  22.497  0.00  0.00    +0.000 HD
ENDBRANCH  12  14
ENDBRANCH   6  12
BRANCH   3  19
ATOM     19  O   UNL     1      48.387   6.869  14.203  0.00  0.00    +0.000 OA
BRANCH  19  20
ATOM     20  C   UNL     1      47.295   6.060  13.746  0.00  0.00    +0.000 C 
BRANCH  20  21
ATOM     21  C   UNL     1      46.498   6.732  12.595  0.00  0.00    +0.000 C 
ATOM     22  C   UNL     1      45.962   8.102  13.057  0.00  0.00    +0.000 C 
ATOM     23  C   UNL     1      47.479   6.986  11.429  0.00  0.00    +0.000 C 
BRANCH  21  24
ATOM     24  C   UNL     1      45.318   5.799  12.224  0.00  0.00    +0.000 A 
ATOM     25  C   UNL     1      44.108   5.802  12.935  0.00  0.00    +0.000 A 
ATOM     26  C   UNL     1      43.022   5.025  12.524  0.00  0.00    +0.000 A 
ATOM     27  C   UNL     1      43.117   4.235  11.381  0.00  0.00    +0.000 A 
ATOM     28  C   UNL     1      44.309   4.191  10.651  0.00  0.00    +0.000 A 
ATOM     29  C   UNL     1      45.404   4.951  11.092  0.00  0.00    +0.000 A 
BRANCH  28  30
ATOM     30  C   UNL     1      44.324   3.371   9.408  0.00  0.00    +0.000 C 
ATOM     31  N   UNL     1      44.227   3.995   8.194  0.00  0.00    +0.000 N 
ATOM     32  O   UNL     1      44.399   2.141   9.445  0.00  0.00    +0.000 OA
ATOM     33  H   UNL     1      44.183   4.989   8.041  0.00  0.00    +0.000 HD
ATOM     34  H   UNL     1      44.209   3.392   7.381  0.00  0.00    +0.000 HD
ENDBRANCH  28  30
ENDBRANCH  21  24
ENDBRANCH  20  21
ENDBRANCH  19  20
ENDBRANCH   3  19
TORSDOF 9
ENDMDL
MODEL 6
REMARK VINA RESULT:    -6.352      3.395      8.209
REMARK INTER + INTRA:         -11.121
REMARK INTER:                  -8.940
REMARK INTRA:                  -2.182
REMARK UNBOUND:                -1.427
REMARK  Name = 
REMARK  14 active torsions:
REMARK  status: ('A' for Active; 'I' for Inactive)
REMARK    1  A    between atoms: C_1  and  O_2
REMARK    2  A    between atoms: O_2  and  C_3
REMARK    3  A    between atoms: C_5  and  O_6
REMARK    4  A    between atoms: O_6  and  C_7
REMARK    5  A    between atoms: C_7  and  C_8
REMARK    6  A    between atoms: C_8  and  C_9
REMARK    7  A    between atoms: C_8  and  C_10
REMARK    8  A    between atoms: C_8  and  C_11
REMARK    9  A    between atoms: C_15  and  C_16
REMARK   10  A    between atoms: C_21  and  C_22
REMARK   11  A    between atoms: C_22  and  C_23
REMARK   12  A    between atoms: C_22  and  C_24
REMARK   13  A    between atoms: C_25  and  N_26
REMARK   14  A    between atoms: N_26  and  C_27
REMARK                            x       y       z     vdW  Elec       q    Type
REMARK                         _______ _______ _______ _____ _____    ______ ____
ROOT
ATOM      1  C   UNL     1      45.553   8.041  12.099  0.00  0.00    +0.000 A 
ATOM      2  C   UNL     1      46.836   8.593  12.203  0.00  0.00    +0.000 A 
ATOM      3  C   UNL     1      47.893   7.885  12.763  0.00  0.00    +0.000 A 
ATOM      4  C   UNL     1      47.665   6.599  13.241  0.00  0.00    +0.000 A 
ATOM      5  C   UNL     1      46.378   6.019  13.208  0.00  0.00    +0.000 A 
ATOM      6  C   UNL     1      45.308   6.731  12.584  0.00  0.00    +0.000 A 
ENDROOT
BRANCH   5   7
ATOM      7  C   UNL     1      46.146   4.680  13.922  0.00  0.00    +0.000 C 
ATOM      8  C   UNL     1      46.365   3.482  12.997  0.00  0.00    +0.000 C 
ATOM      9  C   UNL     1      46.994   4.506  15.194  0.00  0.00    +0.000 C 
ENDBRANCH   5   7
BRANCH   1  11
ATOM     10  C   UNL     1      44.507  10.158  11.707  0.00  0.00    +0.000 C 
ATOM     11  O   UNL     1      44.509   8.741  11.534  0.00  0.00    +0.000 OA
ENDBRANCH   1  11
BRANCH   6  12
ATOM     12  N   UNL     1      44.027   6.122  12.558  0.00  0.00    +0.000 N 
ATOM     13  H   UNL     1      43.728   5.815  13.479  0.00  0.00    +0.000 HD
BRANCH  12  14
ATOM     14  C   UNL     1      43.342   5.483  11.469  0.00  0.00    +0.000 C 
ATOM     15  C   UNL     1      43.001   4.015  11.806  0.00  0.00    +0.000 C 
ATOM     16  N   UNL     1      43.597   3.576  10.534  0.00  0.00    +0.000 NA
ATOM     17  C   UNL     1      44.232   4.898  10.357  0.00  0.00    +0.000 C 
ATOM     18  H   UNL     1      42.902   3.358   9.819  0.00  0.00    +0.000 HD
ENDBRANCH  12  14
ENDBRANCH   6  12
BRANCH   3  19
ATOM     19  O   UNL     1      49.170   8.365  12.920  0.00  0.00    +0.000 OA
BRANCH  19  20
ATOM     20  C   UNL     1      50.017   7.595  13.783  0.00  0.00    +0.000 C 
BRANCH  20  21
ATOM     21  C   UNL     1      50.395   8.357  15.082  0.00  0.00    +0.000 C 
ATOM     22  C   UNL     1      51.928   8.450  15.211  0.00  0.00    +0.000 C 
ATOM     23  C   UNL     1      49.851   9.798  14.957  0.00  0.00    +0.000 C 
BRANCH  21  24
ATOM     24  C   UNL     1      49.808   7.573  16.282  0.00  0.00    +0.000 A 
ATOM     25  C   UNL     1      48.851   8.130  17.145  0.00  0.00    +0.000 A 
ATOM     26  C   UNL     1      48.262   7.374  18.161  0.00  0.00    +0.000 A 
ATOM     27  C   UNL     1      48.609   6.036  18.331  0.00  0.00    +0.000 A 
ATOM     28  C   UNL     1      49.570   5.446  17.505  0.00  0.00    +0.000 A 
ATOM     29  C   UNL     1      50.178   6.224  16.507  0.00  0.00    +0.000 A 
BRANCH  28  30
ATOM     30  C   UNL     1      49.852   3.996  17.703  0.00  0.00    +0.000 C 
ATOM     31  N   UNL     1      49.126   3.295  18.627  0.00  0.00    +0.000 N 
ATOM     32  O   UNL     1      50.738   3.418  17.072  0.00  0.00    +0.000 OA
ATOM     33  H   UNL     1      48.368   3.654  19.182  0.00  0.00    +0.000 HD
ATOM     34  H   UNL     1      49.377   2.321  18.747  0.00  0.00    +0.000 HD
ENDBRANCH  28  30
ENDBRANCH  21  24
ENDBRANCH  20  21
ENDBRANCH  19  20
ENDBRANCH   3  19
TORSDOF 9
ENDMDL
MODEL 7
REMARK VINA RESULT:    -6.332      2.115      3.206
REMARK INTER + INTRA:         -11.090
REMARK INTER:                  -9.666
REMARK INTRA:                  -1.423
REMARK UNBOUND:                -1.427
REMARK  Name = 
REMARK  14 active torsions:
REMARK  status: ('A' for Active; 'I' for Inactive)
REMARK    1  A    between atoms: C_1  and  O_2
REMARK    2  A    between atoms: O_2  and  C_3
REMARK    3  A    between atoms: C_5  and  O_6
REMARK    4  A    between atoms: O_6  and  C_7
REMARK    5  A    between atoms: C_7  and  C_8
REMARK    6  A    between atoms: C_8  and  C_9
REMARK    7  A    between atoms: C_8  and  C_10
REMARK    8  A    between atoms: C_8  and  C_11
REMARK    9  A    between atoms: C_15  and  C_16
REMARK   10  A    between atoms: C_21  and  C_22
REMARK   11  A    between atoms: C_22  and  C_23
REMARK   12  A    between atoms: C_22  and  C_24
REMARK   13  A    between atoms: C_25  and  N_26
REMARK   14  A    between atoms: N_26  and  C_27
REMARK                            x       y       z     vdW  Elec       q    Type
REMARK                         _______ _______ _______ _____ _____    ______ ____
ROOT
ATOM      1  C   UNL     1      47.659   4.912  16.423  0.00  0.00    +0.000 A 
ATOM      2  C   UNL     1      46.972   4.641  15.232  0.00  0.00    +0.000 A 
ATOM      3  C   UNL     1      47.203   5.373  14.073  0.00  0.00    +0.000 A 
ATOM      4  C   UNL     1      48.132   6.408  14.103  0.00  0.00    +0.000 A 
ATOM      5  C   UNL     1      48.810   6.755  15.292  0.00  0.00    +0.000 A 
ATOM      6  C   UNL     1      48.608   5.965  16.466  0.00  0.00    +0.000 A 
ENDROOT
BRANCH   5   7
ATOM      7  C   UNL     1      49.675   8.022  15.313  0.00  0.00    +0.000 C 
ATOM      8  C   UNL     1      50.463   8.210  14.016  0.00  0.00    +0.000 C 
ATOM      9  C   UNL     1      48.881   9.304  15.619  0.00  0.00    +0.000 C 
ENDBRANCH   5   7
BRANCH   1  11
ATOM     10  C   UNL     1      47.708   2.779  17.508  0.00  0.00    +0.000 C 
ATOM     11  O   UNL     1      47.436   4.179  17.569  0.00  0.00    +0.000 OA
ENDBRANCH   1  11
BRANCH   6  12
ATOM     12  N   UNL     1      49.307   6.331  17.644  0.00  0.00    +0.000 N 
ATOM     13  H   UNL     1      49.105   7.285  17.931  0.00  0.00    +0.000 HD
BRANCH  12  14
ATOM     14  C   UNL     1      50.523   5.794  18.189  0.00  0.00    +0.000 C 
ATOM     15  C   UNL     1      50.976   4.537  17.414  0.00  0.00    +0.000 C 
ATOM     16  N   UNL     1      51.115   3.797  18.679  0.00  0.00    +0.000 NA
ATOM     17  C   UNL     1      50.364   4.849  19.395  0.00  0.00    +0.000 C 
ATOM     18  H   UNL     1      52.084   3.706  18.986  0.00  0.00    +0.000 HD
ENDBRANCH  12  14
ENDBRANCH   6  12
BRANCH   3  19
ATOM     19  O   UNL     1      46.555   5.182  12.878  0.00  0.00    +0.000 OA
BRANCH  19  20
ATOM     20  C   UNL     1      45.129   5.056  12.962  0.00  0.00    +0.000 C 
BRANCH  20  21
ATOM     21  C   UNL     1      44.420   5.409  11.627  0.00  0.00    +0.000 C 
ATOM     22  C   UNL     1      42.917   5.643  11.875  0.00  0.00    +0.000 C 
ATOM     23  C   UNL     1      45.019   6.738  11.114  0.00  0.00    +0.000 C 
BRANCH  21  24
ATOM     24  C   UNL     1      44.618   4.222  10.652  0.00  0.00    +0.000 A 
ATOM     25  C   UNL     1      43.957   2.995  10.823  0.00  0.00    +0.000 A 
ATOM     26  C   UNL     1      44.072   1.971   9.880  0.00  0.00    +0.000 A 
ATOM     27  C   UNL     1      44.842   2.155   8.735  0.00  0.00    +0.000 A 
ATOM     28  C   UNL     1      45.529   3.355   8.532  0.00  0.00    +0.000 A 
ATOM     29  C   UNL     1      45.432   4.366   9.502  0.00  0.00    +0.000 A 
BRANCH  28  30
ATOM     30  C   UNL     1      46.287   3.508   7.259  0.00  0.00    +0.000 C 
ATOM     31  N   UNL     1      47.334   4.387   7.205  0.00  0.00    +0.000 N 
ATOM     32  O   UNL     1      45.981   2.878   6.245  0.00  0.00    +0.000 OA
ATOM     33  H   UNL     1      47.686   4.937   7.971  0.00  0.00    +0.000 HD
ATOM     34  H   UNL     1      47.796   4.479   6.308  0.00  0.00    +0.000 HD
ENDBRANCH  28  30
ENDBRANCH  21  24
ENDBRANCH  20  21
ENDBRANCH  19  20
ENDBRANCH   3  19
TORSDOF 9
ENDMDL
MODEL 8
REMARK VINA RESULT:    -6.187      3.636      7.496
REMARK INTER + INTRA:         -10.869
REMARK INTER:                  -9.105
REMARK INTRA:                  -1.764
REMARK UNBOUND:                -1.427
REMARK  Name = 
REMARK  14 active torsions:
REMARK  status: ('A' for Active; 'I' for Inactive)
REMARK    1  A    between atoms: C_1  and  O_2
REMARK    2  A    between atoms: O_2  and  C_3
REMARK    3  A    between atoms: C_5  and  O_6
REMARK    4  A    between atoms: O_6  and  C_7
REMARK    5  A    between atoms: C_7  and  C_8
REMARK    6  A    between atoms: C_8  and  C_9
REMARK    7  A    between atoms: C_8  and  C_10
REMARK    8  A    between atoms: C_8  and  C_11
REMARK    9  A    between atoms: C_15  and  C_16
REMARK   10  A    between atoms: C_21  and  C_22
REMARK   11  A    between atoms: C_22  and  C_23
REMARK   12  A    between atoms: C_22  and  C_24
REMARK   13  A    between atoms: C_25  and  N_26
REMARK   14  A    between atoms: N_26  and  C_27
REMARK                            x       y       z     vdW  Elec       q    Type
REMARK                         _______ _______ _______ _____ _____    ______ ____
ROOT
ATOM      1  C   UNL     1      47.319   5.742  13.328  0.00  0.00    +0.000 A 
ATOM      2  C   UNL     1      48.254   6.132  14.296  0.00  0.00    +0.000 A 
ATOM      3  C   UNL     1      48.472   7.470  14.604  0.00  0.00    +0.000 A 
ATOM      4  C   UNL     1      47.751   8.445  13.923  0.00  0.00    +0.000 A 
ATOM      5  C   UNL     1      46.836   8.106  12.901  0.00  0.00    +0.000 A 
ATOM      6  C   UNL     1      46.578   6.727  12.627  0.00  0.00    +0.000 A 
ENDROOT
BRANCH   5   7
ATOM      7  C   UNL     1      46.215   9.225  12.056  0.00  0.00    +0.000 C 
ATOM      8  C   UNL     1      44.782   9.547  12.479  0.00  0.00    +0.000 C 
ATOM      9  C   UNL     1      47.047  10.520  12.043  0.00  0.00    +0.000 C 
ENDBRANCH   5   7
BRANCH   1  11
ATOM     10  C   UNL     1      46.952   3.518  14.133  0.00  0.00    +0.000 C 
ATOM     11  O   UNL     1      47.097   4.415  13.032  0.00  0.00    +0.000 OA
ENDBRANCH   1  11
BRANCH   6  12
ATOM     12  N   UNL     1      45.650   6.415  11.601  0.00  0.00    +0.000 N 
ATOM     13  H   UNL     1      45.584   7.151  10.904  0.00  0.00    +0.000 HD
BRANCH  12  14
ATOM     14  C   UNL     1      44.525   5.522  11.628  0.00  0.00    +0.000 C 
ATOM     15  C   UNL     1      43.261   6.198  11.055  0.00  0.00    +0.000 C 
ATOM     16  N   UNL     1      42.494   5.792  12.244  0.00  0.00    +0.000 NA
ATOM     17  C   UNL     1      43.744   5.455  12.954  0.00  0.00    +0.000 C 
ATOM     18  H   UNL     1      41.890   4.987  12.076  0.00  0.00    +0.000 HD
ENDBRANCH  12  14
ENDBRANCH   6  12
BRANCH   3  19
ATOM     19  O   UNL     1      49.385   7.930  15.521  0.00  0.00    +0.000 OA
BRANCH  19  20
ATOM     20  C   UNL     1      48.873   8.152  16.842  0.00  0.00    +0.000 C 
BRANCH  20  21
ATOM     21  C   UNL     1      49.594   7.289  17.912  0.00  0.00    +0.000 C 
ATOM     22  C   UNL     1      51.104   7.228  17.609  0.00  0.00    +0.000 C 
ATOM     23  C   UNL     1      49.422   7.991  19.278  0.00  0.00    +0.000 C 
BRANCH  21  24
ATOM     24  C   UNL     1      48.986   5.864  17.865  0.00  0.00    +0.000 A 
ATOM     25  C   UNL     1      47.609   5.633  18.004  0.00  0.00    +0.000 A 
ATOM     26  C   UNL     1      47.069   4.352  17.861  0.00  0.00    +0.000 A 
ATOM     27  C   UNL     1      47.896   3.272  17.561  0.00  0.00    +0.000 A 
ATOM     28  C   UNL     1      49.276   3.455  17.429  0.00  0.00    +0.000 A 
ATOM     29  C   UNL     1      49.810   4.742  17.607  0.00  0.00    +0.000 A 
BRANCH  28  30
ATOM     30  C   UNL     1      50.094   2.270  17.050  0.00  0.00    +0.000 C 
ATOM     31  N   UNL     1      51.166   1.921  17.827  0.00  0.00    +0.000 N 
ATOM     32  O   UNL     1      49.844   1.607  16.042  0.00  0.00    +0.000 OA
ATOM     33  H   UNL     1      51.451   2.373  18.679  0.00  0.00    +0.000 HD
ATOM     34  H   UNL     1      51.709   1.128  17.509  0.00  0.00    +0.000 HD
ENDBRANCH  28  30
ENDBRANCH  21  24
ENDBRANCH  20  21
ENDBRANCH  19  20
ENDBRANCH   3  19
TORSDOF 9
ENDMDL
MODEL 9
REMARK VINA RESULT:    -5.995      3.846      6.199
REMARK INTER + INTRA:         -10.575
REMARK INTER:                  -8.732
REMARK INTRA:                  -1.844
REMARK UNBOUND:                -1.427
REMARK  Name = 
REMARK  14 active torsions:
REMARK  status: ('A' for Active; 'I' for Inactive)
REMARK    1  A    between atoms: C_1  and  O_2
REMARK    2  A    between atoms: O_2  and  C_3
REMARK    3  A    between atoms: C_5  and  O_6
REMARK    4  A    between atoms: O_6  and  C_7
REMARK    5  A    between atoms: C_7  and  C_8
REMARK    6  A    between atoms: C_8  and  C_9
REMARK    7  A    between atoms: C_8  and  C_10
REMARK    8  A    between atoms: C_8  and  C_11
REMARK    9  A    between atoms: C_15  and  C_16
REMARK   10  A    between atoms: C_21  and  C_22
REMARK   11  A    between atoms: C_22  and  C_23
REMARK   12  A    between atoms: C_22  and  C_24
REMARK   13  A    between atoms: C_25  and  N_26
REMARK   14  A    between atoms: N_26  and  C_27
REMARK                            x       y       z     vdW  Elec       q    Type
REMARK                         _______ _______ _______ _____ _____    ______ ____
ROOT
ATOM      1  C   UNL     1      48.173   8.173  18.391  0.00  0.00    +0.000 A 
ATOM      2  C   UNL     1      48.567   8.642  17.131  0.00  0.00    +0.000 A 
ATOM      3  C   UNL     1      48.829   7.773  16.077  0.00  0.00    +0.000 A 
ATOM      4  C   UNL     1      48.706   6.404  16.287  0.00  0.00    +0.000 A 
ATOM      5  C   UNL     1      48.364   5.879  17.552  0.00  0.00    +0.000 A 
ATOM      6  C   UNL     1      48.046   6.779  18.616  0.00  0.00    +0.000 A 
ENDROOT
BRANCH   5   7
ATOM      7  C   UNL     1      48.433   4.363  17.774  0.00  0.00    +0.000 C 
ATOM      8  C   UNL     1      47.503   3.595  16.833  0.00  0.00    +0.000 C 
ATOM      9  C   UNL     1      49.856   3.789  17.665  0.00  0.00    +0.000 C 
ENDBRANCH   5   7
BRANCH   1  11
ATOM     10  C   UNL     1      48.165  10.422  19.209  0.00  0.00    +0.000 C 
ATOM     11  O   UNL     1      47.904   9.037  19.431  0.00  0.00    +0.000 OA
ENDBRANCH   1  11
BRANCH   6  12
ATOM     12  N   UNL     1      47.698   6.226  19.875  0.00  0.00    +0.000 N 
ATOM     13  H   UNL     1      46.707   6.321  20.077  0.00  0.00    +0.000 HD
BRANCH  12  14
ATOM     14  C   UNL     1      48.519   5.998  21.031  0.00  0.00    +0.000 C 
ATOM     15  C   UNL     1      50.020   6.049  20.671  0.00  0.00    +0.000 C 
ATOM     16  N   UNL     1      50.236   4.762  21.351  0.00  0.00    +0.000 NA
ATOM     17  C   UNL     1      48.778   4.525  21.399  0.00  0.00    +0.000 C 
ATOM     18  H   UNL     1      50.664   4.861  22.271  0.00  0.00    +0.000 HD
ENDBRANCH  12  14
ENDBRANCH   6  12
BRANCH   3  19
ATOM     19  O   UNL     1      49.240   8.154  14.824  0.00  0.00    +0.000 OA
BRANCH  19  20
ATOM     20  C   UNL     1      49.062   7.175  13.792  0.00  0.00    +0.000 C 
BRANCH  20  21
ATOM     21  C   UNL     1      47.982   7.591  12.757  0.00  0.00    +0.000 C 
ATOM     22  C   UNL     1      47.361   8.944  13.159  0.00  0.00    +0.000 C 
ATOM     23  C   UNL     1      48.686   7.789  11.396  0.00  0.00    +0.000 C 
BRANCH  21  24
ATOM     24  C   UNL     1      46.891   6.492  12.738  0.00  0.00    +0.000 A 
ATOM     25  C   UNL     1      47.027   5.289  13.449  0.00  0.00    +0.000 A 
ATOM     26  C   UNL     1      45.990   4.354  13.499  0.00  0.00    +0.000 A 
ATOM     27  C   UNL     1      44.785   4.607  12.847  0.00  0.00    +0.000 A 
ATOM     28  C   UNL     1      44.613   5.785  12.115  0.00  0.00    +0.000 A 
ATOM     29  C   UNL     1      45.673   6.703  12.046  0.00  0.00    +0.000 A 
BRANCH  28  30
ATOM     30  C   UNL     1      43.280   6.019  11.492  0.00  0.00    +0.000 C 
ATOM     31  N   UNL     1      42.932   7.287  11.113  0.00  0.00    +0.000 N 
ATOM     32  O   UNL     1      42.473   5.102  11.328  0.00  0.00    +0.000 OA
ATOM     33  H   UNL     1      43.514   8.105  11.178  0.00  0.00    +0.000 HD
ATOM     34  H   UNL     1      42.004   7.399  10.724  0.00  0.00    +0.000 HD
ENDBRANCH  28  30
ENDBRANCH  21  24
ENDBRANCH  20  21
ENDBRANCH  19  20
ENDBRANCH   3  19
TORSDOF 9
ENDMDL
