MODEL 1
REMARK VINA RESULT:    -7.919      0.000      0.000
REMARK INTER + INTRA:         -11.488
REMARK INTER:                 -10.234
REMARK INTRA:                  -1.254
REMARK UNBOUND:                -1.254
REMARK  Name = 
REMARK  7 active torsions:
REMARK  status: ('A' for Active; 'I' for Inactive)
REMARK    1  A    between atoms: C_1  and  N_2
REMARK    2  A    between atoms: N_2  and  C_3
REMARK    3  A    between atoms: C_3  and  C_4
REMARK    4  A    between atoms: C_7  and  C_8
REMARK    5  A    between atoms: C_8  and  N_9
REMARK    6  A    between atoms: N_9  and  C_10
REMARK    7  A    between atoms: C_19  and  C_21
REMARK                            x       y       z     vdW  Elec       q    Type
REMARK                         _______ _______ _______ _____ _____    ______ ____
ROOT
ATOM      1  C   UNL     1      47.207   6.150  12.354  0.00  0.00    +0.000 C 
ENDROOT
BRANCH   1   2
ATOM      2  C   UNL     1      47.514   5.923  13.813  0.00  0.00    +0.000 A 
ATOM      3  C   UNL     1      48.358   6.809  14.502  0.00  0.00    +0.000 A 
ATOM      4  C   UNL     1      48.774   6.519  15.801  0.00  0.00    +0.000 A 
ATOM      5  C   UNL     1      48.367   5.331  16.423  0.00  0.00    +0.000 A 
ATOM      6  C   UNL     1      47.439   4.504  15.775  0.00  0.00    +0.000 A 
ATOM      7  C   UNL     1      47.020   4.795  14.476  0.00  0.00    +0.000 A 
BRANCH   5   8
ATOM      8  C   UNL     1      49.040   4.873  17.700  0.00  0.00    +0.000 C 
BRANCH   8   9
ATOM      9  N   UNL     1      50.502   4.878  17.703  0.00  0.00    +0.000 N 
ATOM     10  C   UNL     1      51.195   5.912  18.468  0.00  0.00    +0.000 C 
ATOM     11  C   UNL     1      51.106   3.604  17.800  0.00  0.00    +0.000 A 
ATOM     12  C   UNL     1      50.553   2.484  17.163  0.00  0.00    +0.000 A 
ATOM     13  C   UNL     1      51.226   1.261  17.154  0.00  0.00    +0.000 A 
ATOM     14  C   UNL     1      52.448   1.159  17.791  0.00  0.00    +0.000 A 
ATOM     15  C   UNL     1      52.925   2.282  18.434  0.00  0.00    +0.000 A 
ATOM     16  N   UNL     1      52.286   3.477  18.450  0.00  0.00    +0.000 NA
ENDBRANCH   8   9
ENDBRANCH   5   8
ENDBRANCH   1   2
BRANCH   1  18
ATOM     17  C   UNL     1      46.300   8.525  12.134  0.00  0.00    +0.000 C 
ATOM     18  N   UNL     1      46.115   7.080  12.024  0.00  0.00    +0.000 N 
ATOM     19  C   UNL     1      44.821   6.678  11.639  0.00  0.00    +0.000 C 
ATOM     20  O   UNL     1      43.946   7.511  11.404  0.00  0.00    +0.000 OA
BRANCH  19  21
ATOM     21  C   UNL     1      44.490   5.248  11.544  0.00  0.00    +0.000 A 
ATOM     22  C   UNL     1      43.730   4.546  12.466  0.00  0.00    +0.000 A 
ATOM     23  S   UNL     1      43.458   2.916  12.036  0.00  0.00    +0.000 S 
ATOM     24  C   UNL     1      44.209   3.138  10.525  0.00  0.00    +0.000 A 
ATOM     25  N   UNL     1      44.217   2.145   9.598  0.00  0.00    +0.000 NA
ATOM     26  C   UNL     1      44.755   2.480   8.472  0.00  0.00    +0.000 A 
ATOM     27  N   UNL     1      45.311   3.703   8.200  0.00  0.00    +0.000 N 
ATOM     28  C   UNL     1      45.440   4.689   9.153  0.00  0.00    +0.000 A 
ATOM     29  O   UNL     1      46.160   5.658   8.951  0.00  0.00    +0.000 OA
ATOM     30  C   UNL     1      44.745   4.405  10.396  0.00  0.00    +0.000 A 
ATOM     31  H   UNL     1      45.777   3.877   7.324  0.00  0.00    +0.000 HD
ENDBRANCH  19  21
ENDBRANCH   1  18
TORSDOF 5
ENDMDL
MODEL 2
REMARK VINA RESULT:    -7.378      1.669      2.196
REMARK INTER + INTRA:         -10.789
REMARK INTER:                  -9.541
REMARK INTRA:                  -1.248
REMARK UNBOUND:                -1.254
REMARK  Name = 
REMARK  7 active torsions:
REMARK  status: ('A' for Active; 'I' for Inactive)
REMARK    1  A    between atoms: C_1  and  N_2
REMARK    2  A    between atoms: N_2  and  C_3
REMARK    3  A    between atoms: C_3  and  C_4
REMARK    4  A    between atoms: C_7  and  C_8
REMARK    5  A    between atoms: C_8  and  N_9
REMARK    6  A    between atoms: N_9  and  C_10
REMARK    7  A    between atoms: C_19  and  C_21
REMARK                            x       y       z     vdW  Elec       q    Type
REMARK                         _______ _______ _______ _____ _____    ______ ____
ROOT
ATOM      1  C   UNL     1      47.362   6.122  12.445  0.00  0.00    +0.000 C 
ENDROOT
BRANCH   1   2
ATOM      2  C   UNL     1      47.557   5.817  13.908  0.00  0.00    +0.000 A 
ATOM      3  C   UNL     1      48.397   6.626  14.691  0.00  0.00    +0.000 A 
ATOM      4  C   UNL     1      48.708   6.259  16.000  0.00  0.00    +0.000 A 
ATOM      5  C   UNL     1      48.200   5.070  16.538  0.00  0.00    +0.000 A 
ATOM      6  C   UNL     1      47.277   4.323  15.794  0.00  0.00    +0.000 A 
ATOM      7  C   UNL     1      46.963   4.691  14.485  0.00  0.00    +0.000 A 
BRANCH   5   8
ATOM      8  C   UNL     1      48.760   4.522  17.835  0.00  0.00    +0.000 C 
BRANCH   8   9
ATOM      9  N   UNL     1      48.752   5.429  18.981  0.00  0.00    +0.000 N 
ATOM     10  C   UNL     1      47.466   5.821  19.552  0.00  0.00    +0.000 C 
ATOM     11  C   UNL     1      49.747   5.176  19.953  0.00  0.00    +0.000 A 
ATOM     12  C   UNL     1      51.031   4.751  19.587  0.00  0.00    +0.000 A 
ATOM     13  C   UNL     1      52.045   4.631  20.540  0.00  0.00    +0.000 A 
ATOM     14  C   UNL     1      51.767   4.932  21.860  0.00  0.00    +0.000 A 
ATOM     15  C   UNL     1      50.477   5.309  22.168  0.00  0.00    +0.000 A 
ATOM     16  N   UNL     1      49.483   5.431  21.255  0.00  0.00    +0.000 NA
ENDBRANCH   8   9
ENDBRANCH   5   8
ENDBRANCH   1   2
BRANCH   1  18
ATOM     17  C   UNL     1      46.550   8.525  12.169  0.00  0.00    +0.000 C 
ATOM     18  N   UNL     1      46.311   7.086  12.083  0.00  0.00    +0.000 N 
ATOM     19  C   UNL     1      45.007   6.726  11.690  0.00  0.00    +0.000 C 
ATOM     20  O   UNL     1      44.168   7.587  11.428  0.00  0.00    +0.000 OA
BRANCH  19  21
ATOM     21  C   UNL     1      44.624   5.309  11.617  0.00  0.00    +0.000 A 
ATOM     22  C   UNL     1      43.889   4.634  12.579  0.00  0.00    +0.000 A 
ATOM     23  S   UNL     1      43.539   3.014  12.169  0.00  0.00    +0.000 S 
ATOM     24  C   UNL     1      44.217   3.207  10.621  0.00  0.00    +0.000 A 
ATOM     25  N   UNL     1      44.144   2.213   9.698  0.00  0.00    +0.000 NA
ATOM     26  C   UNL     1      44.634   2.527   8.545  0.00  0.00    +0.000 A 
ATOM     27  N   UNL     1      45.216   3.730   8.240  0.00  0.00    +0.000 N 
ATOM     28  C   UNL     1      45.428   4.713   9.181  0.00  0.00    +0.000 A 
ATOM     29  O   UNL     1      46.169   5.657   8.939  0.00  0.00    +0.000 OA
ATOM     30  C   UNL     1      44.790   4.455  10.460  0.00  0.00    +0.000 A 
ATOM     31  H   UNL     1      45.641   3.886   7.340  0.00  0.00    +0.000 HD
ENDBRANCH  19  21
ENDBRANCH   1  18
TORSDOF 5
ENDMDL
MODEL 3
REMARK VINA RESULT:    -7.065      1.875      3.225
REMARK INTER + INTRA:         -10.385
REMARK INTER:                  -9.149
REMARK INTRA:                  -1.236
REMARK UNBOUND:                -1.254
REMARK  Name = 
REMARK  7 active torsions:
REMARK  status: ('A' for Active; 'I' for Inactive)
REMARK    1  A    between atoms: C_1  and  N_2
REMARK    2  A    between atoms: N_2  and  C_3
REMARK    3  A    between atoms: C_3  and  C_4
REMARK    4  A    between atoms: C_7  and  C_8
REMARK    5  A    between atoms: C_8  and  N_9
REMARK    6  A    between atoms: N_9  and  C_10
REMARK    7  A    between atoms: C_19  and  C_21
REMARK                            x       y       z     vdW  Elec       q    Type
REMARK                         _______ _______ _______ _____ _____    ______ ____
ROOT
ATOM      1  C   UNL     1      47.479   6.541  12.346  0.00  0.00    +0.000 C 
ENDROOT
BRANCH   1   2
ATOM      2  C   UNL     1      47.620   5.822  13.664  0.00  0.00    +0.000 A 
ATOM      3  C   UNL     1      46.985   4.585  13.864  0.00  0.00    +0.000 A 
ATOM      4  C   UNL     1      46.978   3.994  15.127  0.00  0.00    +0.000 A 
ATOM      5  C   UNL     1      47.589   4.638  16.211  0.00  0.00    +0.000 A 
ATOM      6  C   UNL     1      48.314   5.816  15.985  0.00  0.00    +0.000 A 
ATOM      7  C   UNL     1      48.324   6.407  14.721  0.00  0.00    +0.000 A 
BRANCH   5   8
ATOM      8  C   UNL     1      47.335   4.155  17.623  0.00  0.00    +0.000 C 
BRANCH   8   9
ATOM      9  N   UNL     1      48.505   3.715  18.381  0.00  0.00    +0.000 N 
ATOM     10  C   UNL     1      49.554   2.978  17.680  0.00  0.00    +0.000 C 
ATOM     11  C   UNL     1      49.002   4.654  19.314  0.00  0.00    +0.000 A 
ATOM     12  C   UNL     1      48.139   5.479  20.049  0.00  0.00    +0.000 A 
ATOM     13  C   UNL     1      48.629   6.307  21.060  0.00  0.00    +0.000 A 
ATOM     14  C   UNL     1      49.985   6.312  21.330  0.00  0.00    +0.000 A 
ATOM     15  C   UNL     1      50.791   5.509  20.550  0.00  0.00    +0.000 A 
ATOM     16  N   UNL     1      50.331   4.699  19.566  0.00  0.00    +0.000 NA
ENDBRANCH   8   9
ENDBRANCH   5   8
ENDBRANCH   1   2
BRANCH   1  18
ATOM     17  C   UNL     1      46.459   8.808  12.921  0.00  0.00    +0.000 C 
ATOM     18  N   UNL     1      46.395   7.527  12.220  0.00  0.00    +0.000 N 
ATOM     19  C   UNL     1      45.212   7.314  11.486  0.00  0.00    +0.000 C 
ATOM     20  O   UNL     1      44.331   8.173  11.446  0.00  0.00    +0.000 OA
BRANCH  19  21
ATOM     21  C   UNL     1      45.001   6.042  10.779  0.00  0.00    +0.000 A 
ATOM     22  C   UNL     1      45.568   5.708   9.559  0.00  0.00    +0.000 A 
ATOM     23  S   UNL     1      45.191   4.127   9.035  0.00  0.00    +0.000 S 
ATOM     24  C   UNL     1      44.393   3.778  10.496  0.00  0.00    +0.000 A 
ATOM     25  N   UNL     1      43.923   2.531  10.754  0.00  0.00    +0.000 NA
ATOM     26  C   UNL     1      43.408   2.394  11.931  0.00  0.00    +0.000 A 
ATOM     27  N   UNL     1      43.293   3.396  12.859  0.00  0.00    +0.000 N 
ATOM     28  C   UNL     1      43.637   4.702  12.589  0.00  0.00    +0.000 A 
ATOM     29  O   UNL     1      43.288   5.605  13.339  0.00  0.00    +0.000 OA
ATOM     30  C   UNL     1      44.329   4.883  11.325  0.00  0.00    +0.000 A 
ATOM     31  H   UNL     1      42.818   3.240  13.734  0.00  0.00    +0.000 HD
ENDBRANCH  19  21
ENDBRANCH   1  18
TORSDOF 5
ENDMDL
MODEL 4
REMARK VINA RESULT:    -7.045      3.289      8.341
REMARK INTER + INTRA:         -10.358
REMARK INTER:                  -8.885
REMARK INTRA:                  -1.473
REMARK UNBOUND:                -1.254
REMARK  Name = 
REMARK  7 active torsions:
REMARK  status: ('A' for Active; 'I' for Inactive)
REMARK    1  A    between atoms: C_1  and  N_2
REMARK    2  A    between atoms: N_2  and  C_3
REMARK    3  A    between atoms: C_3  and  C_4
REMARK    4  A    between atoms: C_7  and  C_8
REMARK    5  A    between atoms: C_8  and  N_9
REMARK    6  A    between atoms: N_9  and  C_10
REMARK    7  A    between atoms: C_19  and  C_21
REMARK                            x       y       z     vdW  Elec       q    Type
REMARK                         _______ _______ _______ _____ _____    ______ ____
ROOT
ATOM      1  C   UNL     1      49.339   8.213  15.994  0.00  0.00    +0.000 C 
ENDROOT
BRANCH   1   2
ATOM      2  C   UNL     1      48.446   7.824  14.843  0.00  0.00    +0.000 A 
ATOM      3  C   UNL     1      47.582   8.771  14.270  0.00  0.00    +0.000 A 
ATOM      4  C   UNL     1      46.642   8.380  13.316  0.00  0.00    +0.000 A 
ATOM      5  C   UNL     1      46.540   7.035  12.936  0.00  0.00    +0.000 A 
ATOM      6  C   UNL     1      47.475   6.115  13.428  0.00  0.00    +0.000 A 
ATOM      7  C   UNL     1      48.418   6.505  14.379  0.00  0.00    +0.000 A 
BRANCH   5   8
ATOM      8  C   UNL     1      45.346   6.561  12.135  0.00  0.00    +0.000 C 
BRANCH   8   9
ATOM      9  N   UNL     1      45.169   5.113  12.027  0.00  0.00    +0.000 N 
ATOM     10  C   UNL     1      44.282   4.446  12.977  0.00  0.00    +0.000 C 
ATOM     11  C   UNL     1      45.056   4.620  10.707  0.00  0.00    +0.000 A 
ATOM     12  C   UNL     1      45.802   5.170   9.657  0.00  0.00    +0.000 A 
ATOM     13  C   UNL     1      45.784   4.592   8.386  0.00  0.00    +0.000 A 
ATOM     14  C   UNL     1      45.011   3.467   8.168  0.00  0.00    +0.000 A 
ATOM     15  C   UNL     1      44.268   2.992   9.228  0.00  0.00    +0.000 A 
ATOM     16  N   UNL     1      44.276   3.540  10.468  0.00  0.00    +0.000 NA
ENDBRANCH   8   9
ENDBRANCH   5   8
ENDBRANCH   1   2
BRANCH   1  18
ATOM     17  C   UNL     1      47.866   9.180  17.840  0.00  0.00    +0.000 C 
ATOM     18  N   UNL     1      48.772   8.144  17.350  0.00  0.00    +0.000 N 
ATOM     19  C   UNL     1      49.084   7.140  18.288  0.00  0.00    +0.000 C 
ATOM     20  O   UNL     1      48.595   7.159  19.417  0.00  0.00    +0.000 OA
BRANCH  19  21
ATOM     21  C   UNL     1      50.028   6.069  17.936  0.00  0.00    +0.000 A 
ATOM     22  C   UNL     1      51.400   6.127  18.124  0.00  0.00    +0.000 A 
ATOM     23  S   UNL     1      52.216   4.693  17.685  0.00  0.00    +0.000 S 
ATOM     24  C   UNL     1      50.747   3.890  17.383  0.00  0.00    +0.000 A 
ATOM     25  N   UNL     1      50.726   2.568  17.074  0.00  0.00    +0.000 NA
ATOM     26  C   UNL     1      49.538   2.076  16.945  0.00  0.00    +0.000 A 
ATOM     27  N   UNL     1      48.375   2.790  17.067  0.00  0.00    +0.000 N 
ATOM     28  C   UNL     1      48.356   4.155  17.249  0.00  0.00    +0.000 A 
ATOM     29  O   UNL     1      47.320   4.789  17.098  0.00  0.00    +0.000 OA
ATOM     30  C   UNL     1      49.661   4.734  17.518  0.00  0.00    +0.000 A 
ATOM     31  H   UNL     1      47.481   2.360  16.886  0.00  0.00    +0.000 HD
ENDBRANCH  19  21
ENDBRANCH   1  18
TORSDOF 5
ENDMDL
MODEL 5
REMARK VINA RESULT:    -6.975      3.822      8.514
REMARK INTER + INTRA:         -10.268
REMARK INTER:                  -9.019
REMARK INTRA:                  -1.249
REMARK UNBOUND:                -1.254
REMARK  Name = 
REMARK  7 active torsions:
REMARK  status: ('A' for Active; 'I' for Inactive)
REMARK    1  A    between atoms: C_1  and  N_2
REMARK    2  A    between atoms: N_2  and  C_3
REMARK    3  A    between atoms: C_3  and  C_4
REMARK    4  A    between atoms: C_7  and  C_8
REMARK    5  A    between atoms: C_8  and  N_9
REMARK    6  A    between atoms: N_9  and  C_10
REMARK    7  A    between atoms: C_19  and  C_21
REMARK                            x       y       z     vdW  Elec       q    Type
REMARK                         _______ _______ _______ _____ _____    ______ ____
ROOT
ATOM      1  C   UNL     1      48.105   9.089  14.528  0.00  0.00    +0.000 C 
ENDROOT
BRANCH   1   2
ATOM      2  C   UNL     1      47.187   8.304  13.626  0.00  0.00    +0.000 A 
ATOM      3  C   UNL     1      46.121   8.945  12.974  0.00  0.00    +0.000 A 
ATOM      4  C   UNL     1      45.176   8.199  12.269  0.00  0.00    +0.000 A 
ATOM      5  C   UNL     1      45.273   6.802  12.221  0.00  0.00    +0.000 A 
ATOM      6  C   UNL     1      46.396   6.176  12.779  0.00  0.00    +0.000 A 
ATOM      7  C   UNL     1      47.343   6.921  13.482  0.00  0.00    +0.000 A 
BRANCH   5   8
ATOM      8  C   UNL     1      44.108   5.977  11.716  0.00  0.00    +0.000 C 
BRANCH   8   9
ATOM      9  N   UNL     1      44.305   4.529  11.676  0.00  0.00    +0.000 N 
ATOM     10  C   UNL     1      43.458   3.686  12.515  0.00  0.00    +0.000 C 
ATOM     11  C   UNL     1      44.540   3.991  10.390  0.00  0.00    +0.000 A 
ATOM     12  C   UNL     1      45.299   4.684   9.437  0.00  0.00    +0.000 A 
ATOM     13  C   UNL     1      45.637   4.089   8.220  0.00  0.00    +0.000 A 
ATOM     14  C   UNL     1      45.206   2.802   7.957  0.00  0.00    +0.000 A 
ATOM     15  C   UNL     1      44.430   2.183   8.915  0.00  0.00    +0.000 A 
ATOM     16  N   UNL     1      44.096   2.746  10.101  0.00  0.00    +0.000 NA
ENDBRANCH   8   9
ENDBRANCH   5   8
ENDBRANCH   1   2
BRANCH   1  18
ATOM     17  C   UNL     1      50.295   8.696  13.278  0.00  0.00    +0.000 C 
ATOM     18  N   UNL     1      49.533   8.733  14.524  0.00  0.00    +0.000 N 
ATOM     19  C   UNL     1      50.257   8.353  15.671  0.00  0.00    +0.000 C 
ATOM     20  O   UNL     1      51.445   8.040  15.591  0.00  0.00    +0.000 OA
BRANCH  19  21
ATOM     21  C   UNL     1      49.590   8.296  16.980  0.00  0.00    +0.000 A 
ATOM     22  C   UNL     1      49.480   9.360  17.862  0.00  0.00    +0.000 A 
ATOM     23  S   UNL     1      48.581   8.998  19.268  0.00  0.00    +0.000 S 
ATOM     24  C   UNL     1      48.170   7.459  18.670  0.00  0.00    +0.000 A 
ATOM     25  N   UNL     1      47.307   6.657  19.344  0.00  0.00    +0.000 NA
ATOM     26  C   UNL     1      47.030   5.551  18.736  0.00  0.00    +0.000 A 
ATOM     27  N   UNL     1      47.560   5.163  17.533  0.00  0.00    +0.000 N 
ATOM     28  C   UNL     1      48.536   5.886  16.882  0.00  0.00    +0.000 A 
ATOM     29  O   UNL     1      49.162   5.391  15.955  0.00  0.00    +0.000 OA
ATOM     30  C   UNL     1      48.793   7.191  17.466  0.00  0.00    +0.000 A 
ATOM     31  H   UNL     1      47.355   4.256  17.145  0.00  0.00    +0.000 HD
ENDBRANCH  19  21
ENDBRANCH   1  18
TORSDOF 5
ENDMDL
MODEL 6
REMARK VINA RESULT:    -5.966      3.751      8.868
REMARK INTER + INTRA:          -8.964
REMARK INTER:                  -7.759
REMARK INTRA:                  -1.206
REMARK UNBOUND:                -1.254
REMARK  Name = 
REMARK  7 active torsions:
REMARK  status: ('A' for Active; 'I' for Inactive)
REMARK    1  A    between atoms: C_1  and  N_2
REMARK    2  A    between atoms: N_2  and  C_3
REMARK    3  A    between atoms: C_3  and  C_4
REMARK    4  A    between atoms: C_7  and  C_8
REMARK    5  A    between atoms: C_8  and  N_9
REMARK    6  A    between atoms: N_9  and  C_10
REMARK    7  A    between atoms: C_19  and  C_21
REMARK                            x       y       z     vdW  Elec       q    Type
REMARK                         _______ _______ _______ _____ _____    ______ ____
ROOT
ATOM      1  C   UNL     1      51.220   7.360  15.985  0.00  0.00    +0.000 C 
ENDROOT
BRANCH   1   2
ATOM      2  C   UNL     1      50.086   7.344  14.992  0.00  0.00    +0.000 A 
ATOM      3  C   UNL     1      48.892   6.669  15.295  0.00  0.00    +0.000 A 
ATOM      4  C   UNL     1      47.904   6.515  14.322  0.00  0.00    +0.000 A 
ATOM      5  C   UNL     1      48.103   7.016  13.029  0.00  0.00    +0.000 A 
ATOM      6  C   UNL     1      49.245   7.783  12.762  0.00  0.00    +0.000 A 
ATOM      7  C   UNL     1      50.233   7.940  13.735  0.00  0.00    +0.000 A 
BRANCH   5   8
ATOM      8  C   UNL     1      47.178   6.602  11.904  0.00  0.00    +0.000 C 
BRANCH   8   9
ATOM      9  N   UNL     1      45.746   6.764  12.146  0.00  0.00    +0.000 N 
ATOM     10  C   UNL     1      45.096   7.993  11.698  0.00  0.00    +0.000 C 
ATOM     11  C   UNL     1      44.967   5.603  11.931  0.00  0.00    +0.000 A 
ATOM     12  C   UNL     1      45.449   4.330  12.262  0.00  0.00    +0.000 A 
ATOM     13  C   UNL     1      44.625   3.207  12.170  0.00  0.00    +0.000 A 
ATOM     14  C   UNL     1      43.321   3.360  11.739  0.00  0.00    +0.000 A 
ATOM     15  C   UNL     1      42.913   4.631  11.390  0.00  0.00    +0.000 A 
ATOM     16  N   UNL     1      43.699   5.731  11.475  0.00  0.00    +0.000 NA
ENDBRANCH   8   9
ENDBRANCH   5   8
ENDBRANCH   1   2
BRANCH   1  18
ATOM     17  C   UNL     1      50.111   8.677  17.868  0.00  0.00    +0.000 C 
ATOM     18  N   UNL     1      50.879   7.523  17.407  0.00  0.00    +0.000 N 
ATOM     19  C   UNL     1      51.295   6.644  18.427  0.00  0.00    +0.000 C 
ATOM     20  O   UNL     1      50.996   6.857  19.602  0.00  0.00    +0.000 OA
BRANCH  19  21
ATOM     21  C   UNL     1      52.120   5.473  18.100  0.00  0.00    +0.000 A 
ATOM     22  C   UNL     1      53.504   5.431  18.175  0.00  0.00    +0.000 A 
ATOM     23  S   UNL     1      54.167   3.902  17.804  0.00  0.00    +0.000 S 
ATOM     24  C   UNL     1      52.621   3.202  17.690  0.00  0.00    +0.000 A 
ATOM     25  N   UNL     1      52.472   1.866  17.503  0.00  0.00    +0.000 NA
ATOM     26  C   UNL     1      51.243   1.465  17.511  0.00  0.00    +0.000 A 
ATOM     27  N   UNL     1      50.153   2.283  17.659  0.00  0.00    +0.000 N 
ATOM     28  C   UNL     1      50.254   3.655  17.719  0.00  0.00    +0.000 A 
ATOM     29  O   UNL     1      49.260   4.359  17.593  0.00  0.00    +0.000 OA
ATOM     30  C   UNL     1      51.618   4.143  17.832  0.00  0.00    +0.000 A 
ATOM     31  H   UNL     1      49.217   1.915  17.587  0.00  0.00    +0.000 HD
ENDBRANCH  19  21
ENDBRANCH   1  18
TORSDOF 5
ENDMDL
MODEL 7
REMARK VINA RESULT:    -5.832      3.186      4.433
REMARK INTER + INTRA:          -8.791
REMARK INTER:                  -7.566
REMARK INTRA:                  -1.226
REMARK UNBOUND:                -1.254
REMARK  Name = 
REMARK  7 active torsions:
REMARK  status: ('A' for Active; 'I' for Inactive)
REMARK    1  A    between atoms: C_1  and  N_2
REMARK    2  A    between atoms: N_2  and  C_3
REMARK    3  A    between atoms: C_3  and  C_4
REMARK    4  A    between atoms: C_7  and  C_8
REMARK    5  A    between atoms: C_8  and  N_9
REMARK    6  A    between atoms: N_9  and  C_10
REMARK    7  A    between atoms: C_19  and  C_21
REMARK                            x       y       z     vdW  Elec       q    Type
REMARK                         _______ _______ _______ _____ _____    ______ ____
ROOT
ATOM      1  C   UNL     1      49.200   9.775  14.532  0.00  0.00    +0.000 C 
ENDROOT
BRANCH   1   2
ATOM      2  C   UNL     1      49.348   9.054  15.848  0.00  0.00    +0.000 A 
ATOM      3  C   UNL     1      50.368   8.104  16.021  0.00  0.00    +0.000 A 
ATOM      4  C   UNL     1      50.412   7.320  17.174  0.00  0.00    +0.000 A 
ATOM      5  C   UNL     1      49.427   7.462  18.161  0.00  0.00    +0.000 A 
ATOM      6  C   UNL     1      48.477   8.484  18.036  0.00  0.00    +0.000 A 
ATOM      7  C   UNL     1      48.434   9.271  16.884  0.00  0.00    +0.000 A 
BRANCH   5   8
ATOM      8  C   UNL     1      49.300   6.429  19.261  0.00  0.00    +0.000 C 
BRANCH   8   9
ATOM      9  N   UNL     1      48.321   5.365  19.043  0.00  0.00    +0.000 N 
ATOM     10  C   UNL     1      46.919   5.733  18.862  0.00  0.00    +0.000 C 
ATOM     11  C   UNL     1      48.747   4.324  18.186  0.00  0.00    +0.000 A 
ATOM     12  C   UNL     1      50.072   3.869  18.194  0.00  0.00    +0.000 A 
ATOM     13  C   UNL     1      50.452   2.756  17.443  0.00  0.00    +0.000 A 
ATOM     14  C   UNL     1      49.503   2.104  16.678  0.00  0.00    +0.000 A 
ATOM     15  C   UNL     1      48.223   2.619  16.679  0.00  0.00    +0.000 A 
ATOM     16  N   UNL     1      47.839   3.697  17.404  0.00  0.00    +0.000 NA
ENDBRANCH   8   9
ENDBRANCH   5   8
ENDBRANCH   1   2
BRANCH   1  18
ATOM     17  C   UNL     1      51.270   9.259  13.132  0.00  0.00    +0.000 C 
ATOM     18  N   UNL     1      49.828   9.168  13.348  0.00  0.00    +0.000 N 
ATOM     19  C   UNL     1      49.116   8.516  12.321  0.00  0.00    +0.000 C 
ATOM     20  O   UNL     1      49.703   8.055  11.343  0.00  0.00    +0.000 OA
BRANCH  19  21
ATOM     21  C   UNL     1      47.652   8.406  12.393  0.00  0.00    +0.000 A 
ATOM     22  C   UNL     1      46.760   9.344  11.897  0.00  0.00    +0.000 A 
ATOM     23  S   UNL     1      45.122   8.893  12.066  0.00  0.00    +0.000 S 
ATOM     24  C   UNL     1      45.553   7.358  12.659  0.00  0.00    +0.000 A 
ATOM     25  N   UNL     1      44.609   6.413  12.901  0.00  0.00    +0.000 NA
ATOM     26  C   UNL     1      45.087   5.273  13.276  0.00  0.00    +0.000 A 
ATOM     27  N   UNL     1      46.419   5.003  13.461  0.00  0.00    +0.000 N 
ATOM     28  C   UNL     1      47.395   5.969  13.355  0.00  0.00    +0.000 A 
ATOM     29  O   UNL     1      48.527   5.758  13.771  0.00  0.00    +0.000 OA
ATOM     30  C   UNL     1      46.920   7.233  12.820  0.00  0.00    +0.000 A 
ATOM     31  H   UNL     1      46.721   4.112  13.822  0.00  0.00    +0.000 HD
ENDBRANCH  19  21
ENDBRANCH   1  18
TORSDOF 5
ENDMDL
MODEL 8
REMARK VINA RESULT:    -5.686      2.013      2.795
REMARK INTER + INTRA:          -8.603
REMARK INTER:                  -7.874
REMARK INTRA:                  -0.729
REMARK UNBOUND:                -1.254
REMARK  Name = 
REMARK  7 active torsions:
REMARK  status: ('A' for Active; 'I' for Inactive)
REMARK    1  A    between atoms: C_1  and  N_2
REMARK    2  A    between atoms: N_2  and  C_3
REMARK    3  A    between atoms: C_3  and  C_4
REMARK    4  A    between atoms: C_7  and  C_8
REMARK    5  A    between atoms: C_8  and  N_9
REMARK    6  A    between atoms: N_9  and  C_10
REMARK    7  A    between atoms: C_19  and  C_21
REMARK                            x       y       z     vdW  Elec       q    Type
REMARK                         _______ _______ _______ _____ _____    ______ ____
ROOT
ATOM      1  C   UNL     1      46.965   6.421  12.080  0.00  0.00    +0.000 C 
ENDROOT
BRANCH   1   2
ATOM      2  C   UNL     1      47.858   6.922  13.187  0.00  0.00    +0.000 A 
ATOM      3  C   UNL     1      48.825   7.906  12.922  0.00  0.00    +0.000 A 
ATOM      4  C   UNL     1      49.757   8.257  13.898  0.00  0.00    +0.000 A 
ATOM      5  C   UNL     1      49.748   7.618  15.145  0.00  0.00    +0.000 A 
ATOM      6  C   UNL     1      48.716   6.718  15.443  0.00  0.00    +0.000 A 
ATOM      7  C   UNL     1      47.781   6.367  14.468  0.00  0.00    +0.000 A 
BRANCH   5   8
ATOM      8  C   UNL     1      50.921   7.779  16.089  0.00  0.00    +0.000 C 
BRANCH   8   9
ATOM      9  N   UNL     1      51.201   6.651  16.977  0.00  0.00    +0.000 N 
ATOM     10  C   UNL     1      52.418   5.874  16.755  0.00  0.00    +0.000 C 
ATOM     11  C   UNL     1      50.917   6.878  18.343  0.00  0.00    +0.000 A 
ATOM     12  C   UNL     1      49.810   7.639  18.741  0.00  0.00    +0.000 A 
ATOM     13  C   UNL     1      49.463   7.748  20.089  0.00  0.00    +0.000 A 
ATOM     14  C   UNL     1      50.231   7.099  21.037  0.00  0.00    +0.000 A 
ATOM     15  C   UNL     1      51.331   6.396  20.591  0.00  0.00    +0.000 A 
ATOM     16  N   UNL     1      51.680   6.279  19.286  0.00  0.00    +0.000 NA
ENDBRANCH   8   9
ENDBRANCH   5   8
ENDBRANCH   1   2
BRANCH   1  18
ATOM     17  C   UNL     1      45.812   8.679  11.792  0.00  0.00    +0.000 C 
ATOM     18  N   UNL     1      45.774   7.219  11.750  0.00  0.00    +0.000 N 
ATOM     19  C   UNL     1      44.516   6.670  11.431  0.00  0.00    +0.000 C 
ATOM     20  O   UNL     1      43.553   7.398  11.193  0.00  0.00    +0.000 OA
BRANCH  19  21
ATOM     21  C   UNL     1      44.332   5.211  11.410  0.00  0.00    +0.000 A 
ATOM     22  C   UNL     1      43.603   4.490  12.342  0.00  0.00    +0.000 A 
ATOM     23  S   UNL     1      43.512   2.819  12.001  0.00  0.00    +0.000 S 
ATOM     24  C   UNL     1      44.305   3.029  10.510  0.00  0.00    +0.000 A 
ATOM     25  N   UNL     1      44.453   1.992   9.647  0.00  0.00    +0.000 NA
ATOM     26  C   UNL     1      45.005   2.314   8.525  0.00  0.00    +0.000 A 
ATOM     27  N   UNL     1      45.450   3.570   8.201  0.00  0.00    +0.000 N 
ATOM     28  C   UNL     1      45.439   4.617   9.096  0.00  0.00    +0.000 A 
ATOM     29  O   UNL     1      46.069   5.640   8.865  0.00  0.00    +0.000 OA
ATOM     30  C   UNL     1      44.720   4.335  10.327  0.00  0.00    +0.000 A 
ATOM     31  H   UNL     1      45.936   3.740   7.334  0.00  0.00    +0.000 HD
ENDBRANCH  19  21
ENDBRANCH   1  18
TORSDOF 5
ENDMDL
MODEL 9
REMARK VINA RESULT:    -5.641      3.792      8.521
REMARK INTER + INTRA:          -8.544
REMARK INTER:                  -7.185
REMARK INTRA:                  -1.359
REMARK UNBOUND:                -1.254
REMARK  Name = 
REMARK  7 active torsions:
REMARK  status: ('A' for Active; 'I' for Inactive)
REMARK    1  A    between atoms: C_1  and  N_2
REMARK    2  A    between atoms: N_2  and  C_3
REMARK    3  A    between atoms: C_3  and  C_4
REMARK    4  A    between atoms: C_7  and  C_8
REMARK    5  A    between atoms: C_8  and  N_9
REMARK    6  A    between atoms: N_9  and  C_10
REMARK    7  A    between atoms: C_19  and  C_21
REMARK                            x       y       z     vdW  Elec       q    Type
REMARK                         _______ _______ _______ _____ _____    ______ ____
ROOT
ATOM      1  C   UNL     1      51.534   8.044  14.524  0.00  0.00    +0.000 C 
ENDROOT
BRANCH   1   2
ATOM      2  C   UNL     1      50.284   7.950  13.686  0.00  0.00    +0.000 A 
ATOM      3  C   UNL     1      49.059   7.612  14.284  0.00  0.00    +0.000 A 
ATOM      4  C   UNL     1      47.935   7.366  13.496  0.00  0.00    +0.000 A 
ATOM      5  C   UNL     1      48.024   7.437  12.099  0.00  0.00    +0.000 A 
ATOM      6  C   UNL     1      49.217   7.880  11.513  0.00  0.00    +0.000 A 
ATOM      7  C   UNL     1      50.341   8.129  12.301  0.00  0.00    +0.000 A 
BRANCH   5   8
ATOM      8  C   UNL     1      46.904   6.892  11.238  0.00  0.00    +0.000 C 
BRANCH   8   9
ATOM      9  N   UNL     1      45.557   6.959  11.804  0.00  0.00    +0.000 N 
ATOM     10  C   UNL     1      44.723   8.115  11.487  0.00  0.00    +0.000 C 
ATOM     11  C   UNL     1      44.848   5.736  11.809  0.00  0.00    +0.000 A 
ATOM     12  C   UNL     1      45.497   4.518  12.054  0.00  0.00    +0.000 A 
ATOM     13  C   UNL     1      44.769   3.334  12.188  0.00  0.00    +0.000 A 
ATOM     14  C   UNL     1      43.393   3.371  12.069  0.00  0.00    +0.000 A 
ATOM     15  C   UNL     1      42.812   4.590  11.790  0.00  0.00    +0.000 A 
ATOM     16  N   UNL     1      43.504   5.749  11.659  0.00  0.00    +0.000 NA
ENDBRANCH   8   9
ENDBRANCH   5   8
ENDBRANCH   1   2
BRANCH   1  18
ATOM     17  C   UNL     1      51.804  10.356  15.570  0.00  0.00    +0.000 C 
ATOM     18  N   UNL     1      51.504   8.932  15.697  0.00  0.00    +0.000 N 
ATOM     19  C   UNL     1      51.248   8.497  17.012  0.00  0.00    +0.000 C 
ATOM     20  O   UNL     1      51.266   9.290  17.953  0.00  0.00    +0.000 OA
BRANCH  19  21
ATOM     21  C   UNL     1      50.986   7.076  17.282  0.00  0.00    +0.000 A 
ATOM     22  C   UNL     1      51.952   6.082  17.311  0.00  0.00    +0.000 A 
ATOM     23  S   UNL     1      51.342   4.542  17.728  0.00  0.00    +0.000 S 
ATOM     24  C   UNL     1      49.798   5.182  18.041  0.00  0.00    +0.000 A 
ATOM     25  N   UNL     1      48.811   4.403  18.554  0.00  0.00    +0.000 NA
ATOM     26  C   UNL     1      47.716   5.040  18.811  0.00  0.00    +0.000 A 
ATOM     27  N   UNL     1      47.510   6.375  18.574  0.00  0.00    +0.000 N 
ATOM     28  C   UNL     1      48.437   7.168  17.936  0.00  0.00    +0.000 A 
ATOM     29  O   UNL     1      48.125   8.275  17.516  0.00  0.00    +0.000 OA
ATOM     30  C   UNL     1      49.726   6.528  17.735  0.00  0.00    +0.000 A 
ATOM     31  H   UNL     1      46.609   6.796  18.734  0.00  0.00    +0.000 HD
ENDBRANCH  19  21
ENDBRANCH   1  18
TORSDOF 5
ENDMDL
