MODEL 1
REMARK VINA RESULT:    -7.977      0.000      0.000
REMARK INTER + INTRA:         -11.150
REMARK INTER:                 -10.542
REMARK INTRA:                  -0.608
REMARK UNBOUND:                -0.608
REMARK  Name = 
REMARK  6 active torsions:
REMARK  status: ('A' for Active; 'I' for Inactive)
REMARK    1  A    between atoms: N_1  and  C_2
REMARK    2  A    between atoms: C_2  and  C_3
REMARK    3  A    between atoms: C_7  and  C_8
REMARK    4  A    between atoms: C_8  and  C_9
REMARK    5  A    between atoms: C_9  and  N_10
REMARK    6  A    between atoms: C_14  and  C_15
REMARK                            x       y       z     vdW  Elec       q    Type
REMARK                         _______ _______ _______ _____ _____    ______ ____
ROOT
ATOM      1  N   UNL     1      43.840   3.621  10.291  0.00  0.00    +0.000 N 
ATOM      2  C   UNL     1      44.784   3.310   9.293  0.00  0.00    +0.000 A 
ATOM      3  C   UNL     1      45.185   1.984   9.135  0.00  0.00    +0.000 A 
ATOM      4  C   UNL     1      46.131   1.664   8.155  0.00  0.00    +0.000 A 
ATOM      5  C   UNL     1      46.663   2.672   7.349  0.00  0.00    +0.000 A 
ATOM      6  C   UNL     1      46.219   3.960   7.585  0.00  0.00    +0.000 A 
ATOM      7  N   UNL     1      45.307   4.290   8.531  0.00  0.00    +0.000 NA
ATOM      8  H   UNL     1      43.017   3.042  10.148  0.00  0.00    +0.000 HD
ENDROOT
BRANCH   5   9
ATOM      9  C   UNL     1      47.656   2.331   6.304  0.00  0.00    +0.000 C 
ATOM     10  N   UNL     1      47.743   3.115   5.184  0.00  0.00    +0.000 N 
ATOM     11  O   UNL     1      48.393   1.358   6.425  0.00  0.00    +0.000 OA
ATOM     12  H   UNL     1      47.179   3.923   4.978  0.00  0.00    +0.000 HD
ATOM     13  H   UNL     1      48.430   2.839   4.493  0.00  0.00    +0.000 HD
ENDBRANCH   5   9
BRANCH   1  14
ATOM     14  C   UNL     1      43.514   5.052  10.332  0.00  0.00    +0.000 C 
BRANCH  14  15
ATOM     15  C   UNL     1      43.534   5.586  11.769  0.00  0.00    +0.000 C 
BRANCH  15  20
ATOM     16  C   UNL     1      46.749   5.292  13.824  0.00  0.00    +0.000 A 
ATOM     17  C   UNL     1      47.631   6.045  13.037  0.00  0.00    +0.000 A 
ATOM     18  C   UNL     1      47.187   6.671  11.872  0.00  0.00    +0.000 A 
ATOM     19  C   UNL     1      45.857   6.545  11.472  0.00  0.00    +0.000 A 
ATOM     20  C   UNL     1      44.955   5.799  12.240  0.00  0.00    +0.000 A 
ATOM     21  C   UNL     1      45.410   5.181  13.417  0.00  0.00    +0.000 A 
BRANCH  16  22
ATOM     22  C   UNL     1      47.247   4.551  15.040  0.00  0.00    +0.000 C 
BRANCH  22  23
ATOM     23  N   UNL     1      47.553   3.154  14.752  0.00  0.00    +0.000 NA
ATOM     24  H   UNL     1      47.008   2.858  13.944  0.00  0.00    +0.000 HD
ATOM     25  H   UNL     1      47.238   2.584  15.536  0.00  0.00    +0.000 HD
ENDBRANCH  22  23
ENDBRANCH  16  22
ENDBRANCH  15  20
ENDBRANCH  14  15
ENDBRANCH   1  14
TORSDOF 6
ENDMDL
MODEL 2
REMARK VINA RESULT:    -7.814      1.898      2.598
REMARK INTER + INTRA:         -10.934
REMARK INTER:                 -10.566
REMARK INTRA:                  -0.368
REMARK UNBOUND:                -0.608
REMARK  Name = 
REMARK  6 active torsions:
REMARK  status: ('A' for Active; 'I' for Inactive)
REMARK    1  A    between atoms: N_1  and  C_2
REMARK    2  A    between atoms: C_2  and  C_3
REMARK    3  A    between atoms: C_7  and  C_8
REMARK    4  A    between atoms: C_8  and  C_9
REMARK    5  A    between atoms: C_9  and  N_10
REMARK    6  A    between atoms: C_14  and  C_15
REMARK                            x       y       z     vdW  Elec       q    Type
REMARK                         _______ _______ _______ _____ _____    ______ ____
ROOT
ATOM      1  N   UNL     1      43.894   4.750  10.171  0.00  0.00    +0.000 N 
ATOM      2  C   UNL     1      44.740   3.937   9.391  0.00  0.00    +0.000 A 
ATOM      3  C   UNL     1      45.482   4.524   8.368  0.00  0.00    +0.000 A 
ATOM      4  C   UNL     1      46.317   3.725   7.578  0.00  0.00    +0.000 A 
ATOM      5  C   UNL     1      46.397   2.353   7.822  0.00  0.00    +0.000 A 
ATOM      6  C   UNL     1      45.614   1.854   8.847  0.00  0.00    +0.000 A 
ATOM      7  N   UNL     1      44.797   2.610   9.619  0.00  0.00    +0.000 NA
ATOM      8  H   UNL     1      44.445   5.511  10.558  0.00  0.00    +0.000 HD
ENDROOT
BRANCH   5   9
ATOM      9  C   UNL     1      47.289   1.509   6.993  0.00  0.00    +0.000 C 
ATOM     10  N   UNL     1      48.432   2.056   6.474  0.00  0.00    +0.000 N 
ATOM     11  O   UNL     1      47.016   0.335   6.764  0.00  0.00    +0.000 OA
ATOM     12  H   UNL     1      48.742   3.008   6.586  0.00  0.00    +0.000 HD
ATOM     13  H   UNL     1      49.007   1.445   5.906  0.00  0.00    +0.000 HD
ENDBRANCH   5   9
BRANCH   1  14
ATOM     14  C   UNL     1      43.184   3.992  11.210  0.00  0.00    +0.000 C 
BRANCH  14  15
ATOM     15  C   UNL     1      43.232   4.719  12.559  0.00  0.00    +0.000 C 
BRANCH  15  20
ATOM     16  C   UNL     1      45.990   7.355  12.869  0.00  0.00    +0.000 A 
ATOM     17  C   UNL     1      47.050   6.569  13.338  0.00  0.00    +0.000 A 
ATOM     18  C   UNL     1      46.890   5.195  13.521  0.00  0.00    +0.000 A 
ATOM     19  C   UNL     1      45.664   4.590  13.247  0.00  0.00    +0.000 A 
ATOM     20  C   UNL     1      44.588   5.352  12.777  0.00  0.00    +0.000 A 
ATOM     21  C   UNL     1      44.763   6.733  12.586  0.00  0.00    +0.000 A 
BRANCH  16  22
ATOM     22  C   UNL     1      46.139   8.851  12.745  0.00  0.00    +0.000 C 
BRANCH  22  23
ATOM     23  N   UNL     1      44.858   9.544  12.826  0.00  0.00    +0.000 NA
ATOM     24  H   UNL     1      44.376   9.249  13.673  0.00  0.00    +0.000 HD
ATOM     25  H   UNL     1      44.276   9.245  12.045  0.00  0.00    +0.000 HD
ENDBRANCH  22  23
ENDBRANCH  16  22
ENDBRANCH  15  20
ENDBRANCH  14  15
ENDBRANCH   1  14
TORSDOF 6
ENDMDL
MODEL 3
REMARK VINA RESULT:    -6.688      2.878      6.306
REMARK INTER + INTRA:          -9.447
REMARK INTER:                  -8.930
REMARK INTRA:                  -0.516
REMARK UNBOUND:                -0.608
REMARK  Name = 
REMARK  6 active torsions:
REMARK  status: ('A' for Active; 'I' for Inactive)
REMARK    1  A    between atoms: N_1  and  C_2
REMARK    2  A    between atoms: C_2  and  C_3
REMARK    3  A    between atoms: C_7  and  C_8
REMARK    4  A    between atoms: C_8  and  C_9
REMARK    5  A    between atoms: C_9  and  N_10
REMARK    6  A    between atoms: C_14  and  C_15
REMARK                            x       y       z     vdW  Elec       q    Type
REMARK                         _______ _______ _______ _____ _____    ______ ____
ROOT
ATOM      1  N   UNL     1      44.805   3.934  12.827  0.00  0.00    +0.000 N 
ATOM      2  C   UNL     1      45.699   5.024  12.838  0.00  0.00    +0.000 A 
ATOM      3  C   UNL     1      46.765   5.012  13.735  0.00  0.00    +0.000 A 
ATOM      4  C   UNL     1      47.652   6.095  13.763  0.00  0.00    +0.000 A 
ATOM      5  C   UNL     1      47.460   7.172  12.896  0.00  0.00    +0.000 A 
ATOM      6  C   UNL     1      46.368   7.106  12.051  0.00  0.00    +0.000 A 
ATOM      7  N   UNL     1      45.496   6.069  12.012  0.00  0.00    +0.000 NA
ATOM      8  H   UNL     1      45.340   3.081  12.693  0.00  0.00    +0.000 HD
ENDROOT
BRANCH   5   9
ATOM      9  C   UNL     1      48.406   8.312  12.919  0.00  0.00    +0.000 C 
ATOM     10  N   UNL     1      49.209   8.491  14.013  0.00  0.00    +0.000 N 
ATOM     11  O   UNL     1      48.474   9.095  11.977  0.00  0.00    +0.000 OA
ATOM     12  H   UNL     1      49.223   7.920  14.842  0.00  0.00    +0.000 HD
ATOM     13  H   UNL     1      49.833   9.289  13.988  0.00  0.00    +0.000 HD
ENDBRANCH   5   9
BRANCH   1  14
ATOM     14  C   UNL     1      43.741   4.088  11.828  0.00  0.00    +0.000 C 
BRANCH  14  15
ATOM     15  C   UNL     1      43.714   2.901  10.857  0.00  0.00    +0.000 C 
BRANCH  15  20
ATOM     16  C   UNL     1      46.223   2.168   8.061  0.00  0.00    +0.000 A 
ATOM     17  C   UNL     1      46.418   3.455   7.542  0.00  0.00    +0.000 A 
ATOM     18  C   UNL     1      45.774   4.555   8.108  0.00  0.00    +0.000 A 
ATOM     19  C   UNL     1      44.918   4.383   9.195  0.00  0.00    +0.000 A 
ATOM     20  C   UNL     1      44.706   3.108   9.734  0.00  0.00    +0.000 A 
ATOM     21  C   UNL     1      45.368   2.008   9.162  0.00  0.00    +0.000 A 
BRANCH  16  22
ATOM     22  C   UNL     1      46.858   0.969   7.401  0.00  0.00    +0.000 C 
BRANCH  22  23
ATOM     23  N   UNL     1      47.965   1.338   6.526  0.00  0.00    +0.000 NA
ATOM     24  H   UNL     1      47.626   1.382   5.567  0.00  0.00    +0.000 HD
ATOM     25  H   UNL     1      48.662   0.596   6.552  0.00  0.00    +0.000 HD
ENDBRANCH  22  23
ENDBRANCH  16  22
ENDBRANCH  15  20
ENDBRANCH  14  15
ENDBRANCH   1  14
TORSDOF 6
ENDMDL
MODEL 4
REMARK VINA RESULT:    -6.544      2.857      6.826
REMARK INTER + INTRA:          -9.256
REMARK INTER:                  -8.844
REMARK INTRA:                  -0.412
REMARK UNBOUND:                -0.608
REMARK  Name = 
REMARK  6 active torsions:
REMARK  status: ('A' for Active; 'I' for Inactive)
REMARK    1  A    between atoms: N_1  and  C_2
REMARK    2  A    between atoms: C_2  and  C_3
REMARK    3  A    between atoms: C_7  and  C_8
REMARK    4  A    between atoms: C_8  and  C_9
REMARK    5  A    between atoms: C_9  and  N_10
REMARK    6  A    between atoms: C_14  and  C_15
REMARK                            x       y       z     vdW  Elec       q    Type
REMARK                         _______ _______ _______ _____ _____    ______ ____
ROOT
ATOM      1  N   UNL     1      43.800   5.853  10.960  0.00  0.00    +0.000 N 
ATOM      2  C   UNL     1      44.931   6.179  11.735  0.00  0.00    +0.000 A 
ATOM      3  C   UNL     1      44.979   7.421  12.366  0.00  0.00    +0.000 A 
ATOM      4  C   UNL     1      46.102   7.762  13.128  0.00  0.00    +0.000 A 
ATOM      5  C   UNL     1      47.159   6.858  13.248  0.00  0.00    +0.000 A 
ATOM      6  C   UNL     1      47.033   5.656  12.576  0.00  0.00    +0.000 A 
ATOM      7  N   UNL     1      45.955   5.310  11.830  0.00  0.00    +0.000 NA
ATOM      8  H   UNL     1      42.971   5.963  11.538  0.00  0.00    +0.000 HD
ENDROOT
BRANCH   5   9
ATOM      9  C   UNL     1      48.343   7.215  14.064  0.00  0.00    +0.000 C 
ATOM     10  N   UNL     1      48.905   8.455  13.919  0.00  0.00    +0.000 N 
ATOM     11  O   UNL     1      48.827   6.416  14.859  0.00  0.00    +0.000 OA
ATOM     12  H   UNL     1      48.600   9.177  13.287  0.00  0.00    +0.000 HD
ATOM     13  H   UNL     1      49.718   8.652  14.490  0.00  0.00    +0.000 HD
ENDBRANCH   5   9
BRANCH   1  14
ATOM     14  C   UNL     1      43.891   4.513  10.365  0.00  0.00    +0.000 C 
BRANCH  14  15
ATOM     15  C   UNL     1      44.101   4.592   8.849  0.00  0.00    +0.000 C 
BRANCH  15  20
ATOM     16  C   UNL     1      46.594   2.528   6.805  0.00  0.00    +0.000 A 
ATOM     17  C   UNL     1      46.623   1.342   7.551  0.00  0.00    +0.000 A 
ATOM     18  C   UNL     1      45.821   1.193   8.682  0.00  0.00    +0.000 A 
ATOM     19  C   UNL     1      44.987   2.233   9.091  0.00  0.00    +0.000 A 
ATOM     20  C   UNL     1      44.938   3.429   8.364  0.00  0.00    +0.000 A 
ATOM     21  C   UNL     1      45.742   3.564   7.220  0.00  0.00    +0.000 A 
BRANCH  16  22
ATOM     22  C   UNL     1      47.518   2.719   5.627  0.00  0.00    +0.000 C 
BRANCH  22  23
ATOM     23  N   UNL     1      48.526   1.669   5.538  0.00  0.00    +0.000 NA
ATOM     24  H   UNL     1      48.203   0.857   6.060  0.00  0.00    +0.000 HD
ATOM     25  H   UNL     1      49.374   1.991   6.002  0.00  0.00    +0.000 HD
ENDBRANCH  22  23
ENDBRANCH  16  22
ENDBRANCH  15  20
ENDBRANCH  14  15
ENDBRANCH   1  14
TORSDOF 6
ENDMDL
MODEL 5
REMARK VINA RESULT:    -6.483      2.955      7.154
REMARK INTER + INTRA:          -9.176
REMARK INTER:                  -8.759
REMARK INTRA:                  -0.417
REMARK UNBOUND:                -0.608
REMARK  Name = 
REMARK  6 active torsions:
REMARK  status: ('A' for Active; 'I' for Inactive)
REMARK    1  A    between atoms: N_1  and  C_2
REMARK    2  A    between atoms: C_2  and  C_3
REMARK    3  A    between atoms: C_7  and  C_8
REMARK    4  A    between atoms: C_8  and  C_9
REMARK    5  A    between atoms: C_9  and  N_10
REMARK    6  A    between atoms: C_14  and  C_15
REMARK                            x       y       z     vdW  Elec       q    Type
REMARK                         _______ _______ _______ _____ _____    ______ ____
ROOT
ATOM      1  N   UNL     1      46.304   6.548  11.700  0.00  0.00    +0.000 N 
ATOM      2  C   UNL     1      46.687   5.887  12.884  0.00  0.00    +0.000 A 
ATOM      3  C   UNL     1      47.594   6.510  13.739  0.00  0.00    +0.000 A 
ATOM      4  C   UNL     1      47.993   5.858  14.912  0.00  0.00    +0.000 A 
ATOM      5  C   UNL     1      47.479   4.595  15.212  0.00  0.00    +0.000 A 
ATOM      6  C   UNL     1      46.596   4.047  14.300  0.00  0.00    +0.000 A 
ATOM      7  N   UNL     1      46.202   4.661  13.157  0.00  0.00    +0.000 NA
ATOM      8  H   UNL     1      45.949   7.469  11.945  0.00  0.00    +0.000 HD
ENDROOT
BRANCH   5   9
ATOM      9  C   UNL     1      47.891   3.910  16.459  0.00  0.00    +0.000 C 
ATOM     10  N   UNL     1      46.965   3.186  17.160  0.00  0.00    +0.000 N 
ATOM     11  O   UNL     1      49.044   3.988  16.872  0.00  0.00    +0.000 OA
ATOM     12  H   UNL     1      45.994   3.069  16.921  0.00  0.00    +0.000 HD
ATOM     13  H   UNL     1      47.289   2.742  18.011  0.00  0.00    +0.000 HD
ENDBRANCH   5   9
BRANCH   1  14
ATOM     14  C   UNL     1      45.340   5.773  10.907  0.00  0.00    +0.000 C 
BRANCH  14  15
ATOM     15  C   UNL     1      45.723   5.761   9.423  0.00  0.00    +0.000 C 
BRANCH  15  20
ATOM     16  C   UNL     1      46.490   2.722   7.226  0.00  0.00    +0.000 A 
ATOM     17  C   UNL     1      45.854   1.707   7.954  0.00  0.00    +0.000 A 
ATOM     18  C   UNL     1      45.155   2.002   9.124  0.00  0.00    +0.000 A 
ATOM     19  C   UNL     1      45.090   3.316   9.589  0.00  0.00    +0.000 A 
ATOM     20  C   UNL     1      45.717   4.349   8.881  0.00  0.00    +0.000 A 
ATOM     21  C   UNL     1      46.410   4.041   7.698  0.00  0.00    +0.000 A 
BRANCH  16  22
ATOM     22  C   UNL     1      47.312   2.392   6.004  0.00  0.00    +0.000 C 
BRANCH  22  23
ATOM     23  N   UNL     1      48.745   2.426   6.274  0.00  0.00    +0.000 NA
ATOM     24  H   UNL     1      48.929   1.922   7.139  0.00  0.00    +0.000 HD
ATOM     25  H   UNL     1      49.021   3.393   6.439  0.00  0.00    +0.000 HD
ENDBRANCH  22  23
ENDBRANCH  16  22
ENDBRANCH  15  20
ENDBRANCH  14  15
ENDBRANCH   1  14
TORSDOF 6
ENDMDL
MODEL 6
REMARK VINA RESULT:    -6.387      3.584      6.122
REMARK INTER + INTRA:          -9.048
REMARK INTER:                  -8.732
REMARK INTRA:                  -0.316
REMARK UNBOUND:                -0.608
REMARK  Name = 
REMARK  6 active torsions:
REMARK  status: ('A' for Active; 'I' for Inactive)
REMARK    1  A    between atoms: N_1  and  C_2
REMARK    2  A    between atoms: C_2  and  C_3
REMARK    3  A    between atoms: C_7  and  C_8
REMARK    4  A    between atoms: C_8  and  C_9
REMARK    5  A    between atoms: C_9  and  N_10
REMARK    6  A    between atoms: C_14  and  C_15
REMARK                            x       y       z     vdW  Elec       q    Type
REMARK                         _______ _______ _______ _____ _____    ______ ____
ROOT
ATOM      1  N   UNL     1      47.070   5.100  14.974  0.00  0.00    +0.000 N 
ATOM      2  C   UNL     1      46.400   4.755  13.783  0.00  0.00    +0.000 A 
ATOM      3  C   UNL     1      46.077   5.762  12.876  0.00  0.00    +0.000 A 
ATOM      4  C   UNL     1      45.401   5.434  11.695  0.00  0.00    +0.000 A 
ATOM      5  C   UNL     1      45.059   4.105  11.439  0.00  0.00    +0.000 A 
ATOM      6  C   UNL     1      45.406   3.174  12.401  0.00  0.00    +0.000 A 
ATOM      7  N   UNL     1      46.056   3.473  13.551  0.00  0.00    +0.000 NA
ATOM      8  H   UNL     1      47.915   5.611  14.733  0.00  0.00    +0.000 HD
ENDROOT
BRANCH   5   9
ATOM      9  C   UNL     1      44.354   3.756  10.184  0.00  0.00    +0.000 C 
ATOM     10  N   UNL     1      44.191   4.716   9.221  0.00  0.00    +0.000 N 
ATOM     11  O   UNL     1      43.912   2.627   9.999  0.00  0.00    +0.000 OA
ATOM     12  H   UNL     1      44.498   5.673   9.276  0.00  0.00    +0.000 HD
ATOM     13  H   UNL     1      43.695   4.435   8.383  0.00  0.00    +0.000 HD
ENDBRANCH   5   9
BRANCH   1  14
ATOM     14  C   UNL     1      47.347   3.934  15.823  0.00  0.00    +0.000 C 
BRANCH  14  15
ATOM     15  C   UNL     1      47.623   4.354  17.272  0.00  0.00    +0.000 C 
BRANCH  15  20
ATOM     16  C   UNL     1      51.028   2.634  17.582  0.00  0.00    +0.000 A 
ATOM     17  C   UNL     1      51.788   3.662  18.154  0.00  0.00    +0.000 A 
ATOM     18  C   UNL     1      51.203   4.888  18.470  0.00  0.00    +0.000 A 
ATOM     19  C   UNL     1      49.851   5.107  18.208  0.00  0.00    +0.000 A 
ATOM     20  C   UNL     1      49.068   4.096  17.637  0.00  0.00    +0.000 A 
ATOM     21  C   UNL     1      49.665   2.862  17.332  0.00  0.00    +0.000 A 
BRANCH  16  22
ATOM     22  C   UNL     1      51.678   1.336  17.168  0.00  0.00    +0.000 C 
BRANCH  22  23
ATOM     23  N   UNL     1      51.535   0.297  18.182  0.00  0.00    +0.000 NA
ATOM     24  H   UNL     1      52.176  -0.464  17.966  0.00  0.00    +0.000 HD
ATOM     25  H   UNL     1      50.595  -0.092  18.120  0.00  0.00    +0.000 HD
ENDBRANCH  22  23
ENDBRANCH  16  22
ENDBRANCH  15  20
ENDBRANCH  14  15
ENDBRANCH   1  14
TORSDOF 6
ENDMDL
MODEL 7
REMARK VINA RESULT:    -6.089      3.341      7.372
REMARK INTER + INTRA:          -8.655
REMARK INTER:                  -8.180
REMARK INTRA:                  -0.475
REMARK UNBOUND:                -0.608
REMARK  Name = 
REMARK  6 active torsions:
REMARK  status: ('A' for Active; 'I' for Inactive)
REMARK    1  A    between atoms: N_1  and  C_2
REMARK    2  A    between atoms: C_2  and  C_3
REMARK    3  A    between atoms: C_7  and  C_8
REMARK    4  A    between atoms: C_8  and  C_9
REMARK    5  A    between atoms: C_9  and  N_10
REMARK    6  A    between atoms: C_14  and  C_15
REMARK                            x       y       z     vdW  Elec       q    Type
REMARK                         _______ _______ _______ _____ _____    ______ ____
ROOT
ATOM      1  N   UNL     1      48.267   7.116  13.485  0.00  0.00    +0.000 N 
ATOM      2  C   UNL     1      48.103   6.161  14.508  0.00  0.00    +0.000 A 
ATOM      3  C   UNL     1      48.623   6.433  15.772  0.00  0.00    +0.000 A 
ATOM      4  C   UNL     1      48.477   5.487  16.793  0.00  0.00    +0.000 A 
ATOM      5  C   UNL     1      47.814   4.286  16.536  0.00  0.00    +0.000 A 
ATOM      6  C   UNL     1      47.344   4.095  15.250  0.00  0.00    +0.000 A 
ATOM      7  N   UNL     1      47.479   4.996  14.248  0.00  0.00    +0.000 NA
ATOM      8  H   UNL     1      47.897   8.005  13.811  0.00  0.00    +0.000 HD
ENDROOT
BRANCH   5   9
ATOM      9  C   UNL     1      47.649   3.290  17.621  0.00  0.00    +0.000 C 
ATOM     10  N   UNL     1      48.659   3.120  18.530  0.00  0.00    +0.000 N 
ATOM     11  O   UNL     1      46.628   2.616  17.711  0.00  0.00    +0.000 OA
ATOM     12  H   UNL     1      49.541   3.607  18.540  0.00  0.00    +0.000 HD
ATOM     13  H   UNL     1      48.507   2.422  19.249  0.00  0.00    +0.000 HD
ENDBRANCH   5   9
BRANCH   1  14
ATOM     14  C   UNL     1      47.663   6.692  12.215  0.00  0.00    +0.000 C 
BRANCH  14  15
ATOM     15  C   UNL     1      46.271   7.308  12.030  0.00  0.00    +0.000 C 
BRANCH  15  20
ATOM     16  C   UNL     1      44.304   4.355  10.594  0.00  0.00    +0.000 A 
ATOM     17  C   UNL     1      43.401   4.111  11.638  0.00  0.00    +0.000 A 
ATOM     18  C   UNL     1      43.402   4.912  12.780  0.00  0.00    +0.000 A 
ATOM     19  C   UNL     1      44.312   5.961  12.899  0.00  0.00    +0.000 A 
ATOM     20  C   UNL     1      45.225   6.227  11.871  0.00  0.00    +0.000 A 
ATOM     21  C   UNL     1      45.209   5.421  10.721  0.00  0.00    +0.000 A 
BRANCH  16  22
ATOM     22  C   UNL     1      44.356   3.442   9.394  0.00  0.00    +0.000 C 
BRANCH  22  23
ATOM     23  N   UNL     1      44.412   4.180   8.138  0.00  0.00    +0.000 NA
ATOM     24  H   UNL     1      43.766   4.965   8.188  0.00  0.00    +0.000 HD
ATOM     25  H   UNL     1      44.074   3.576   7.390  0.00  0.00    +0.000 HD
ENDBRANCH  22  23
ENDBRANCH  16  22
ENDBRANCH  15  20
ENDBRANCH  14  15
ENDBRANCH   1  14
TORSDOF 6
ENDMDL
MODEL 8
REMARK VINA RESULT:    -6.047      4.016      5.961
REMARK INTER + INTRA:          -8.600
REMARK INTER:                  -8.064
REMARK INTRA:                  -0.536
REMARK UNBOUND:                -0.608
REMARK  Name = 
REMARK  6 active torsions:
REMARK  status: ('A' for Active; 'I' for Inactive)
REMARK    1  A    between atoms: N_1  and  C_2
REMARK    2  A    between atoms: C_2  and  C_3
REMARK    3  A    between atoms: C_7  and  C_8
REMARK    4  A    between atoms: C_8  and  C_9
REMARK    5  A    between atoms: C_9  and  N_10
REMARK    6  A    between atoms: C_14  and  C_15
REMARK                            x       y       z     vdW  Elec       q    Type
REMARK                         _______ _______ _______ _____ _____    ______ ____
ROOT
ATOM      1  N   UNL     1      47.261   7.580  13.655  0.00  0.00    +0.000 N 
ATOM      2  C   UNL     1      46.418   6.542  13.211  0.00  0.00    +0.000 A 
ATOM      3  C   UNL     1      45.157   6.865  12.714  0.00  0.00    +0.000 A 
ATOM      4  C   UNL     1      44.305   5.841  12.282  0.00  0.00    +0.000 A 
ATOM      5  C   UNL     1      44.726   4.512  12.353  0.00  0.00    +0.000 A 
ATOM      6  C   UNL     1      45.987   4.283  12.873  0.00  0.00    +0.000 A 
ATOM      7  N   UNL     1      46.824   5.260  13.301  0.00  0.00    +0.000 NA
ATOM      8  H   UNL     1      47.366   8.254  12.901  0.00  0.00    +0.000 HD
ENDROOT
BRANCH   5   9
ATOM      9  C   UNL     1      43.829   3.430  11.885  0.00  0.00    +0.000 C 
ATOM     10  N   UNL     1      43.720   2.286  12.629  0.00  0.00    +0.000 N 
ATOM     11  O   UNL     1      43.191   3.544  10.844  0.00  0.00    +0.000 OA
ATOM     12  H   UNL     1      44.207   2.083  13.486  0.00  0.00    +0.000 HD
ATOM     13  H   UNL     1      43.102   1.569  12.266  0.00  0.00    +0.000 HD
ENDBRANCH   5   9
BRANCH   1  14
ATOM     14  C   UNL     1      48.555   7.086  14.143  0.00  0.00    +0.000 C 
BRANCH  14  15
ATOM     15  C   UNL     1      48.754   7.419  15.626  0.00  0.00    +0.000 C 
BRANCH  15  20
ATOM     16  C   UNL     1      48.818   3.934  17.207  0.00  0.00    +0.000 A 
ATOM     17  C   UNL     1      50.145   3.873  17.651  0.00  0.00    +0.000 A 
ATOM     18  C   UNL     1      51.004   4.958  17.474  0.00  0.00    +0.000 A 
ATOM     19  C   UNL     1      50.551   6.115  16.841  0.00  0.00    +0.000 A 
ATOM     20  C   UNL     1      49.228   6.202  16.389  0.00  0.00    +0.000 A 
ATOM     21  C   UNL     1      48.369   5.108  16.581  0.00  0.00    +0.000 A 
BRANCH  16  22
ATOM     22  C   UNL     1      47.911   2.733  17.328  0.00  0.00    +0.000 C 
BRANCH  22  23
ATOM     23  N   UNL     1      46.531   3.107  17.616  0.00  0.00    +0.000 NA
ATOM     24  H   UNL     1      46.197   3.726  16.880  0.00  0.00    +0.000 HD
ATOM     25  H   UNL     1      46.514   3.651  18.478  0.00  0.00    +0.000 HD
ENDBRANCH  22  23
ENDBRANCH  16  22
ENDBRANCH  15  20
ENDBRANCH  14  15
ENDBRANCH   1  14
TORSDOF 6
ENDMDL
MODEL 9
REMARK VINA RESULT:    -5.888      4.250      8.452
REMARK INTER + INTRA:          -8.389
REMARK INTER:                  -8.045
REMARK INTRA:                  -0.344
REMARK UNBOUND:                -0.608
REMARK  Name = 
REMARK  6 active torsions:
REMARK  status: ('A' for Active; 'I' for Inactive)
REMARK    1  A    between atoms: N_1  and  C_2
REMARK    2  A    between atoms: C_2  and  C_3
REMARK    3  A    between atoms: C_7  and  C_8
REMARK    4  A    between atoms: C_8  and  C_9
REMARK    5  A    between atoms: C_9  and  N_10
REMARK    6  A    between atoms: C_14  and  C_15
REMARK                            x       y       z     vdW  Elec       q    Type
REMARK                         _______ _______ _______ _____ _____    ______ ____
ROOT
ATOM      1  N   UNL     1      46.883   3.589  14.907  0.00  0.00    +0.000 N 
ATOM      2  C   UNL     1      47.590   3.829  16.102  0.00  0.00    +0.000 A 
ATOM      3  C   UNL     1      47.546   2.872  17.114  0.00  0.00    +0.000 A 
ATOM      4  C   UNL     1      48.234   3.104  18.310  0.00  0.00    +0.000 A 
ATOM      5  C   UNL     1      48.954   4.288  18.478  0.00  0.00    +0.000 A 
ATOM      6  C   UNL     1      48.930   5.188  17.428  0.00  0.00    +0.000 A 
ATOM      7  N   UNL     1      48.267   4.983  16.264  0.00  0.00    +0.000 NA
ATOM      8  H   UNL     1      47.184   2.695  14.529  0.00  0.00    +0.000 HD
ENDROOT
BRANCH   5   9
ATOM      9  C   UNL     1      49.691   4.529  19.740  0.00  0.00    +0.000 C 
ATOM     10  N   UNL     1      51.051   4.370  19.759  0.00  0.00    +0.000 N 
ATOM     11  O   UNL     1      49.102   4.861  20.763  0.00  0.00    +0.000 OA
ATOM     12  H   UNL     1      51.629   4.087  18.985  0.00  0.00    +0.000 HD
ATOM     13  H   UNL     1      51.512   4.537  20.645  0.00  0.00    +0.000 HD
ENDBRANCH   5   9
BRANCH   1  14
ATOM     14  C   UNL     1      47.029   4.682  13.936  0.00  0.00    +0.000 C 
BRANCH  14  15
ATOM     15  C   UNL     1      45.671   5.302  13.589  0.00  0.00    +0.000 C 
BRANCH  15  20
ATOM     16  C   UNL     1      44.842   3.794  10.170  0.00  0.00    +0.000 A 
ATOM     17  C   UNL     1      43.820   2.901  10.519  0.00  0.00    +0.000 A 
ATOM     18  C   UNL     1      43.377   2.809  11.839  0.00  0.00    +0.000 A 
ATOM     19  C   UNL     1      43.957   3.601  12.829  0.00  0.00    +0.000 A 
ATOM     20  C   UNL     1      44.979   4.502  12.507  0.00  0.00    +0.000 A 
ATOM     21  C   UNL     1      45.411   4.594  11.173  0.00  0.00    +0.000 A 
BRANCH  16  22
ATOM     22  C   UNL     1      45.375   3.837   8.759  0.00  0.00    +0.000 C 
BRANCH  22  23
ATOM     23  N   UNL     1      45.900   5.151   8.405  0.00  0.00    +0.000 NA
ATOM     24  H   UNL     1      46.516   5.054   7.600  0.00  0.00    +0.000 HD
ATOM     25  H   UNL     1      46.480   5.487   9.172  0.00  0.00    +0.000 HD
ENDBRANCH  22  23
ENDBRANCH  16  22
ENDBRANCH  15  20
ENDBRANCH  14  15
ENDBRANCH   1  14
TORSDOF 6
ENDMDL
