MODEL 1
REMARK VINA RESULT:    -7.326      0.000      0.000
REMARK INTER + INTRA:         -10.247
REMARK INTER:                  -9.467
REMARK INTRA:                  -0.780
REMARK UNBOUND:                -0.780
REMARK  Name = 
REMARK  5 active torsions:
REMARK  status: ('A' for Active; 'I' for Inactive)
REMARK    1  A    between atoms: C_2  and  C_4
REMARK    2  A    between atoms: C_9  and  C_10
REMARK    3  A    between atoms: C_10  and  N_11
REMARK    4  A    between atoms: N_11  and  C_12
REMARK    5  A    between atoms: C_17  and  N_18
REMARK                            x       y       z     vdW  Elec       q    Type
REMARK                         _______ _______ _______ _____ _____    ______ ____
ROOT
ATOM      1  N   UNL     1      44.849   6.516  10.491  0.00  0.00    +0.000 N 
ATOM      2  H   UNL     1      44.370   7.075   9.788  0.00  0.00    +0.000 HD
ENDROOT
BRANCH   1   3
ATOM      3  C   UNL     1      44.718   5.147  10.257  0.00  0.00    +0.000 A 
ATOM      4  C   UNL     1      43.961   4.393  11.152  0.00  0.00    +0.000 A 
ATOM      5  C   UNL     1      43.724   3.048  10.900  0.00  0.00    +0.000 A 
ATOM      6  F   UNL     1      42.954   2.347  11.743  0.00  0.00    +0.000 F 
ATOM      7  C   UNL     1      44.267   2.416   9.786  0.00  0.00    +0.000 A 
ATOM      8  C   UNL     1      45.090   3.115   8.899  0.00  0.00    +0.000 A 
ATOM      9  C   UNL     1      45.283   4.487   9.155  0.00  0.00    +0.000 A 
BRANCH   8  10
ATOM     10  N   UNL     1      45.694   2.486   7.828  0.00  0.00    +0.000 N 
ATOM     11  C   UNL     1      46.045   1.058   7.851  0.00  0.00    +0.000 C 
ATOM     12  C   UNL     1      47.561   0.864   7.637  0.00  0.00    +0.000 C 
ATOM     13  N   UNL     1      48.066   1.529   6.416  0.00  0.00    +0.000 NA
ATOM     14  C   UNL     1      47.724   2.968   6.490  0.00  0.00    +0.000 C 
ATOM     15  C   UNL     1      46.212   3.248   6.683  0.00  0.00    +0.000 C 
ATOM     16  H   UNL     1      47.571   1.132   5.617  0.00  0.00    +0.000 HD
ENDBRANCH   8  10
ENDBRANCH   1   3
BRANCH   1  17
ATOM     17  C   UNL     1      44.722   7.043  11.842  0.00  0.00    +0.000 C 
BRANCH  17  23
ATOM     18  C   UNL     1      47.435   5.567  14.104  0.00  0.00    +0.000 A 
ATOM     19  C   UNL     1      48.498   6.444  13.872  0.00  0.00    +0.000 A 
ATOM     20  C   UNL     1      48.322   7.514  12.998  0.00  0.00    +0.000 A 
ATOM     21 CL   UNL     1      49.629   8.591  12.695  0.00  0.00    +0.000 Cl
ATOM     22  C   UNL     1      47.101   7.714  12.358  0.00  0.00    +0.000 A 
ATOM     23  C   UNL     1      46.025   6.836  12.579  0.00  0.00    +0.000 A 
ATOM     24  C   UNL     1      46.208   5.752  13.446  0.00  0.00    +0.000 A 
BRANCH  18  26
ATOM     25  N   UNL     1      47.216   3.179  14.533  0.00  0.00    +0.000 N 
ATOM     26  C   UNL     1      47.579   4.404  15.014  0.00  0.00    +0.000 C 
ATOM     27  O   UNL     1      48.045   4.530  16.141  0.00  0.00    +0.000 OA
ATOM     28  H   UNL     1      47.412   2.384  15.129  0.00  0.00    +0.000 HD
ATOM     29  H   UNL     1      47.061   2.997  13.551  0.00  0.00    +0.000 HD
ENDBRANCH  18  26
ENDBRANCH  17  23
ENDBRANCH   1  17
TORSDOF 5
ENDMDL
MODEL 2
REMARK VINA RESULT:    -7.253      2.264      3.295
REMARK INTER + INTRA:         -10.153
REMARK INTER:                  -9.163
REMARK INTRA:                  -0.990
REMARK UNBOUND:                -0.780
REMARK  Name = 
REMARK  5 active torsions:
REMARK  status: ('A' for Active; 'I' for Inactive)
REMARK    1  A    between atoms: C_2  and  C_4
REMARK    2  A    between atoms: C_9  and  C_10
REMARK    3  A    between atoms: C_10  and  N_11
REMARK    4  A    between atoms: N_11  and  C_12
REMARK    5  A    between atoms: C_17  and  N_18
REMARK                            x       y       z     vdW  Elec       q    Type
REMARK                         _______ _______ _______ _____ _____    ______ ____
ROOT
ATOM      1  N   UNL     1      46.471   4.032  13.592  0.00  0.00    +0.000 N 
ATOM      2  H   UNL     1      47.317   3.568  13.270  0.00  0.00    +0.000 HD
ENDROOT
BRANCH   1   3
ATOM      3  C   UNL     1      45.469   4.036  12.621  0.00  0.00    +0.000 A 
ATOM      4  C   UNL     1      44.224   4.564  12.960  0.00  0.00    +0.000 A 
ATOM      5  C   UNL     1      43.233   4.678  11.993  0.00  0.00    +0.000 A 
ATOM      6  F   UNL     1      42.057   5.233  12.319  0.00  0.00    +0.000 F 
ATOM      7  C   UNL     1      43.439   4.233  10.691  0.00  0.00    +0.000 A 
ATOM      8  C   UNL     1      44.647   3.633  10.325  0.00  0.00    +0.000 A 
ATOM      9  C   UNL     1      45.650   3.564  11.313  0.00  0.00    +0.000 A 
BRANCH   8  10
ATOM     10  N   UNL     1      44.842   3.121   9.058  0.00  0.00    +0.000 N 
ATOM     11  C   UNL     1      44.970   1.678   8.803  0.00  0.00    +0.000 C 
ATOM     12  C   UNL     1      46.326   1.357   8.142  0.00  0.00    +0.000 C 
ATOM     13  N   UNL     1      46.580   2.150   6.920  0.00  0.00    +0.000 NA
ATOM     14  C   UNL     1      46.489   3.586   7.265  0.00  0.00    +0.000 C 
ATOM     15  C   UNL     1      45.143   3.995   7.915  0.00  0.00    +0.000 C 
ATOM     16  H   UNL     1      45.836   1.942   6.253  0.00  0.00    +0.000 HD
ENDBRANCH   8  10
ENDBRANCH   1   3
BRANCH   1  17
ATOM     17  C   UNL     1      46.725   5.225  14.388  0.00  0.00    +0.000 C 
BRANCH  17  23
ATOM     18  C   UNL     1      46.742   8.488  12.387  0.00  0.00    +0.000 A 
ATOM     19  C   UNL     1      48.020   8.460  11.821  0.00  0.00    +0.000 A 
ATOM     20  C   UNL     1      48.857   7.378  12.079  0.00  0.00    +0.000 A 
ATOM     21 CL   UNL     1      50.437   7.341  11.398  0.00  0.00    +0.000 Cl
ATOM     22  C   UNL     1      48.433   6.330  12.892  0.00  0.00    +0.000 A 
ATOM     23  C   UNL     1      47.152   6.349  13.472  0.00  0.00    +0.000 A 
ATOM     24  C   UNL     1      46.316   7.444  13.224  0.00  0.00    +0.000 A 
BRANCH  18  26
ATOM     25  N   UNL     1      44.598   9.582  12.760  0.00  0.00    +0.000 N 
ATOM     26  C   UNL     1      45.821   9.627  12.154  0.00  0.00    +0.000 C 
ATOM     27  O   UNL     1      46.157  10.592  11.477  0.00  0.00    +0.000 OA
ATOM     28  H   UNL     1      44.020  10.409  12.671  0.00  0.00    +0.000 HD
ATOM     29  H   UNL     1      44.377   8.937  13.506  0.00  0.00    +0.000 HD
ENDBRANCH  18  26
ENDBRANCH  17  23
ENDBRANCH   1  17
TORSDOF 5
ENDMDL
MODEL 3
REMARK VINA RESULT:    -7.019      3.429      5.171
REMARK INTER + INTRA:          -9.850
REMARK INTER:                  -9.125
REMARK INTRA:                  -0.725
REMARK UNBOUND:                -0.780
REMARK  Name = 
REMARK  5 active torsions:
REMARK  status: ('A' for Active; 'I' for Inactive)
REMARK    1  A    between atoms: C_2  and  C_4
REMARK    2  A    between atoms: C_9  and  C_10
REMARK    3  A    between atoms: C_10  and  N_11
REMARK    4  A    between atoms: N_11  and  C_12
REMARK    5  A    between atoms: C_17  and  N_18
REMARK                            x       y       z     vdW  Elec       q    Type
REMARK                         _______ _______ _______ _____ _____    ______ ____
ROOT
ATOM      1  N   UNL     1      47.174   3.512  15.069  0.00  0.00    +0.000 N 
ATOM      2  H   UNL     1      48.027   2.987  14.891  0.00  0.00    +0.000 HD
ENDROOT
BRANCH   1   3
ATOM      3  C   UNL     1      46.860   4.383  14.025  0.00  0.00    +0.000 A 
ATOM      4  C   UNL     1      47.393   5.670  14.056  0.00  0.00    +0.000 A 
ATOM      5  C   UNL     1      47.187   6.533  12.988  0.00  0.00    +0.000 A 
ATOM      6  F   UNL     1      47.746   7.750  13.008  0.00  0.00    +0.000 F 
ATOM      7  C   UNL     1      46.415   6.155  11.893  0.00  0.00    +0.000 A 
ATOM      8  C   UNL     1      45.803   4.899  11.851  0.00  0.00    +0.000 A 
ATOM      9  C   UNL     1      46.060   4.028  12.929  0.00  0.00    +0.000 A 
BRANCH   8  10
ATOM     10  N   UNL     1      44.977   4.535  10.806  0.00  0.00    +0.000 N 
ATOM     11  C   UNL     1      44.054   3.394  10.894  0.00  0.00    +0.000 C 
ATOM     12  C   UNL     1      44.364   2.353   9.798  0.00  0.00    +0.000 C 
ATOM     13  N   UNL     1      44.387   2.930   8.437  0.00  0.00    +0.000 NA
ATOM     14  C   UNL     1      45.375   4.033   8.412  0.00  0.00    +0.000 C 
ATOM     15  C   UNL     1      45.119   5.134   9.471  0.00  0.00    +0.000 C 
ATOM     16  H   UNL     1      43.467   3.332   8.253  0.00  0.00    +0.000 HD
ENDBRANCH   8  10
ENDBRANCH   1   3
BRANCH   1  17
ATOM     17  C   UNL     1      47.033   3.946  16.452  0.00  0.00    +0.000 C 
BRANCH  17  23
ATOM     18  C   UNL     1      50.573   3.111  17.644  0.00  0.00    +0.000 A 
ATOM     19  C   UNL     1      50.979   4.334  18.187  0.00  0.00    +0.000 A 
ATOM     20  C   UNL     1      50.097   5.411  18.177  0.00  0.00    +0.000 A 
ATOM     21 CL   UNL     1      50.592   6.924  18.831  0.00  0.00    +0.000 Cl
ATOM     22  C   UNL     1      48.822   5.280  17.632  0.00  0.00    +0.000 A 
ATOM     23  C   UNL     1      48.404   4.057  17.078  0.00  0.00    +0.000 A 
ATOM     24  C   UNL     1      49.296   2.978  17.076  0.00  0.00    +0.000 A 
BRANCH  18  26
ATOM     25  N   UNL     1      52.541   1.944  18.481  0.00  0.00    +0.000 N 
ATOM     26  C   UNL     1      51.483   1.939  17.618  0.00  0.00    +0.000 C 
ATOM     27  O   UNL     1      51.272   0.984  16.879  0.00  0.00    +0.000 OA
ATOM     28  H   UNL     1      53.094   1.096  18.520  0.00  0.00    +0.000 HD
ATOM     29  H   UNL     1      52.612   2.583  19.261  0.00  0.00    +0.000 HD
ENDBRANCH  18  26
ENDBRANCH  17  23
ENDBRANCH   1  17
TORSDOF 5
ENDMDL
MODEL 4
REMARK VINA RESULT:    -7.007      2.350      2.772
REMARK INTER + INTRA:          -9.834
REMARK INTER:                  -9.068
REMARK INTRA:                  -0.766
REMARK UNBOUND:                -0.780
REMARK  Name = 
REMARK  5 active torsions:
REMARK  status: ('A' for Active; 'I' for Inactive)
REMARK    1  A    between atoms: C_2  and  C_4
REMARK    2  A    between atoms: C_9  and  C_10
REMARK    3  A    between atoms: C_10  and  N_11
REMARK    4  A    between atoms: N_11  and  C_12
REMARK    5  A    between atoms: C_17  and  N_18
REMARK                            x       y       z     vdW  Elec       q    Type
REMARK                         _______ _______ _______ _____ _____    ______ ____
ROOT
ATOM      1  N   UNL     1      45.052   6.725  10.849  0.00  0.00    +0.000 N 
ATOM      2  H   UNL     1      44.357   7.256  10.328  0.00  0.00    +0.000 HD
ENDROOT
BRANCH   1   3
ATOM      3  C   UNL     1      44.921   5.349  10.656  0.00  0.00    +0.000 A 
ATOM      4  C   UNL     1      44.320   4.596  11.663  0.00  0.00    +0.000 A 
ATOM      5  C   UNL     1      44.081   3.242  11.467  0.00  0.00    +0.000 A 
ATOM      6  F   UNL     1      43.458   2.539  12.423  0.00  0.00    +0.000 F 
ATOM      7  C   UNL     1      44.471   2.602  10.295  0.00  0.00    +0.000 A 
ATOM      8  C   UNL     1      45.139   3.303   9.287  0.00  0.00    +0.000 A 
ATOM      9  C   UNL     1      45.336   4.683   9.493  0.00  0.00    +0.000 A 
BRANCH   8  10
ATOM     10  N   UNL     1      45.596   2.668   8.149  0.00  0.00    +0.000 N 
ATOM     11  C   UNL     1      45.636   1.203   8.028  0.00  0.00    +0.000 C 
ATOM     12  C   UNL     1      47.076   0.715   7.765  0.00  0.00    +0.000 C 
ATOM     13  N   UNL     1      47.711   1.374   6.604  0.00  0.00    +0.000 NA
ATOM     14  C   UNL     1      47.683   2.838   6.822  0.00  0.00    +0.000 C 
ATOM     15  C   UNL     1      46.265   3.412   7.072  0.00  0.00    +0.000 C 
ATOM     16  H   UNL     1      47.143   1.171   5.781  0.00  0.00    +0.000 HD
ENDBRANCH   8  10
ENDBRANCH   1   3
BRANCH   1  17
ATOM     17  C   UNL     1      45.315   7.256  12.179  0.00  0.00    +0.000 C 
BRANCH  17  23
ATOM     18  C   UNL     1      48.931   8.487  11.922  0.00  0.00    +0.000 A 
ATOM     19  C   UNL     1      48.755   9.874  11.941  0.00  0.00    +0.000 A 
ATOM     20  C   UNL     1      47.469  10.396  12.053  0.00  0.00    +0.000 A 
ATOM     21 CL   UNL     1      47.240  12.102  12.062  0.00  0.00    +0.000 Cl
ATOM     22  C   UNL     1      46.365   9.553  12.145  0.00  0.00    +0.000 A 
ATOM     23  C   UNL     1      46.528   8.156  12.122  0.00  0.00    +0.000 A 
ATOM     24  C   UNL     1      47.820   7.631  11.995  0.00  0.00    +0.000 A 
BRANCH  18  26
ATOM     25  N   UNL     1      51.118   7.969  12.864  0.00  0.00    +0.000 N 
ATOM     26  C   UNL     1      50.280   7.883  11.789  0.00  0.00    +0.000 C 
ATOM     27  O   UNL     1      50.616   7.293  10.769  0.00  0.00    +0.000 OA
ATOM     28  H   UNL     1      51.995   7.469  12.792  0.00  0.00    +0.000 HD
ATOM     29  H   UNL     1      50.802   8.226  13.789  0.00  0.00    +0.000 HD
ENDBRANCH  18  26
ENDBRANCH  17  23
ENDBRANCH   1  17
TORSDOF 5
ENDMDL
MODEL 5
REMARK VINA RESULT:    -6.979      3.516      5.422
REMARK INTER + INTRA:          -9.798
REMARK INTER:                  -8.935
REMARK INTRA:                  -0.863
REMARK UNBOUND:                -0.780
REMARK  Name = 
REMARK  5 active torsions:
REMARK  status: ('A' for Active; 'I' for Inactive)
REMARK    1  A    between atoms: C_2  and  C_4
REMARK    2  A    between atoms: C_9  and  C_10
REMARK    3  A    between atoms: C_10  and  N_11
REMARK    4  A    between atoms: N_11  and  C_12
REMARK    5  A    between atoms: C_17  and  N_18
REMARK                            x       y       z     vdW  Elec       q    Type
REMARK                         _______ _______ _______ _____ _____    ______ ____
ROOT
ATOM      1  N   UNL     1      49.053   7.224  14.196  0.00  0.00    +0.000 N 
ATOM      2  H   UNL     1      49.742   7.673  13.597  0.00  0.00    +0.000 HD
ENDROOT
BRANCH   1   3
ATOM      3  C   UNL     1      47.794   7.159  13.599  0.00  0.00    +0.000 A 
ATOM      4  C   UNL     1      46.997   8.303  13.613  0.00  0.00    +0.000 A 
ATOM      5  C   UNL     1      45.781   8.308  12.943  0.00  0.00    +0.000 A 
ATOM      6  F   UNL     1      45.047   9.430  12.923  0.00  0.00    +0.000 F 
ATOM      7  C   UNL     1      45.312   7.174  12.287  0.00  0.00    +0.000 A 
ATOM      8  C   UNL     1      46.045   5.985  12.306  0.00  0.00    +0.000 A 
ATOM      9  C   UNL     1      47.293   6.015  12.959  0.00  0.00    +0.000 A 
BRANCH   8  10
ATOM     10  N   UNL     1      45.561   4.831  11.722  0.00  0.00    +0.000 N 
ATOM     11  C   UNL     1      45.111   4.787  10.323  0.00  0.00    +0.000 C 
ATOM     12  C   UNL     1      43.633   4.352  10.236  0.00  0.00    +0.000 C 
ATOM     13  N   UNL     1      43.360   3.078  10.936  0.00  0.00    +0.000 NA
ATOM     14  C   UNL     1      43.788   3.216  12.347  0.00  0.00    +0.000 C 
ATOM     15  C   UNL     1      45.271   3.631  12.519  0.00  0.00    +0.000 C 
ATOM     16  H   UNL     1      43.937   2.356  10.505  0.00  0.00    +0.000 HD
ENDBRANCH   8  10
ENDBRANCH   1   3
BRANCH   1  17
ATOM     17  C   UNL     1      49.179   7.584  15.602  0.00  0.00    +0.000 C 
BRANCH  17  23
ATOM     18  C   UNL     1      48.972   4.298  17.554  0.00  0.00    +0.000 A 
ATOM     19  C   UNL     1      50.323   4.038  17.805  0.00  0.00    +0.000 A 
ATOM     20  C   UNL     1      51.286   4.937  17.355  0.00  0.00    +0.000 A 
ATOM     21 CL   UNL     1      52.951   4.620  17.647  0.00  0.00    +0.000 Cl
ATOM     22  C   UNL     1      50.915   6.085  16.660  0.00  0.00    +0.000 A 
ATOM     23  C   UNL     1      49.560   6.356  16.395  0.00  0.00    +0.000 A 
ATOM     24  C   UNL     1      48.594   5.444  16.836  0.00  0.00    +0.000 A 
BRANCH  18  26
ATOM     25  N   UNL     1      48.067   2.767  19.219  0.00  0.00    +0.000 N 
ATOM     26  C   UNL     1      47.911   3.361  18.000  0.00  0.00    +0.000 C 
ATOM     27  O   UNL     1      46.911   3.159  17.319  0.00  0.00    +0.000 OA
ATOM     28  H   UNL     1      47.290   2.209  19.551  0.00  0.00    +0.000 HD
ATOM     29  H   UNL     1      48.739   3.085  19.904  0.00  0.00    +0.000 HD
ENDBRANCH  18  26
ENDBRANCH  17  23
ENDBRANCH   1  17
TORSDOF 5
ENDMDL
MODEL 6
REMARK VINA RESULT:    -6.916      3.285      4.912
REMARK INTER + INTRA:          -9.717
REMARK INTER:                  -8.779
REMARK INTRA:                  -0.938
REMARK UNBOUND:                -0.780
REMARK  Name = 
REMARK  5 active torsions:
REMARK  status: ('A' for Active; 'I' for Inactive)
REMARK    1  A    between atoms: C_2  and  C_4
REMARK    2  A    between atoms: C_9  and  C_10
REMARK    3  A    between atoms: C_10  and  N_11
REMARK    4  A    between atoms: N_11  and  C_12
REMARK    5  A    between atoms: C_17  and  N_18
REMARK                            x       y       z     vdW  Elec       q    Type
REMARK                         _______ _______ _______ _____ _____    ______ ____
ROOT
ATOM      1  N   UNL     1      48.477   6.697  13.321  0.00  0.00    +0.000 N 
ATOM      2  H   UNL     1      49.155   6.592  12.570  0.00  0.00    +0.000 HD
ENDROOT
BRANCH   1   3
ATOM      3  C   UNL     1      47.188   6.933  12.842  0.00  0.00    +0.000 A 
ATOM      4  C   UNL     1      46.709   8.242  12.853  0.00  0.00    +0.000 A 
ATOM      5  C   UNL     1      45.472   8.532  12.293  0.00  0.00    +0.000 A 
ATOM      6  F   UNL     1      45.044   9.802  12.266  0.00  0.00    +0.000 F 
ATOM      7  C   UNL     1      44.670   7.531  11.754  0.00  0.00    +0.000 A 
ATOM      8  C   UNL     1      45.080   6.195  11.784  0.00  0.00    +0.000 A 
ATOM      9  C   UNL     1      46.355   5.931  12.323  0.00  0.00    +0.000 A 
BRANCH   8  10
ATOM     10  N   UNL     1      44.266   5.181  11.319  0.00  0.00    +0.000 N 
ATOM     11  C   UNL     1      43.268   4.520  12.172  0.00  0.00    +0.000 C 
ATOM     12  C   UNL     1      43.545   3.005  12.265  0.00  0.00    +0.000 C 
ATOM     13  N   UNL     1      43.650   2.351  10.943  0.00  0.00    +0.000 NA
ATOM     14  C   UNL     1      44.708   3.033  10.164  0.00  0.00    +0.000 C 
ATOM     15  C   UNL     1      44.490   4.559  10.006  0.00  0.00    +0.000 C 
ATOM     16  H   UNL     1      42.765   2.490  10.455  0.00  0.00    +0.000 HD
ENDBRANCH   8  10
ENDBRANCH   1   3
BRANCH   1  17
ATOM     17  C   UNL     1      48.983   7.448  14.462  0.00  0.00    +0.000 C 
BRANCH  17  23
ATOM     18  C   UNL     1      48.168   4.603  16.890  0.00  0.00    +0.000 A 
ATOM     19  C   UNL     1      48.247   5.258  18.123  0.00  0.00    +0.000 A 
ATOM     20  C   UNL     1      48.548   6.617  18.155  0.00  0.00    +0.000 A 
ATOM     21 CL   UNL     1      48.662   7.430  19.667  0.00  0.00    +0.000 Cl
ATOM     22  C   UNL     1      48.768   7.323  16.975  0.00  0.00    +0.000 A 
ATOM     23  C   UNL     1      48.697   6.675  15.729  0.00  0.00    +0.000 A 
ATOM     24  C   UNL     1      48.409   5.305  15.699  0.00  0.00    +0.000 A 
BRANCH  18  26
ATOM     25  N   UNL     1      46.921   2.655  17.657  0.00  0.00    +0.000 N 
ATOM     26  C   UNL     1      47.866   3.152  16.806  0.00  0.00    +0.000 C 
ATOM     27  O   UNL     1      48.414   2.434  15.977  0.00  0.00    +0.000 OA
ATOM     28  H   UNL     1      46.657   1.687  17.521  0.00  0.00    +0.000 HD
ATOM     29  H   UNL     1      46.284   3.243  18.176  0.00  0.00    +0.000 HD
ENDBRANCH  18  26
ENDBRANCH  17  23
ENDBRANCH   1  17
TORSDOF 5
ENDMDL
MODEL 7
REMARK VINA RESULT:    -6.698      4.516      8.909
REMARK INTER + INTRA:          -9.435
REMARK INTER:                  -8.739
REMARK INTRA:                  -0.696
REMARK UNBOUND:                -0.780
REMARK  Name = 
REMARK  5 active torsions:
REMARK  status: ('A' for Active; 'I' for Inactive)
REMARK    1  A    between atoms: C_2  and  C_4
REMARK    2  A    between atoms: C_9  and  C_10
REMARK    3  A    between atoms: C_10  and  N_11
REMARK    4  A    between atoms: N_11  and  C_12
REMARK    5  A    between atoms: C_17  and  N_18
REMARK                            x       y       z     vdW  Elec       q    Type
REMARK                         _______ _______ _______ _____ _____    ______ ____
ROOT
ATOM      1  N   UNL     1      46.656   3.919  15.410  0.00  0.00    +0.000 N 
ATOM      2  H   UNL     1      46.067   4.738  15.542  0.00  0.00    +0.000 HD
ENDROOT
BRANCH   1   3
ATOM      3  C   UNL     1      47.620   3.795  16.411  0.00  0.00    +0.000 A 
ATOM      4  C   UNL     1      48.541   2.753  16.315  0.00  0.00    +0.000 A 
ATOM      5  C   UNL     1      49.576   2.655  17.236  0.00  0.00    +0.000 A 
ATOM      6  F   UNL     1      50.483   1.677  17.104  0.00  0.00    +0.000 F 
ATOM      7  C   UNL     1      49.692   3.555  18.290  0.00  0.00    +0.000 A 
ATOM      8  C   UNL     1      48.751   4.574  18.466  0.00  0.00    +0.000 A 
ATOM      9  C   UNL     1      47.733   4.676  17.497  0.00  0.00    +0.000 A 
BRANCH   8  10
ATOM     10  N   UNL     1      48.811   5.431  19.547  0.00  0.00    +0.000 N 
ATOM     11  C   UNL     1      48.501   4.994  20.916  0.00  0.00    +0.000 C 
ATOM     12  C   UNL     1      47.334   5.815  21.502  0.00  0.00    +0.000 C 
ATOM     13  N   UNL     1      47.558   7.275  21.435  0.00  0.00    +0.000 NA
ATOM     14  C   UNL     1      47.808   7.647  20.024  0.00  0.00    +0.000 C 
ATOM     15  C   UNL     1      48.984   6.880  19.367  0.00  0.00    +0.000 C 
ATOM     16  H   UNL     1      48.403   7.486  21.967  0.00  0.00    +0.000 HD
ENDBRANCH   8  10
ENDBRANCH   1   3
BRANCH   1  17
ATOM     17  C   UNL     1      47.010   3.673  14.018  0.00  0.00    +0.000 C 
BRANCH  17  23
ATOM     18  C   UNL     1      44.789   5.977  11.917  0.00  0.00    +0.000 A 
ATOM     19  C   UNL     1      45.655   7.045  11.667  0.00  0.00    +0.000 A 
ATOM     20  C   UNL     1      46.954   7.002  12.167  0.00  0.00    +0.000 A 
ATOM     21 CL   UNL     1      48.023   8.319  11.876  0.00  0.00    +0.000 Cl
ATOM     22  C   UNL     1      47.392   5.909  12.910  0.00  0.00    +0.000 A 
ATOM     23  C   UNL     1      46.530   4.830  13.173  0.00  0.00    +0.000 A 
ATOM     24  C   UNL     1      45.219   4.881  12.683  0.00  0.00    +0.000 A 
BRANCH  18  26
ATOM     25  N   UNL     1      42.842   7.193  11.101  0.00  0.00    +0.000 N 
ATOM     26  C   UNL     1      43.391   5.984  11.419  0.00  0.00    +0.000 C 
ATOM     27  O   UNL     1      42.765   4.942  11.260  0.00  0.00    +0.000 OA
ATOM     28  H   UNL     1      41.926   7.173  10.672  0.00  0.00    +0.000 HD
ATOM     29  H   UNL     1      43.392   8.034  10.987  0.00  0.00    +0.000 HD
ENDBRANCH  18  26
ENDBRANCH  17  23
ENDBRANCH   1  17
TORSDOF 5
ENDMDL
MODEL 8
REMARK VINA RESULT:    -6.421      5.353      8.041
REMARK INTER + INTRA:          -9.078
REMARK INTER:                  -8.471
REMARK INTRA:                  -0.607
REMARK UNBOUND:                -0.780
REMARK  Name = 
REMARK  5 active torsions:
REMARK  status: ('A' for Active; 'I' for Inactive)
REMARK    1  A    between atoms: C_2  and  C_4
REMARK    2  A    between atoms: C_9  and  C_10
REMARK    3  A    between atoms: C_10  and  N_11
REMARK    4  A    between atoms: N_11  and  C_12
REMARK    5  A    between atoms: C_17  and  N_18
REMARK                            x       y       z     vdW  Elec       q    Type
REMARK                         _______ _______ _______ _____ _____    ______ ____
ROOT
ATOM      1  N   UNL     1      43.537   8.156  11.053  0.00  0.00    +0.000 N 
ATOM      2  H   UNL     1      43.270   7.427  10.395  0.00  0.00    +0.000 HD
ENDROOT
BRANCH   1   3
ATOM      3  C   UNL     1      43.083   9.415  10.660  0.00  0.00    +0.000 A 
ATOM      4  C   UNL     1      44.008  10.316  10.134  0.00  0.00    +0.000 A 
ATOM      5  C   UNL     1      43.580  11.541   9.639  0.00  0.00    +0.000 A 
ATOM      6  F   UNL     1      44.473  12.377   9.092  0.00  0.00    +0.000 F 
ATOM      7  C   UNL     1      42.241  11.914   9.696  0.00  0.00    +0.000 A 
ATOM      8  C   UNL     1      41.289  11.072  10.278  0.00  0.00    +0.000 A 
ATOM      9  C   UNL     1      41.742   9.819  10.738  0.00  0.00    +0.000 A 
BRANCH   8  10
ATOM     10  N   UNL     1      39.969  11.458  10.407  0.00  0.00    +0.000 N 
ATOM     11  C   UNL     1      38.980  10.643  11.128  0.00  0.00    +0.000 C 
ATOM     12  C   UNL     1      37.813  10.250  10.197  0.00  0.00    +0.000 C 
ATOM     13  N   UNL     1      37.183  11.410   9.532  0.00  0.00    +0.000 NA
ATOM     14  C   UNL     1      38.227  12.147   8.785  0.00  0.00    +0.000 C 
ATOM     15  C   UNL     1      39.427  12.598   9.656  0.00  0.00    +0.000 C 
ATOM     16  H   UNL     1      36.824  12.029  10.258  0.00  0.00    +0.000 HD
ENDBRANCH   8  10
ENDBRANCH   1   3
BRANCH   1  17
ATOM     17  C   UNL     1      44.882   7.996  11.588  0.00  0.00    +0.000 C 
BRANCH  17  23
ATOM     18  C   UNL     1      46.138   4.735  13.150  0.00  0.00    +0.000 A 
ATOM     19  C   UNL     1      45.540   3.781  12.321  0.00  0.00    +0.000 A 
ATOM     20  C   UNL     1      44.750   4.203  11.255  0.00  0.00    +0.000 A 
ATOM     21 CL   UNL     1      43.998   3.037  10.237  0.00  0.00    +0.000 Cl
ATOM     22  C   UNL     1      44.552   5.560  11.011  0.00  0.00    +0.000 A 
ATOM     23  C   UNL     1      45.143   6.529  11.841  0.00  0.00    +0.000 A 
ATOM     24  C   UNL     1      45.926   6.104  12.921  0.00  0.00    +0.000 A 
BRANCH  18  26
ATOM     25  N   UNL     1      47.256   5.289  15.242  0.00  0.00    +0.000 N 
ATOM     26  C   UNL     1      46.975   4.334  14.308  0.00  0.00    +0.000 C 
ATOM     27  O   UNL     1      47.366   3.180  14.443  0.00  0.00    +0.000 OA
ATOM     28  H   UNL     1      47.744   4.976  16.073  0.00  0.00    +0.000 HD
ATOM     29  H   UNL     1      46.762   6.169  15.295  0.00  0.00    +0.000 HD
ENDBRANCH  18  26
ENDBRANCH  17  23
ENDBRANCH   1  17
TORSDOF 5
ENDMDL
MODEL 9
REMARK VINA RESULT:    -6.395      4.507      9.146
REMARK INTER + INTRA:          -9.044
REMARK INTER:                  -8.406
REMARK INTRA:                  -0.637
REMARK UNBOUND:                -0.780
REMARK  Name = 
REMARK  5 active torsions:
REMARK  status: ('A' for Active; 'I' for Inactive)
REMARK    1  A    between atoms: C_2  and  C_4
REMARK    2  A    between atoms: C_9  and  C_10
REMARK    3  A    between atoms: C_10  and  N_11
REMARK    4  A    between atoms: N_11  and  C_12
REMARK    5  A    between atoms: C_17  and  N_18
REMARK                            x       y       z     vdW  Elec       q    Type
REMARK                         _______ _______ _______ _____ _____    ______ ____
ROOT
ATOM      1  N   UNL     1      46.677   4.079  15.398  0.00  0.00    +0.000 N 
ATOM      2  H   UNL     1      46.255   5.004  15.362  0.00  0.00    +0.000 HD
ENDROOT
BRANCH   1   3
ATOM      3  C   UNL     1      47.577   3.950  16.457  0.00  0.00    +0.000 A 
ATOM      4  C   UNL     1      48.431   2.848  16.467  0.00  0.00    +0.000 A 
ATOM      5  C   UNL     1      49.407   2.736  17.448  0.00  0.00    +0.000 A 
ATOM      6  F   UNL     1      50.253   1.698  17.418  0.00  0.00    +0.000 F 
ATOM      7  C   UNL     1      49.527   3.684  18.460  0.00  0.00    +0.000 A 
ATOM      8  C   UNL     1      48.647   4.768  18.529  0.00  0.00    +0.000 A 
ATOM      9  C   UNL     1      47.691   4.881  17.500  0.00  0.00    +0.000 A 
BRANCH   8  10
ATOM     10  N   UNL     1      48.706   5.679  19.565  0.00  0.00    +0.000 N 
ATOM     11  C   UNL     1      48.436   5.302  20.960  0.00  0.00    +0.000 C 
ATOM     12  C   UNL     1      47.260   6.120  21.531  0.00  0.00    +0.000 C 
ATOM     13  N   UNL     1      47.444   7.581  21.388  0.00  0.00    +0.000 NA
ATOM     14  C   UNL     1      47.655   7.889  19.956  0.00  0.00    +0.000 C 
ATOM     15  C   UNL     1      48.837   7.121  19.312  0.00  0.00    +0.000 C 
ATOM     16  H   UNL     1      48.293   7.838  21.891  0.00  0.00    +0.000 HD
ENDBRANCH   8  10
ENDBRANCH   1   3
BRANCH   1  17
ATOM     17  C   UNL     1      47.006   3.536  14.087  0.00  0.00    +0.000 C 
BRANCH  17  23
ATOM     18  C   UNL     1      45.120   6.167  12.044  0.00  0.00    +0.000 A 
ATOM     19  C   UNL     1      44.551   5.381  11.037  0.00  0.00    +0.000 A 
ATOM     20  C   UNL     1      44.770   4.006  11.039  0.00  0.00    +0.000 A 
ATOM     21 CL   UNL     1      44.085   3.032   9.796  0.00  0.00    +0.000 Cl
ATOM     22  C   UNL     1      45.547   3.412  12.030  0.00  0.00    +0.000 A 
ATOM     23  C   UNL     1      46.130   4.192  13.045  0.00  0.00    +0.000 A 
ATOM     24  C   UNL     1      45.921   5.576  13.035  0.00  0.00    +0.000 A 
BRANCH  18  26
ATOM     25  N   UNL     1      44.020   8.173  11.207  0.00  0.00    +0.000 N 
ATOM     26  C   UNL     1      44.928   7.638  12.076  0.00  0.00    +0.000 C 
ATOM     27  O   UNL     1      45.530   8.343  12.878  0.00  0.00    +0.000 OA
ATOM     28  H   UNL     1      43.830   9.163  11.308  0.00  0.00    +0.000 HD
ATOM     29  H   UNL     1      43.340   7.616  10.710  0.00  0.00    +0.000 HD
ENDBRANCH  18  26
ENDBRANCH  17  23
ENDBRANCH   1  17
TORSDOF 5
ENDMDL
