MODEL 1
REMARK VINA RESULT:    -8.478      0.000      0.000
REMARK INTER + INTRA:         -11.997
REMARK INTER:                 -10.956
REMARK INTRA:                  -1.040
REMARK UNBOUND:                -1.040
REMARK  Name = 
REMARK  6 active torsions:
REMARK  status: ('A' for Active; 'I' for Inactive)
REMARK    1  A    between atoms: C_1  and  N_2
REMARK    2  A    between atoms: C_7  and  C_8
REMARK    3  A    between atoms: C_8  and  C_9
REMARK    4  A    between atoms: C_12  and  C_13
REMARK    5  A    between atoms: C_13  and  N_14
REMARK    6  A    between atoms: C_15  and  C_17
REMARK                            x       y       z     vdW  Elec       q    Type
REMARK                         _______ _______ _______ _____ _____    ______ ____
ROOT
ATOM      1  C   UNL     1      44.803   5.885  11.016  0.00  0.00    +0.000 A 
ATOM      2  C   UNL     1      46.055   5.397  11.418  0.00  0.00    +0.000 A 
ATOM      3  C   UNL     1      46.881   6.155  12.253  0.00  0.00    +0.000 A 
ATOM      4  C   UNL     1      46.474   7.419  12.699  0.00  0.00    +0.000 A 
ATOM      5  C   UNL     1      45.254   7.935  12.240  0.00  0.00    +0.000 A 
ATOM      6  C   UNL     1      44.421   7.170  11.418  0.00  0.00    +0.000 A 
ENDROOT
BRANCH   1   7
ATOM      7  C   UNL     1      43.862   5.030  10.194  0.00  0.00    +0.000 C 
BRANCH   7  14
ATOM      8  C   UNL     1      47.052   3.061   5.472  0.00  0.00    +0.000 C 
ATOM      9  N   UNL     1      46.835   3.875   6.646  0.00  0.00    +0.000 N 
ATOM     10  C   UNL     1      46.013   3.396   7.655  0.00  0.00    +0.000 A 
ATOM     11  C   UNL     1      45.949   2.050   7.996  0.00  0.00    +0.000 A 
ATOM     12  C   UNL     1      45.123   1.649   9.039  0.00  0.00    +0.000 A 
ATOM     13  C   UNL     1      44.410   2.606   9.743  0.00  0.00    +0.000 A 
ATOM     14  C   UNL     1      44.537   3.944   9.378  0.00  0.00    +0.000 A 
ATOM     15  N   UNL     1      45.323   4.336   8.337  0.00  0.00    +0.000 NA
ATOM     16  H   UNL     1      46.571   4.842   6.478  0.00  0.00    +0.000 HD
ENDBRANCH   7  14
ENDBRANCH   1   7
BRANCH   4  17
ATOM     17  C   UNL     1      47.334   8.222  13.638  0.00  0.00    +0.000 C 
BRANCH  17  18
ATOM     18  N   UNL     1      47.691   7.459  14.805  0.00  0.00    +0.000 N 
ATOM     19  C   UNL     1      48.936   6.897  14.937  0.00  0.00    +0.000 C 
ATOM     20  O   UNL     1      49.814   7.057  14.091  0.00  0.00    +0.000 OA
ATOM     21  H   UNL     1      46.927   7.121  15.381  0.00  0.00    +0.000 HD
BRANCH  19  22
ATOM     22  C   UNL     1      49.189   6.161  16.177  0.00  0.00    +0.000 A 
ATOM     23  C   UNL     1      50.218   6.561  17.019  0.00  0.00    +0.000 A 
ATOM     24  S   UNL     1      50.320   5.648  18.456  0.00  0.00    +0.000 S 
ATOM     25  C   UNL     1      49.030   4.646  17.977  0.00  0.00    +0.000 A 
ATOM     26  N   UNL     1      48.606   3.624  18.767  0.00  0.00    +0.000 NA
ATOM     27  C   UNL     1      47.643   2.926  18.266  0.00  0.00    +0.000 A 
ATOM     28  N   UNL     1      47.064   3.157  17.043  0.00  0.00    +0.000 N 
ATOM     29  C   UNL     1      47.442   4.192  16.223  0.00  0.00    +0.000 A 
ATOM     30  O   UNL     1      46.883   4.392  15.150  0.00  0.00    +0.000 OA
ATOM     31  C   UNL     1      48.524   5.010  16.741  0.00  0.00    +0.000 A 
ATOM     32  H   UNL     1      46.312   2.574  16.708  0.00  0.00    +0.000 HD
ENDBRANCH  19  22
ENDBRANCH  17  18
ENDBRANCH   4  17
TORSDOF 5
ENDMDL
MODEL 2
REMARK VINA RESULT:    -7.837      2.041      2.553
REMARK INTER + INTRA:         -11.169
REMARK INTER:                 -10.130
REMARK INTRA:                  -1.039
REMARK UNBOUND:                -1.040
REMARK  Name = 
REMARK  6 active torsions:
REMARK  status: ('A' for Active; 'I' for Inactive)
REMARK    1  A    between atoms: C_1  and  N_2
REMARK    2  A    between atoms: C_7  and  C_8
REMARK    3  A    between atoms: C_8  and  C_9
REMARK    4  A    between atoms: C_12  and  C_13
REMARK    5  A    between atoms: C_13  and  N_14
REMARK    6  A    between atoms: C_15  and  C_17
REMARK                            x       y       z     vdW  Elec       q    Type
REMARK                         _______ _______ _______ _____ _____    ______ ____
ROOT
ATOM      1  C   UNL     1      45.074   5.830  11.382  0.00  0.00    +0.000 A 
ATOM      2  C   UNL     1      45.300   7.214  11.430  0.00  0.00    +0.000 A 
ATOM      3  C   UNL     1      46.279   7.748  12.272  0.00  0.00    +0.000 A 
ATOM      4  C   UNL     1      47.050   6.909  13.086  0.00  0.00    +0.000 A 
ATOM      5  C   UNL     1      46.777   5.534  13.089  0.00  0.00    +0.000 A 
ATOM      6  C   UNL     1      45.808   4.999  12.236  0.00  0.00    +0.000 A 
ENDROOT
BRANCH   1   7
ATOM      7  C   UNL     1      44.084   5.236  10.402  0.00  0.00    +0.000 C 
BRANCH   7  14
ATOM      8  C   UNL     1      47.081   3.114   5.621  0.00  0.00    +0.000 C 
ATOM      9  N   UNL     1      46.947   3.894   6.830  0.00  0.00    +0.000 N 
ATOM     10  C   UNL     1      46.060   3.472   7.808  0.00  0.00    +0.000 A 
ATOM     11  C   UNL     1      45.830   2.129   8.085  0.00  0.00    +0.000 A 
ATOM     12  C   UNL     1      44.947   1.783   9.101  0.00  0.00    +0.000 A 
ATOM     13  C   UNL     1      44.344   2.786   9.843  0.00  0.00    +0.000 A 
ATOM     14  C   UNL     1      44.635   4.114   9.543  0.00  0.00    +0.000 A 
ATOM     15  N   UNL     1      45.477   4.456   8.528  0.00  0.00    +0.000 NA
ATOM     16  H   UNL     1      46.803   4.892   6.705  0.00  0.00    +0.000 HD
ENDBRANCH   7  14
ENDBRANCH   1   7
BRANCH   4  17
ATOM     17  C   UNL     1      48.142   7.468  13.959  0.00  0.00    +0.000 C 
BRANCH  17  18
ATOM     18  N   UNL     1      48.008   7.019  15.320  0.00  0.00    +0.000 N 
ATOM     19  C   UNL     1      49.083   6.533  16.022  0.00  0.00    +0.000 C 
ATOM     20  O   UNL     1      50.213   6.502  15.537  0.00  0.00    +0.000 OA
ATOM     21  H   UNL     1      47.067   6.813  15.643  0.00  0.00    +0.000 HD
BRANCH  19  22
ATOM     22  C   UNL     1      48.826   6.124  17.404  0.00  0.00    +0.000 A 
ATOM     23  C   UNL     1      49.055   4.810  17.787  0.00  0.00    +0.000 A 
ATOM     24  S   UNL     1      48.785   4.525  19.448  0.00  0.00    +0.000 S 
ATOM     25  C   UNL     1      48.294   6.135  19.701  0.00  0.00    +0.000 A 
ATOM     26  N   UNL     1      47.907   6.564  20.932  0.00  0.00    +0.000 NA
ATOM     27  C   UNL     1      47.529   7.797  20.973  0.00  0.00    +0.000 A 
ATOM     28  N   UNL     1      47.502   8.643  19.892  0.00  0.00    +0.000 N 
ATOM     29  C   UNL     1      47.908   8.262  18.637  0.00  0.00    +0.000 A 
ATOM     30  O   UNL     1      47.903   9.050  17.699  0.00  0.00    +0.000 OA
ATOM     31  C   UNL     1      48.345   6.881  18.535  0.00  0.00    +0.000 A 
ATOM     32  H   UNL     1      47.197   9.600  19.991  0.00  0.00    +0.000 HD
ENDBRANCH  19  22
ENDBRANCH  17  18
ENDBRANCH   4  17
TORSDOF 5
ENDMDL
MODEL 3
REMARK VINA RESULT:    -7.811      1.878      2.293
REMARK INTER + INTRA:         -11.134
REMARK INTER:                 -10.394
REMARK INTRA:                  -0.741
REMARK UNBOUND:                -1.040
REMARK  Name = 
REMARK  6 active torsions:
REMARK  status: ('A' for Active; 'I' for Inactive)
REMARK    1  A    between atoms: C_1  and  N_2
REMARK    2  A    between atoms: C_7  and  C_8
REMARK    3  A    between atoms: C_8  and  C_9
REMARK    4  A    between atoms: C_12  and  C_13
REMARK    5  A    between atoms: C_13  and  N_14
REMARK    6  A    between atoms: C_15  and  C_17
REMARK                            x       y       z     vdW  Elec       q    Type
REMARK                         _______ _______ _______ _____ _____    ______ ____
ROOT
ATOM      1  C   UNL     1      45.454   5.690  11.562  0.00  0.00    +0.000 A 
ATOM      2  C   UNL     1      46.086   6.931  11.395  0.00  0.00    +0.000 A 
ATOM      3  C   UNL     1      47.156   7.303  12.214  0.00  0.00    +0.000 A 
ATOM      4  C   UNL     1      47.615   6.441  13.218  0.00  0.00    +0.000 A 
ATOM      5  C   UNL     1      46.939   5.232  13.430  0.00  0.00    +0.000 A 
ATOM      6  C   UNL     1      45.879   4.854  12.601  0.00  0.00    +0.000 A 
ENDROOT
BRANCH   1   7
ATOM      7  C   UNL     1      44.360   5.239  10.618  0.00  0.00    +0.000 C 
BRANCH   7  14
ATOM      8  C   UNL     1      46.914   3.102   5.592  0.00  0.00    +0.000 C 
ATOM      9  N   UNL     1      46.913   3.821   6.845  0.00  0.00    +0.000 N 
ATOM     10  C   UNL     1      46.030   3.436   7.842  0.00  0.00    +0.000 A 
ATOM     11  C   UNL     1      45.674   2.110   8.059  0.00  0.00    +0.000 A 
ATOM     12  C   UNL     1      44.804   1.797   9.097  0.00  0.00    +0.000 A 
ATOM     13  C   UNL     1      44.341   2.812   9.919  0.00  0.00    +0.000 A 
ATOM     14  C   UNL     1      44.755   4.119   9.675  0.00  0.00    +0.000 A 
ATOM     15  N   UNL     1      45.583   4.431   8.640  0.00  0.00    +0.000 NA
ATOM     16  H   UNL     1      46.867   4.835   6.780  0.00  0.00    +0.000 HD
ENDBRANCH   7  14
ENDBRANCH   1   7
BRANCH   4  17
ATOM     17  C   UNL     1      48.799   6.810  14.072  0.00  0.00    +0.000 C 
BRANCH  17  18
ATOM     18  N   UNL     1      48.415   7.004  15.446  0.00  0.00    +0.000 N 
ATOM     19  C   UNL     1      49.220   6.590  16.478  0.00  0.00    +0.000 C 
ATOM     20  O   UNL     1      50.321   6.080  16.277  0.00  0.00    +0.000 OA
ATOM     21  H   UNL     1      47.434   7.193  15.625  0.00  0.00    +0.000 HD
BRANCH  19  22
ATOM     22  C   UNL     1      48.732   6.859  17.832  0.00  0.00    +0.000 A 
ATOM     23  C   UNL     1      48.319   8.140  18.173  0.00  0.00    +0.000 A 
ATOM     24  S   UNL     1      47.702   8.260  19.759  0.00  0.00    +0.000 S 
ATOM     25  C   UNL     1      48.022   6.617  20.067  0.00  0.00    +0.000 A 
ATOM     26  N   UNL     1      47.737   6.062  21.275  0.00  0.00    +0.000 NA
ATOM     27  C   UNL     1      48.062   4.817  21.382  0.00  0.00    +0.000 A 
ATOM     28  N   UNL     1      48.648   4.075  20.387  0.00  0.00    +0.000 N 
ATOM     29  C   UNL     1      48.930   4.586  19.144  0.00  0.00    +0.000 A 
ATOM     30  O   UNL     1      49.424   3.888  18.265  0.00  0.00    +0.000 OA
ATOM     31  C   UNL     1      48.584   5.985  18.971  0.00  0.00    +0.000 A 
ATOM     32  H   UNL     1      48.877   3.103  20.532  0.00  0.00    +0.000 HD
ENDBRANCH  19  22
ENDBRANCH  17  18
ENDBRANCH   4  17
TORSDOF 5
ENDMDL
MODEL 4
REMARK VINA RESULT:    -7.682      1.144      1.158
REMARK INTER + INTRA:         -10.968
REMARK INTER:                  -9.894
REMARK INTRA:                  -1.073
REMARK UNBOUND:                -1.040
REMARK  Name = 
REMARK  6 active torsions:
REMARK  status: ('A' for Active; 'I' for Inactive)
REMARK    1  A    between atoms: C_1  and  N_2
REMARK    2  A    between atoms: C_7  and  C_8
REMARK    3  A    between atoms: C_8  and  C_9
REMARK    4  A    between atoms: C_12  and  C_13
REMARK    5  A    between atoms: C_13  and  N_14
REMARK    6  A    between atoms: C_15  and  C_17
REMARK                            x       y       z     vdW  Elec       q    Type
REMARK                         _______ _______ _______ _____ _____    ______ ____
ROOT
ATOM      1  C   UNL     1      44.921   6.016  11.180  0.00  0.00    +0.000 A 
ATOM      2  C   UNL     1      45.997   5.366  11.802  0.00  0.00    +0.000 A 
ATOM      3  C   UNL     1      46.856   6.065  12.656  0.00  0.00    +0.000 A 
ATOM      4  C   UNL     1      46.658   7.429  12.902  0.00  0.00    +0.000 A 
ATOM      5  C   UNL     1      45.625   8.094  12.226  0.00  0.00    +0.000 A 
ATOM      6  C   UNL     1      44.758   7.392  11.385  0.00  0.00    +0.000 A 
ENDROOT
BRANCH   1   7
ATOM      7  C   UNL     1      43.930   5.247  10.333  0.00  0.00    +0.000 C 
BRANCH   7  14
ATOM      8  C   UNL     1      46.999   3.099   5.609  0.00  0.00    +0.000 C 
ATOM      9  N   UNL     1      46.834   3.917   6.789  0.00  0.00    +0.000 N 
ATOM     10  C   UNL     1      45.976   3.488   7.790  0.00  0.00    +0.000 A 
ATOM     11  C   UNL     1      45.818   2.147   8.121  0.00  0.00    +0.000 A 
ATOM     12  C   UNL     1      44.962   1.795   9.157  0.00  0.00    +0.000 A 
ATOM     13  C   UNL     1      44.312   2.795   9.865  0.00  0.00    +0.000 A 
ATOM     14  C   UNL     1      44.533   4.123   9.512  0.00  0.00    +0.000 A 
ATOM     15  N   UNL     1      45.348   4.468   8.477  0.00  0.00    +0.000 NA
ATOM     16  H   UNL     1      46.637   4.901   6.627  0.00  0.00    +0.000 HD
ENDBRANCH   7  14
ENDBRANCH   1   7
BRANCH   4  17
ATOM     17  C   UNL     1      47.546   8.179  13.858  0.00  0.00    +0.000 C 
BRANCH  17  18
ATOM     18  N   UNL     1      48.468   7.295  14.522  0.00  0.00    +0.000 N 
ATOM     19  C   UNL     1      48.891   7.536  15.806  0.00  0.00    +0.000 C 
ATOM     20  O   UNL     1      48.468   8.487  16.460  0.00  0.00    +0.000 OA
ATOM     21  H   UNL     1      49.000   6.662  13.932  0.00  0.00    +0.000 HD
BRANCH  19  22
ATOM     22  C   UNL     1      49.813   6.555  16.381  0.00  0.00    +0.000 A 
ATOM     23  C   UNL     1      51.128   6.916  16.639  0.00  0.00    +0.000 A 
ATOM     24  S   UNL     1      52.042   5.683  17.385  0.00  0.00    +0.000 S 
ATOM     25  C   UNL     1      50.728   4.602  17.332  0.00  0.00    +0.000 A 
ATOM     26  N   UNL     1      50.845   3.334  17.810  0.00  0.00    +0.000 NA
ATOM     27  C   UNL     1      49.782   2.613  17.678  0.00  0.00    +0.000 A 
ATOM     28  N   UNL     1      48.611   3.046  17.108  0.00  0.00    +0.000 N 
ATOM     29  C   UNL     1      48.439   4.324  16.636  0.00  0.00    +0.000 A 
ATOM     30  O   UNL     1      47.369   4.690  16.163  0.00  0.00    +0.000 OA
ATOM     31  C   UNL     1      49.606   5.178  16.762  0.00  0.00    +0.000 A 
ATOM     32  H   UNL     1      47.813   2.433  17.035  0.00  0.00    +0.000 HD
ENDBRANCH  19  22
ENDBRANCH  17  18
ENDBRANCH   4  17
TORSDOF 5
ENDMDL
MODEL 5
REMARK VINA RESULT:    -7.580      4.418      9.350
REMARK INTER + INTRA:         -10.837
REMARK INTER:                 -10.245
REMARK INTRA:                  -0.592
REMARK UNBOUND:                -1.040
REMARK  Name = 
REMARK  6 active torsions:
REMARK  status: ('A' for Active; 'I' for Inactive)
REMARK    1  A    between atoms: C_1  and  N_2
REMARK    2  A    between atoms: C_7  and  C_8
REMARK    3  A    between atoms: C_8  and  C_9
REMARK    4  A    between atoms: C_12  and  C_13
REMARK    5  A    between atoms: C_13  and  N_14
REMARK    6  A    between atoms: C_15  and  C_17
REMARK                            x       y       z     vdW  Elec       q    Type
REMARK                         _______ _______ _______ _____ _____    ______ ____
ROOT
ATOM      1  C   UNL     1      51.541   3.135  17.819  0.00  0.00    +0.000 A 
ATOM      2  C   UNL     1      50.911   2.065  17.166  0.00  0.00    +0.000 A 
ATOM      3  C   UNL     1      49.543   2.107  16.884  0.00  0.00    +0.000 A 
ATOM      4  C   UNL     1      48.775   3.219  17.254  0.00  0.00    +0.000 A 
ATOM      5  C   UNL     1      49.391   4.256  17.968  0.00  0.00    +0.000 A 
ATOM      6  C   UNL     1      50.762   4.221  18.235  0.00  0.00    +0.000 A 
ENDROOT
BRANCH   1   7
ATOM      7  C   UNL     1      53.039   3.140  18.040  0.00  0.00    +0.000 C 
BRANCH   7  14
ATOM      8  C   UNL     1      54.165  -2.649  19.292  0.00  0.00    +0.000 C 
ATOM      9  N   UNL     1      53.308  -1.532  18.966  0.00  0.00    +0.000 N 
ATOM     10  C   UNL     1      53.826  -0.478  18.231  0.00  0.00    +0.000 A 
ATOM     11  C   UNL     1      54.771  -0.655  17.226  0.00  0.00    +0.000 A 
ATOM     12  C   UNL     1      55.223   0.447  16.511  0.00  0.00    +0.000 A 
ATOM     13  C   UNL     1      54.691   1.697  16.789  0.00  0.00    +0.000 A 
ATOM     14  C   UNL     1      53.724   1.812  17.783  0.00  0.00    +0.000 A 
ATOM     15  N   UNL     1      53.302   0.737  18.506  0.00  0.00    +0.000 NA
ATOM     16  H   UNL     1      52.785  -1.129  19.739  0.00  0.00    +0.000 HD
ENDBRANCH   7  14
ENDBRANCH   1   7
BRANCH   4  17
ATOM     17  C   UNL     1      47.311   3.296  16.911  0.00  0.00    +0.000 C 
BRANCH  17  18
ATOM     18  N   UNL     1      47.043   4.372  15.992  0.00  0.00    +0.000 N 
ATOM     19  C   UNL     1      47.106   4.185  14.634  0.00  0.00    +0.000 C 
ATOM     20  O   UNL     1      47.348   3.085  14.142  0.00  0.00    +0.000 OA
ATOM     21  H   UNL     1      47.083   5.315  16.369  0.00  0.00    +0.000 HD
BRANCH  19  22
ATOM     22  C   UNL     1      46.794   5.349  13.803  0.00  0.00    +0.000 A 
ATOM     23  C   UNL     1      47.726   6.369  13.668  0.00  0.00    +0.000 A 
ATOM     24  S   UNL     1      47.237   7.606  12.600  0.00  0.00    +0.000 S 
ATOM     25  C   UNL     1      45.735   6.852  12.327  0.00  0.00    +0.000 A 
ATOM     26  N   UNL     1      44.811   7.411  11.501  0.00  0.00    +0.000 NA
ATOM     27  C   UNL     1      43.705   6.751  11.412  0.00  0.00    +0.000 A 
ATOM     28  N   UNL     1      43.439   5.579  12.076  0.00  0.00    +0.000 N 
ATOM     29  C   UNL     1      44.351   4.966  12.900  0.00  0.00    +0.000 A 
ATOM     30  O   UNL     1      44.095   3.903  13.454  0.00  0.00    +0.000 OA
ATOM     31  C   UNL     1      45.614   5.668  13.035  0.00  0.00    +0.000 A 
ATOM     32  H   UNL     1      42.553   5.109  11.963  0.00  0.00    +0.000 HD
ENDBRANCH  19  22
ENDBRANCH  17  18
ENDBRANCH   4  17
TORSDOF 5
ENDMDL
MODEL 6
REMARK VINA RESULT:    -7.493      1.710      2.534
REMARK INTER + INTRA:         -10.723
REMARK INTER:                  -9.883
REMARK INTRA:                  -0.840
REMARK UNBOUND:                -1.040
REMARK  Name = 
REMARK  6 active torsions:
REMARK  status: ('A' for Active; 'I' for Inactive)
REMARK    1  A    between atoms: C_1  and  N_2
REMARK    2  A    between atoms: C_7  and  C_8
REMARK    3  A    between atoms: C_8  and  C_9
REMARK    4  A    between atoms: C_12  and  C_13
REMARK    5  A    between atoms: C_13  and  N_14
REMARK    6  A    between atoms: C_15  and  C_17
REMARK                            x       y       z     vdW  Elec       q    Type
REMARK                         _______ _______ _______ _____ _____    ______ ____
ROOT
ATOM      1  C   UNL     1      44.838   5.445  11.170  0.00  0.00    +0.000 A 
ATOM      2  C   UNL     1      45.126   6.810  11.020  0.00  0.00    +0.000 A 
ATOM      3  C   UNL     1      46.025   7.448  11.880  0.00  0.00    +0.000 A 
ATOM      4  C   UNL     1      46.651   6.735  12.909  0.00  0.00    +0.000 A 
ATOM      5  C   UNL     1      46.311   5.389  13.102  0.00  0.00    +0.000 A 
ATOM      6  C   UNL     1      45.425   4.748  12.233  0.00  0.00    +0.000 A 
ENDROOT
BRANCH   1   7
ATOM      7  C   UNL     1      43.943   4.725  10.185  0.00  0.00    +0.000 C 
BRANCH   7  14
ATOM      8  C   UNL     1      47.158   3.126   5.341  0.00  0.00    +0.000 C 
ATOM      9  N   UNL     1      46.923   3.869   6.558  0.00  0.00    +0.000 N 
ATOM     10  C   UNL     1      46.129   3.308   7.547  0.00  0.00    +0.000 A 
ATOM     11  C   UNL     1      46.118   1.944   7.817  0.00  0.00    +0.000 A 
ATOM     12  C   UNL     1      45.317   1.458   8.844  0.00  0.00    +0.000 A 
ATOM     13  C   UNL     1      44.576   2.350   9.603  0.00  0.00    +0.000 A 
ATOM     14  C   UNL     1      44.650   3.708   9.308  0.00  0.00    +0.000 A 
ATOM     15  N   UNL     1      45.410   4.184   8.283  0.00  0.00    +0.000 NA
ATOM     16  H   UNL     1      46.621   4.833   6.443  0.00  0.00    +0.000 HD
ENDBRANCH   7  14
ENDBRANCH   1   7
BRANCH   4  17
ATOM     17  C   UNL     1      47.659   7.401  13.809  0.00  0.00    +0.000 C 
BRANCH  17  18
ATOM     18  N   UNL     1      48.179   6.480  14.786  0.00  0.00    +0.000 N 
ATOM     19  C   UNL     1      48.831   6.923  15.910  0.00  0.00    +0.000 C 
ATOM     20  O   UNL     1      48.959   8.121  16.155  0.00  0.00    +0.000 OA
ATOM     21  H   UNL     1      48.296   5.516  14.489  0.00  0.00    +0.000 HD
BRANCH  19  22
ATOM     22  C   UNL     1      49.298   5.893  16.839  0.00  0.00    +0.000 A 
ATOM     23  C   UNL     1      48.377   5.157  17.571  0.00  0.00    +0.000 A 
ATOM     24  S   UNL     1      49.085   3.945  18.540  0.00  0.00    +0.000 S 
ATOM     25  C   UNL     1      50.653   4.401  18.062  0.00  0.00    +0.000 A 
ATOM     26  N   UNL     1      51.749   3.758  18.548  0.00  0.00    +0.000 NA
ATOM     27  C   UNL     1      52.875   4.229  18.127  0.00  0.00    +0.000 A 
ATOM     28  N   UNL     1      53.005   5.287  17.262  0.00  0.00    +0.000 N 
ATOM     29  C   UNL     1      51.928   5.950  16.727  0.00  0.00    +0.000 A 
ATOM     30  O   UNL     1      52.077   6.870  15.931  0.00  0.00    +0.000 OA
ATOM     31  C   UNL     1      50.635   5.459  17.168  0.00  0.00    +0.000 A 
ATOM     32  H   UNL     1      53.916   5.608  16.969  0.00  0.00    +0.000 HD
ENDBRANCH  19  22
ENDBRANCH  17  18
ENDBRANCH   4  17
TORSDOF 5
ENDMDL
MODEL 7
REMARK VINA RESULT:    -7.118      4.219      9.303
REMARK INTER + INTRA:         -10.239
REMARK INTER:                  -9.586
REMARK INTRA:                  -0.653
REMARK UNBOUND:                -1.040
REMARK  Name = 
REMARK  6 active torsions:
REMARK  status: ('A' for Active; 'I' for Inactive)
REMARK    1  A    between atoms: C_1  and  N_2
REMARK    2  A    between atoms: C_7  and  C_8
REMARK    3  A    between atoms: C_8  and  C_9
REMARK    4  A    between atoms: C_12  and  C_13
REMARK    5  A    between atoms: C_13  and  N_14
REMARK    6  A    between atoms: C_15  and  C_17
REMARK                            x       y       z     vdW  Elec       q    Type
REMARK                         _______ _______ _______ _____ _____    ______ ____
ROOT
ATOM      1  C   UNL     1      51.447   3.306  17.792  0.00  0.00    +0.000 A 
ATOM      2  C   UNL     1      50.805   2.269  17.098  0.00  0.00    +0.000 A 
ATOM      3  C   UNL     1      49.426   2.307  16.874  0.00  0.00    +0.000 A 
ATOM      4  C   UNL     1      48.660   3.382  17.342  0.00  0.00    +0.000 A 
ATOM      5  C   UNL     1      49.290   4.382  18.095  0.00  0.00    +0.000 A 
ATOM      6  C   UNL     1      50.671   4.351  18.306  0.00  0.00    +0.000 A 
ENDROOT
BRANCH   1   7
ATOM      7  C   UNL     1      52.952   3.320  17.954  0.00  0.00    +0.000 C 
BRANCH   7  14
ATOM      8  C   UNL     1      53.723  -2.469  19.450  0.00  0.00    +0.000 C 
ATOM      9  N   UNL     1      52.950  -1.335  18.997  0.00  0.00    +0.000 N 
ATOM     10  C   UNL     1      53.590  -0.314  18.312  0.00  0.00    +0.000 A 
ATOM     11  C   UNL     1      54.647  -0.543  17.439  0.00  0.00    +0.000 A 
ATOM     12  C   UNL     1      55.221   0.528  16.765  0.00  0.00    +0.000 A 
ATOM     13  C   UNL     1      54.700   1.799  16.949  0.00  0.00    +0.000 A 
ATOM     14  C   UNL     1      53.620   1.966  17.812  0.00  0.00    +0.000 A 
ATOM     15  N   UNL     1      53.076   0.922  18.496  0.00  0.00    +0.000 NA
ATOM     16  H   UNL     1      52.347  -0.898  19.690  0.00  0.00    +0.000 HD
ENDBRANCH   7  14
ENDBRANCH   1   7
BRANCH   4  17
ATOM     17  C   UNL     1      47.182   3.458  17.063  0.00  0.00    +0.000 C 
BRANCH  17  18
ATOM     18  N   UNL     1      46.888   4.447  16.059  0.00  0.00    +0.000 N 
ATOM     19  C   UNL     1      46.990   4.160  14.721  0.00  0.00    +0.000 C 
ATOM     20  O   UNL     1      47.292   3.038  14.319  0.00  0.00    +0.000 OA
ATOM     21  H   UNL     1      46.877   5.416  16.362  0.00  0.00    +0.000 HD
BRANCH  19  22
ATOM     22  C   UNL     1      46.646   5.242  13.796  0.00  0.00    +0.000 A 
ATOM     23  C   UNL     1      45.479   5.163  13.047  0.00  0.00    +0.000 A 
ATOM     24  S   UNL     1      45.189   6.542  12.086  0.00  0.00    +0.000 S 
ATOM     25  C   UNL     1      46.644   7.268  12.590  0.00  0.00    +0.000 A 
ATOM     26  N   UNL     1      47.017   8.488  12.120  0.00  0.00    +0.000 NA
ATOM     27  C   UNL     1      48.158   8.904  12.560  0.00  0.00    +0.000 A 
ATOM     28  N   UNL     1      48.960   8.208  13.430  0.00  0.00    +0.000 N 
ATOM     29  C   UNL     1      48.612   6.986  13.950  0.00  0.00    +0.000 A 
ATOM     30  O   UNL     1      49.336   6.404  14.751  0.00  0.00    +0.000 OA
ATOM     31  C   UNL     1      47.336   6.472  13.487  0.00  0.00    +0.000 A 
ATOM     32  H   UNL     1      49.842   8.589  13.738  0.00  0.00    +0.000 HD
ENDBRANCH  19  22
ENDBRANCH  17  18
ENDBRANCH   4  17
TORSDOF 5
ENDMDL
MODEL 8
REMARK VINA RESULT:    -6.998      3.576      6.277
REMARK INTER + INTRA:         -10.084
REMARK INTER:                  -9.022
REMARK INTRA:                  -1.061
REMARK UNBOUND:                -1.040
REMARK  Name = 
REMARK  6 active torsions:
REMARK  status: ('A' for Active; 'I' for Inactive)
REMARK    1  A    between atoms: C_1  and  N_2
REMARK    2  A    between atoms: C_7  and  C_8
REMARK    3  A    between atoms: C_8  and  C_9
REMARK    4  A    between atoms: C_12  and  C_13
REMARK    5  A    between atoms: C_13  and  N_14
REMARK    6  A    between atoms: C_15  and  C_17
REMARK                            x       y       z     vdW  Elec       q    Type
REMARK                         _______ _______ _______ _____ _____    ______ ____
ROOT
ATOM      1  C   UNL     1      44.689   9.049  11.523  0.00  0.00    +0.000 A 
ATOM      2  C   UNL     1      45.657   8.933  12.531  0.00  0.00    +0.000 A 
ATOM      3  C   UNL     1      46.007   7.681  13.044  0.00  0.00    +0.000 A 
ATOM      4  C   UNL     1      45.393   6.519  12.561  0.00  0.00    +0.000 A 
ATOM      5  C   UNL     1      44.376   6.641  11.604  0.00  0.00    +0.000 A 
ATOM      6  C   UNL     1      44.037   7.892  11.081  0.00  0.00    +0.000 A 
ENDROOT
BRANCH   1   7
ATOM      7  C   UNL     1      44.375  10.390  10.895  0.00  0.00    +0.000 C 
BRANCH   7  14
ATOM      8  C   UNL     1      39.455  12.188  13.880  0.00  0.00    +0.000 C 
ATOM      9  N   UNL     1      40.830  12.305  13.449  0.00  0.00    +0.000 N 
ATOM     10  C   UNL     1      41.200  11.765  12.227  0.00  0.00    +0.000 A 
ATOM     11  C   UNL     1      40.358  11.761  11.121  0.00  0.00    +0.000 A 
ATOM     12  C   UNL     1      40.810  11.228   9.920  0.00  0.00    +0.000 A 
ATOM     13  C   UNL     1      42.108  10.746   9.841  0.00  0.00    +0.000 A 
ATOM     14  C   UNL     1      42.918  10.803  10.971  0.00  0.00    +0.000 A 
ATOM     15  N   UNL     1      42.466  11.298  12.157  0.00  0.00    +0.000 NA
ATOM     16  H   UNL     1      41.536  12.027  14.125  0.00  0.00    +0.000 HD
ENDBRANCH   7  14
ENDBRANCH   1   7
BRANCH   4  17
ATOM     17  C   UNL     1      45.798   5.161  13.070  0.00  0.00    +0.000 C 
BRANCH  17  18
ATOM     18  N   UNL     1      46.429   5.251  14.361  0.00  0.00    +0.000 N 
ATOM     19  C   UNL     1      47.141   4.201  14.884  0.00  0.00    +0.000 C 
ATOM     20  O   UNL     1      47.309   3.156  14.257  0.00  0.00    +0.000 OA
ATOM     21  H   UNL     1      46.105   5.990  14.978  0.00  0.00    +0.000 HD
BRANCH  19  22
ATOM     22  C   UNL     1      47.753   4.419  16.196  0.00  0.00    +0.000 A 
ATOM     23  C   UNL     1      47.396   3.609  17.265  0.00  0.00    +0.000 A 
ATOM     24  S   UNL     1      48.263   3.944  18.696  0.00  0.00    +0.000 S 
ATOM     25  C   UNL     1      49.103   5.224  17.953  0.00  0.00    +0.000 A 
ATOM     26  N   UNL     1      50.013   5.959  18.645  0.00  0.00    +0.000 NA
ATOM     27  C   UNL     1      50.550   6.919  17.968  0.00  0.00    +0.000 A 
ATOM     28  N   UNL     1      50.258   7.211  16.659  0.00  0.00    +0.000 N 
ATOM     29  C   UNL     1      49.366   6.480  15.914  0.00  0.00    +0.000 A 
ATOM     30  O   UNL     1      49.151   6.746  14.737  0.00  0.00    +0.000 OA
ATOM     31  C   UNL     1      48.732   5.387  16.628  0.00  0.00    +0.000 A 
ATOM     32  H   UNL     1      50.715   7.975  16.184  0.00  0.00    +0.000 HD
ENDBRANCH  19  22
ENDBRANCH  17  18
ENDBRANCH   4  17
TORSDOF 5
ENDMDL
MODEL 9
REMARK VINA RESULT:    -6.954      3.582      8.948
REMARK INTER + INTRA:         -10.028
REMARK INTER:                  -8.998
REMARK INTRA:                  -1.030
REMARK UNBOUND:                -1.040
REMARK  Name = 
REMARK  6 active torsions:
REMARK  status: ('A' for Active; 'I' for Inactive)
REMARK    1  A    between atoms: C_1  and  N_2
REMARK    2  A    between atoms: C_7  and  C_8
REMARK    3  A    between atoms: C_8  and  C_9
REMARK    4  A    between atoms: C_12  and  C_13
REMARK    5  A    between atoms: C_13  and  N_14
REMARK    6  A    between atoms: C_15  and  C_17
REMARK                            x       y       z     vdW  Elec       q    Type
REMARK                         _______ _______ _______ _____ _____    ______ ____
ROOT
ATOM      1  C   UNL     1      51.409   3.620  18.101  0.00  0.00    +0.000 A 
ATOM      2  C   UNL     1      50.934   2.510  17.387  0.00  0.00    +0.000 A 
ATOM      3  C   UNL     1      49.584   2.407  17.043  0.00  0.00    +0.000 A 
ATOM      4  C   UNL     1      48.679   3.411  17.410  0.00  0.00    +0.000 A 
ATOM      5  C   UNL     1      49.140   4.485  18.183  0.00  0.00    +0.000 A 
ATOM      6  C   UNL     1      50.493   4.595  18.514  0.00  0.00    +0.000 A 
ENDROOT
BRANCH   1   7
ATOM      7  C   UNL     1      52.885   3.786  18.392  0.00  0.00    +0.000 C 
BRANCH   7  14
ATOM      8  C   UNL     1      54.461   7.853  14.229  0.00  0.00    +0.000 C 
ATOM      9  N   UNL     1      53.525   6.999  14.923  0.00  0.00    +0.000 N 
ATOM     10  C   UNL     1      53.757   6.687  16.254  0.00  0.00    +0.000 A 
ATOM     11  C   UNL     1      54.326   7.586  17.148  0.00  0.00    +0.000 A 
ATOM     12  C   UNL     1      54.501   7.213  18.475  0.00  0.00    +0.000 A 
ATOM     13  C   UNL     1      54.066   5.963  18.888  0.00  0.00    +0.000 A 
ATOM     14  C   UNL     1      53.474   5.114  17.957  0.00  0.00    +0.000 A 
ATOM     15  N   UNL     1      53.329   5.468  16.649  0.00  0.00    +0.000 NA
ATOM     16  H   UNL     1      53.275   6.133  14.453  0.00  0.00    +0.000 HD
ENDBRANCH   7  14
ENDBRANCH   1   7
BRANCH   4  17
ATOM     17  C   UNL     1      47.232   3.335  17.001  0.00  0.00    +0.000 C 
BRANCH  17  18
ATOM     18  N   UNL     1      46.900   4.363  16.050  0.00  0.00    +0.000 N 
ATOM     19  C   UNL     1      47.012   4.150  14.699  0.00  0.00    +0.000 C 
ATOM     20  O   UNL     1      47.356   3.062  14.240  0.00  0.00    +0.000 OA
ATOM     21  H   UNL     1      46.852   5.314  16.403  0.00  0.00    +0.000 HD
BRANCH  19  22
ATOM     22  C   UNL     1      46.627   5.264  13.830  0.00  0.00    +0.000 A 
ATOM     23  C   UNL     1      47.489   6.341  13.669  0.00  0.00    +0.000 A 
ATOM     24  S   UNL     1      46.923   7.509  12.562  0.00  0.00    +0.000 S 
ATOM     25  C   UNL     1      45.478   6.646  12.305  0.00  0.00    +0.000 A 
ATOM     26  N   UNL     1      44.524   7.115  11.457  0.00  0.00    +0.000 NA
ATOM     27  C   UNL     1      43.467   6.378  11.383  0.00  0.00    +0.000 A 
ATOM     28  N   UNL     1      43.277   5.212  12.082  0.00  0.00    +0.000 N 
ATOM     29  C   UNL     1      44.222   4.687  12.928  0.00  0.00    +0.000 A 
ATOM     30  O   UNL     1      44.036   3.626  13.513  0.00  0.00    +0.000 OA
ATOM     31  C   UNL     1      45.433   5.479  13.048  0.00  0.00    +0.000 A 
ATOM     32  H   UNL     1      42.426   4.679  11.978  0.00  0.00    +0.000 HD
ENDBRANCH  19  22
ENDBRANCH  17  18
ENDBRANCH   4  17
TORSDOF 5
ENDMDL
