MODEL 1
REMARK VINA RESULT:    -7.923      0.000      0.000
REMARK INTER + INTRA:         -12.240
REMARK INTER:                 -11.166
REMARK INTRA:                  -1.075
REMARK UNBOUND:                -1.075
REMARK  Name = 
REMARK  8 active torsions:
REMARK  status: ('A' for Active; 'I' for Inactive)
REMARK    1  A    between atoms: C_1  and  C_2
REMARK    2  A    between atoms: C_7  and  N_8
REMARK    3  A    between atoms: N_8  and  C_9
REMARK    4  A    between atoms: C_9  and  C_10
REMARK    5  A    between atoms: C_10  and  C_11
REMARK    6  A    between atoms: C_14  and  C_15
REMARK    7  A    between atoms: C_20  and  O_21
REMARK    8  A    between atoms: O_21  and  C_22
REMARK                            x       y       z     vdW  Elec       q    Type
REMARK                         _______ _______ _______ _____ _____    ______ ____
ROOT
ATOM      1  N   UNL     1      43.890   6.509  11.919  0.00  0.00    +0.000 N 
ATOM      2  H   UNL     1      43.811   5.894  12.728  0.00  0.00    +0.000 HD
ENDROOT
BRANCH   1   9
ATOM      3  C   UNL     1      48.892   7.376  12.310  0.00  0.00    +0.000 C 
ATOM      4  C   UNL     1      47.467   7.817  12.111  0.00  0.00    +0.000 A 
ATOM      5  C   UNL     1      47.152   9.192  12.060  0.00  0.00    +0.000 A 
ATOM      6 CL   UNL     1      48.356  10.437  12.123  0.00  0.00    +0.000 Cl
ATOM      7  C   UNL     1      45.833   9.625  11.969  0.00  0.00    +0.000 A 
ATOM      8  C   UNL     1      44.800   8.698  11.939  0.00  0.00    +0.000 A 
ATOM      9  C   UNL     1      45.041   7.313  12.000  0.00  0.00    +0.000 A 
ATOM     10  C   UNL     1      46.400   6.878  12.035  0.00  0.00    +0.000 A 
BRANCH  10  11
ATOM     11  O   UNL     1      46.608   5.516  12.163  0.00  0.00    +0.000 OA
BRANCH  11  12
ATOM     12  C   UNL     1      46.266   4.807  13.379  0.00  0.00    +0.000 C 
ATOM     13  C   UNL     1      47.217   4.795  14.590  0.00  0.00    +0.000 C 
ATOM     14  N   UNL     1      47.316   3.332  14.535  0.00  0.00    +0.000 NA
ATOM     15  C   UNL     1      46.483   3.280  13.331  0.00  0.00    +0.000 C 
ATOM     16  H   UNL     1      46.915   2.850  15.340  0.00  0.00    +0.000 HD
ENDBRANCH  11  12
ENDBRANCH  10  11
ENDBRANCH   1   9
BRANCH   1  17
ATOM     17  C   UNL     1      43.482   5.864  10.675  0.00  0.00    +0.000 C 
BRANCH  17  18
ATOM     18  C   UNL     1      43.561   4.336  10.797  0.00  0.00    +0.000 C 
BRANCH  18  19
ATOM     19  C   UNL     1      44.503   3.743   9.773  0.00  0.00    +0.000 A 
ATOM     20  C   UNL     1      44.660   2.356   9.667  0.00  0.00    +0.000 A 
ATOM     21  C   UNL     1      45.553   1.812   8.739  0.00  0.00    +0.000 A 
ATOM     22  C   UNL     1      46.297   2.647   7.899  0.00  0.00    +0.000 A 
ATOM     23  C   UNL     1      46.162   4.035   8.014  0.00  0.00    +0.000 A 
ATOM     24  C   UNL     1      45.270   4.577   8.946  0.00  0.00    +0.000 A 
BRANCH  22  25
ATOM     25  C   UNL     1      47.225   2.013   6.922  0.00  0.00    +0.000 C 
ATOM     26  N   UNL     1      48.208   2.800   6.388  0.00  0.00    +0.000 N 
ATOM     27  O   UNL     1      47.100   0.844   6.578  0.00  0.00    +0.000 OA
ATOM     28  H   UNL     1      48.192   3.808   6.447  0.00  0.00    +0.000 HD
ATOM     29  H   UNL     1      48.756   2.384   5.645  0.00  0.00    +0.000 HD
ENDBRANCH  22  25
ENDBRANCH  18  19
ENDBRANCH  17  18
ENDBRANCH   1  17
TORSDOF 7
ENDMDL
MODEL 2
REMARK VINA RESULT:    -7.905      1.425      1.828
REMARK INTER + INTRA:         -12.215
REMARK INTER:                 -11.657
REMARK INTRA:                  -0.558
REMARK UNBOUND:                -1.075
REMARK  Name = 
REMARK  8 active torsions:
REMARK  status: ('A' for Active; 'I' for Inactive)
REMARK    1  A    between atoms: C_1  and  C_2
REMARK    2  A    between atoms: C_7  and  N_8
REMARK    3  A    between atoms: N_8  and  C_9
REMARK    4  A    between atoms: C_9  and  C_10
REMARK    5  A    between atoms: C_10  and  C_11
REMARK    6  A    between atoms: C_14  and  C_15
REMARK    7  A    between atoms: C_20  and  O_21
REMARK    8  A    between atoms: O_21  and  C_22
REMARK                            x       y       z     vdW  Elec       q    Type
REMARK                         _______ _______ _______ _____ _____    ______ ____
ROOT
ATOM      1  N   UNL     1      44.465   4.092  13.268  0.00  0.00    +0.000 N 
ATOM      2  H   UNL     1      44.661   3.663  14.171  0.00  0.00    +0.000 HD
ENDROOT
BRANCH   1   9
ATOM      3  C   UNL     1      48.760   6.822  13.425  0.00  0.00    +0.000 C 
ATOM      4  C   UNL     1      47.322   6.607  13.038  0.00  0.00    +0.000 A 
ATOM      5  C   UNL     1      46.581   7.660  12.459  0.00  0.00    +0.000 A 
ATOM      6 CL   UNL     1      47.275   9.200  12.074  0.00  0.00    +0.000 Cl
ATOM      7  C   UNL     1      45.226   7.515  12.177  0.00  0.00    +0.000 A 
ATOM      8  C   UNL     1      44.579   6.324  12.476  0.00  0.00    +0.000 A 
ATOM      9  C   UNL     1      45.254   5.238  13.066  0.00  0.00    +0.000 A 
ATOM     10  C   UNL     1      46.655   5.377  13.298  0.00  0.00    +0.000 A 
BRANCH  10  11
ATOM     11  O   UNL     1      47.280   4.323  13.940  0.00  0.00    +0.000 OA
BRANCH  11  12
ATOM     12  C   UNL     1      47.197   4.151  15.376  0.00  0.00    +0.000 C 
ATOM     13  C   UNL     1      48.028   5.024  16.333  0.00  0.00    +0.000 C 
ATOM     14  N   UNL     1      48.695   3.838  16.883  0.00  0.00    +0.000 NA
ATOM     15  C   UNL     1      47.997   2.959  15.942  0.00  0.00    +0.000 C 
ATOM     16  H   UNL     1      48.485   3.650  17.864  0.00  0.00    +0.000 HD
ENDBRANCH  11  12
ENDBRANCH  10  11
ENDBRANCH   1   9
BRANCH   1  17
ATOM     17  C   UNL     1      44.240   3.110  12.211  0.00  0.00    +0.000 C 
BRANCH  17  18
ATOM     18  C   UNL     1      43.790   3.794  10.913  0.00  0.00    +0.000 C 
BRANCH  18  19
ATOM     19  C   UNL     1      44.701   3.448   9.756  0.00  0.00    +0.000 A 
ATOM     20  C   UNL     1      44.996   2.113   9.456  0.00  0.00    +0.000 A 
ATOM     21  C   UNL     1      45.862   1.797   8.405  0.00  0.00    +0.000 A 
ATOM     22  C   UNL     1      46.438   2.812   7.633  0.00  0.00    +0.000 A 
ATOM     23  C   UNL     1      46.165   4.149   7.941  0.00  0.00    +0.000 A 
ATOM     24  C   UNL     1      45.301   4.463   8.997  0.00  0.00    +0.000 A 
BRANCH  22  25
ATOM     25  C   UNL     1      47.344   2.417   6.518  0.00  0.00    +0.000 C 
ATOM     26  N   UNL     1      47.363   3.222   5.412  0.00  0.00    +0.000 N 
ATOM     27  O   UNL     1      48.021   1.399   6.567  0.00  0.00    +0.000 OA
ATOM     28  H   UNL     1      46.651   3.914   5.228  0.00  0.00    +0.000 HD
ATOM     29  H   UNL     1      47.897   2.878   4.622  0.00  0.00    +0.000 HD
ENDBRANCH  22  25
ENDBRANCH  18  19
ENDBRANCH  17  18
ENDBRANCH   1  17
TORSDOF 7
ENDMDL
MODEL 3
REMARK VINA RESULT:    -7.441      1.744      3.718
REMARK INTER + INTRA:         -11.560
REMARK INTER:                 -10.594
REMARK INTRA:                  -0.966
REMARK UNBOUND:                -1.075
REMARK  Name = 
REMARK  8 active torsions:
REMARK  status: ('A' for Active; 'I' for Inactive)
REMARK    1  A    between atoms: C_1  and  C_2
REMARK    2  A    between atoms: C_7  and  N_8
REMARK    3  A    between atoms: N_8  and  C_9
REMARK    4  A    between atoms: C_9  and  C_10
REMARK    5  A    between atoms: C_10  and  C_11
REMARK    6  A    between atoms: C_14  and  C_15
REMARK    7  A    between atoms: C_20  and  O_21
REMARK    8  A    between atoms: O_21  and  C_22
REMARK                            x       y       z     vdW  Elec       q    Type
REMARK                         _______ _______ _______ _____ _____    ______ ____
ROOT
ATOM      1  N   UNL     1      43.644   5.907  12.044  0.00  0.00    +0.000 N 
ATOM      2  H   UNL     1      43.147   5.459  12.812  0.00  0.00    +0.000 HD
ENDROOT
BRANCH   1   9
ATOM      3  C   UNL     1      47.842   8.790  12.011  0.00  0.00    +0.000 C 
ATOM      4  C   UNL     1      47.007   7.643  12.515  0.00  0.00    +0.000 A 
ATOM      5  C   UNL     1      47.556   6.714  13.425  0.00  0.00    +0.000 A 
ATOM      6 CL   UNL     1      49.151   6.871  14.083  0.00  0.00    +0.000 Cl
ATOM      7  C   UNL     1      46.836   5.596  13.834  0.00  0.00    +0.000 A 
ATOM      8  C   UNL     1      45.559   5.375  13.337  0.00  0.00    +0.000 A 
ATOM      9  C   UNL     1      44.955   6.254  12.418  0.00  0.00    +0.000 A 
ATOM     10  C   UNL     1      45.680   7.426  12.049  0.00  0.00    +0.000 A 
BRANCH  10  11
ATOM     11  O   UNL     1      45.094   8.237  11.094  0.00  0.00    +0.000 OA
BRANCH  11  12
ATOM     12  C   UNL     1      44.281   9.378  11.463  0.00  0.00    +0.000 C 
ATOM     13  C   UNL     1      42.951   9.676  10.746  0.00  0.00    +0.000 C 
ATOM     14  N   UNL     1      43.444  10.989  10.313  0.00  0.00    +0.000 NA
ATOM     15  C   UNL     1      44.761  10.734  10.902  0.00  0.00    +0.000 C 
ATOM     16  H   UNL     1      42.951  11.783  10.722  0.00  0.00    +0.000 HD
ENDBRANCH  11  12
ENDBRANCH  10  11
ENDBRANCH   1   9
BRANCH   1  17
ATOM     17  C   UNL     1      43.343   5.308  10.747  0.00  0.00    +0.000 C 
BRANCH  17  18
ATOM     18  C   UNL     1      43.641   3.802  10.756  0.00  0.00    +0.000 C 
BRANCH  18  19
ATOM     19  C   UNL     1      44.622   3.422   9.669  0.00  0.00    +0.000 A 
ATOM     20  C   UNL     1      45.187   4.403   8.845  0.00  0.00    +0.000 A 
ATOM     21  C   UNL     1      46.071   4.046   7.822  0.00  0.00    +0.000 A 
ATOM     22  C   UNL     1      46.408   2.704   7.614  0.00  0.00    +0.000 A 
ATOM     23  C   UNL     1      45.830   1.717   8.420  0.00  0.00    +0.000 A 
ATOM     24  C   UNL     1      44.943   2.076   9.440  0.00  0.00    +0.000 A 
BRANCH  22  25
ATOM     25  C   UNL     1      47.364   2.383   6.517  0.00  0.00    +0.000 C 
ATOM     26  N   UNL     1      47.384   3.222   5.437  0.00  0.00    +0.000 N 
ATOM     27  O   UNL     1      48.082   1.392   6.557  0.00  0.00    +0.000 OA
ATOM     28  H   UNL     1      46.650   3.889   5.251  0.00  0.00    +0.000 HD
ATOM     29  H   UNL     1      47.956   2.925   4.656  0.00  0.00    +0.000 HD
ENDBRANCH  22  25
ENDBRANCH  18  19
ENDBRANCH  17  18
ENDBRANCH   1  17
TORSDOF 7
ENDMDL
MODEL 4
REMARK VINA RESULT:    -7.411      1.824      3.863
REMARK INTER + INTRA:         -11.519
REMARK INTER:                 -10.588
REMARK INTRA:                  -0.930
REMARK UNBOUND:                -1.075
REMARK  Name = 
REMARK  8 active torsions:
REMARK  status: ('A' for Active; 'I' for Inactive)
REMARK    1  A    between atoms: C_1  and  C_2
REMARK    2  A    between atoms: C_7  and  N_8
REMARK    3  A    between atoms: N_8  and  C_9
REMARK    4  A    between atoms: C_9  and  C_10
REMARK    5  A    between atoms: C_10  and  C_11
REMARK    6  A    between atoms: C_14  and  C_15
REMARK    7  A    between atoms: C_20  and  O_21
REMARK    8  A    between atoms: O_21  and  C_22
REMARK                            x       y       z     vdW  Elec       q    Type
REMARK                         _______ _______ _______ _____ _____    ______ ____
ROOT
ATOM      1  N   UNL     1      44.266   6.458  11.797  0.00  0.00    +0.000 N 
ATOM      2  H   UNL     1      43.593   6.789  12.487  0.00  0.00    +0.000 HD
ENDROOT
BRANCH   1   9
ATOM      3  C   UNL     1      47.124  10.664  12.063  0.00  0.00    +0.000 C 
ATOM      4  C   UNL     1      46.930   9.172  12.084  0.00  0.00    +0.000 A 
ATOM      5  C   UNL     1      48.050   8.313  12.115  0.00  0.00    +0.000 A 
ATOM      6 CL   UNL     1      49.679   8.894  12.225  0.00  0.00    +0.000 Cl
ATOM      7  C   UNL     1      47.900   6.931  12.043  0.00  0.00    +0.000 A 
ATOM      8  C   UNL     1      46.632   6.378  11.926  0.00  0.00    +0.000 A 
ATOM      9  C   UNL     1      45.473   7.175  11.877  0.00  0.00    +0.000 A 
ATOM     10  C   UNL     1      45.634   8.586  12.009  0.00  0.00    +0.000 A 
BRANCH  10  11
ATOM     11  O   UNL     1      44.488   9.352  11.888  0.00  0.00    +0.000 OA
BRANCH  11  12
ATOM     12  C   UNL     1      43.909   9.653  10.595  0.00  0.00    +0.000 C 
ATOM     13  C   UNL     1      44.025  11.059   9.978  0.00  0.00    +0.000 C 
ATOM     14  N   UNL     1      42.563  11.194   9.938  0.00  0.00    +0.000 NA
ATOM     15  C   UNL     1      42.385   9.899  10.599  0.00  0.00    +0.000 C 
ATOM     16  H   UNL     1      42.168  11.240   8.999  0.00  0.00    +0.000 HD
ENDBRANCH  11  12
ENDBRANCH  10  11
ENDBRANCH   1   9
BRANCH   1  17
ATOM     17  C   UNL     1      44.238   5.008  11.630  0.00  0.00    +0.000 C 
BRANCH  17  18
ATOM     18  C   UNL     1      43.635   4.623  10.271  0.00  0.00    +0.000 C 
BRANCH  18  19
ATOM     19  C   UNL     1      44.629   3.872   9.414  0.00  0.00    +0.000 A 
ATOM     20  C   UNL     1      45.423   4.551   8.482  0.00  0.00    +0.000 A 
ATOM     21  C   UNL     1      46.320   3.849   7.670  0.00  0.00    +0.000 A 
ATOM     22  C   UNL     1      46.441   2.461   7.784  0.00  0.00    +0.000 A 
ATOM     23  C   UNL     1      45.635   1.773   8.698  0.00  0.00    +0.000 A 
ATOM     24  C   UNL     1      44.735   2.476   9.506  0.00  0.00    +0.000 A 
BRANCH  22  25
ATOM     25  C   UNL     1      47.420   1.766   6.902  0.00  0.00    +0.000 C 
ATOM     26  N   UNL     1      48.524   2.474   6.512  0.00  0.00    +0.000 N 
ATOM     27  O   UNL     1      47.237   0.621   6.510  0.00  0.00    +0.000 OA
ATOM     28  H   UNL     1      48.587   3.478   6.601  0.00  0.00    +0.000 HD
ATOM     29  H   UNL     1      49.118   2.026   5.825  0.00  0.00    +0.000 HD
ENDBRANCH  22  25
ENDBRANCH  18  19
ENDBRANCH  17  18
ENDBRANCH   1  17
TORSDOF 7
ENDMDL
MODEL 5
REMARK VINA RESULT:    -6.233      4.008      6.100
REMARK INTER + INTRA:          -9.858
REMARK INTER:                  -9.026
REMARK INTRA:                  -0.832
REMARK UNBOUND:                -1.075
REMARK  Name = 
REMARK  8 active torsions:
REMARK  status: ('A' for Active; 'I' for Inactive)
REMARK    1  A    between atoms: C_1  and  C_2
REMARK    2  A    between atoms: C_7  and  N_8
REMARK    3  A    between atoms: N_8  and  C_9
REMARK    4  A    between atoms: C_9  and  C_10
REMARK    5  A    between atoms: C_10  and  C_11
REMARK    6  A    between atoms: C_14  and  C_15
REMARK    7  A    between atoms: C_20  and  O_21
REMARK    8  A    between atoms: O_21  and  C_22
REMARK                            x       y       z     vdW  Elec       q    Type
REMARK                         _______ _______ _______ _____ _____    ______ ____
ROOT
ATOM      1  N   UNL     1      49.271   6.924  15.309  0.00  0.00    +0.000 N 
ATOM      2  H   UNL     1      50.287   6.951  15.238  0.00  0.00    +0.000 HD
ENDROOT
BRANCH   1   9
ATOM      3  C   UNL     1      48.424   5.653  20.167  0.00  0.00    +0.000 C 
ATOM      4  C   UNL     1      48.474   6.635  19.027  0.00  0.00    +0.000 A 
ATOM      5  C   UNL     1      47.988   7.948  19.203  0.00  0.00    +0.000 A 
ATOM      6 CL   UNL     1      47.402   8.540  20.723  0.00  0.00    +0.000 Cl
ATOM      7  C   UNL     1      47.938   8.845  18.141  0.00  0.00    +0.000 A 
ATOM      8  C   UNL     1      48.361   8.449  16.879  0.00  0.00    +0.000 A 
ATOM      9  C   UNL     1      48.846   7.151  16.630  0.00  0.00    +0.000 A 
ATOM     10  C   UNL     1      48.946   6.258  17.738  0.00  0.00    +0.000 A 
BRANCH  10  11
ATOM     11  O   UNL     1      49.360   4.969  17.454  0.00  0.00    +0.000 OA
BRANCH  11  12
ATOM     12  C   UNL     1      48.459   3.991  16.879  0.00  0.00    +0.000 C 
ATOM     13  C   UNL     1      46.937   4.220  16.866  0.00  0.00    +0.000 C 
ATOM     14  N   UNL     1      46.717   3.000  17.652  0.00  0.00    +0.000 NA
ATOM     15  C   UNL     1      48.159   2.769  17.773  0.00  0.00    +0.000 C 
ATOM     16  H   UNL     1      46.217   2.262  17.158  0.00  0.00    +0.000 HD
ENDBRANCH  11  12
ENDBRANCH  10  11
ENDBRANCH   1   9
BRANCH   1  17
ATOM     17  C   UNL     1      48.606   7.541  14.165  0.00  0.00    +0.000 C 
BRANCH  17  18
ATOM     18  C   UNL     1      48.592   6.591  12.959  0.00  0.00    +0.000 C 
BRANCH  18  19
ATOM     19  C   UNL     1      47.185   6.172  12.596  0.00  0.00    +0.000 A 
ATOM     20  C   UNL     1      46.639   6.512  11.352  0.00  0.00    +0.000 A 
ATOM     21  C   UNL     1      45.328   6.149  11.031  0.00  0.00    +0.000 A 
ATOM     22  C   UNL     1      44.547   5.434  11.945  0.00  0.00    +0.000 A 
ATOM     23  C   UNL     1      45.079   5.110  13.198  0.00  0.00    +0.000 A 
ATOM     24  C   UNL     1      46.390   5.479  13.519  0.00  0.00    +0.000 A 
BRANCH  22  25
ATOM     25  C   UNL     1      43.161   5.063  11.545  0.00  0.00    +0.000 C 
ATOM     26  N   UNL     1      42.181   5.999  11.737  0.00  0.00    +0.000 N 
ATOM     27  O   UNL     1      42.894   3.957  11.093  0.00  0.00    +0.000 OA
ATOM     28  H   UNL     1      42.309   6.808  12.328  0.00  0.00    +0.000 HD
ATOM     29  H   UNL     1      41.232   5.689  11.566  0.00  0.00    +0.000 HD
ENDBRANCH  22  25
ENDBRANCH  18  19
ENDBRANCH  17  18
ENDBRANCH   1  17
TORSDOF 7
ENDMDL
MODEL 6
REMARK VINA RESULT:    -6.158      4.046      7.686
REMARK INTER + INTRA:          -9.752
REMARK INTER:                  -9.063
REMARK INTRA:                  -0.689
REMARK UNBOUND:                -1.075
REMARK  Name = 
REMARK  8 active torsions:
REMARK  status: ('A' for Active; 'I' for Inactive)
REMARK    1  A    between atoms: C_1  and  C_2
REMARK    2  A    between atoms: C_7  and  N_8
REMARK    3  A    between atoms: N_8  and  C_9
REMARK    4  A    between atoms: C_9  and  C_10
REMARK    5  A    between atoms: C_10  and  C_11
REMARK    6  A    between atoms: C_14  and  C_15
REMARK    7  A    between atoms: C_20  and  O_21
REMARK    8  A    between atoms: O_21  and  C_22
REMARK                            x       y       z     vdW  Elec       q    Type
REMARK                         _______ _______ _______ _____ _____    ______ ____
ROOT
ATOM      1  N   UNL     1      46.832   4.213  14.842  0.00  0.00    +0.000 N 
ATOM      2  H   UNL     1      45.996   3.663  14.652  0.00  0.00    +0.000 HD
ENDROOT
BRANCH   1   9
ATOM      3  C   UNL     1      44.929   7.632  11.583  0.00  0.00    +0.000 C 
ATOM      4  C   UNL     1      45.978   7.130  12.538  0.00  0.00    +0.000 A 
ATOM      5  C   UNL     1      47.201   7.822  12.673  0.00  0.00    +0.000 A 
ATOM      6 CL   UNL     1      47.539   9.307  11.847  0.00  0.00    +0.000 Cl
ATOM      7  C   UNL     1      48.222   7.328  13.480  0.00  0.00    +0.000 A 
ATOM      8  C   UNL     1      48.050   6.130  14.159  0.00  0.00    +0.000 A 
ATOM      9  C   UNL     1      46.861   5.382  14.060  0.00  0.00    +0.000 A 
ATOM     10  C   UNL     1      45.800   5.926  13.276  0.00  0.00    +0.000 A 
BRANCH  10  11
ATOM     11  O   UNL     1      44.670   5.140  13.140  0.00  0.00    +0.000 OA
BRANCH  11  12
ATOM     12  C   UNL     1      44.580   4.109  12.126  0.00  0.00    +0.000 C 
ATOM     13  C   UNL     1      43.627   4.252  10.925  0.00  0.00    +0.000 C 
ATOM     14  N   UNL     1      42.913   3.028  11.309  0.00  0.00    +0.000 NA
ATOM     15  C   UNL     1      43.731   2.880  12.514  0.00  0.00    +0.000 C 
ATOM     16  H   UNL     1      43.004   2.259  10.645  0.00  0.00    +0.000 HD
ENDBRANCH  11  12
ENDBRANCH  10  11
ENDBRANCH   1   9
BRANCH   1  17
ATOM     17  C   UNL     1      47.200   4.218  16.254  0.00  0.00    +0.000 C 
BRANCH  17  18
ATOM     18  C   UNL     1      47.735   2.846  16.687  0.00  0.00    +0.000 C 
BRANCH  18  19
ATOM     19  C   UNL     1      49.167   2.932  17.167  0.00  0.00    +0.000 A 
ATOM     20  C   UNL     1      49.644   4.098  17.777  0.00  0.00    +0.000 A 
ATOM     21  C   UNL     1      50.976   4.186  18.194  0.00  0.00    +0.000 A 
ATOM     22  C   UNL     1      51.847   3.106  18.013  0.00  0.00    +0.000 A 
ATOM     23  C   UNL     1      51.382   1.946  17.384  0.00  0.00    +0.000 A 
ATOM     24  C   UNL     1      50.050   1.862  16.964  0.00  0.00    +0.000 A 
BRANCH  22  25
ATOM     25  C   UNL     1      53.252   3.251  18.486  0.00  0.00    +0.000 C 
ATOM     26  N   UNL     1      53.609   2.559  19.611  0.00  0.00    +0.000 N 
ATOM     27  O   UNL     1      54.052   3.983  17.918  0.00  0.00    +0.000 OA
ATOM     28  H   UNL     1      52.931   2.155  20.241  0.00  0.00    +0.000 HD
ATOM     29  H   UNL     1      54.531   2.758  19.981  0.00  0.00    +0.000 HD
ENDBRANCH  22  25
ENDBRANCH  18  19
ENDBRANCH  17  18
ENDBRANCH   1  17
TORSDOF 7
ENDMDL
MODEL 7
REMARK VINA RESULT:    -6.100      4.072      6.117
REMARK INTER + INTRA:          -9.671
REMARK INTER:                  -8.913
REMARK INTRA:                  -0.758
REMARK UNBOUND:                -1.075
REMARK  Name = 
REMARK  8 active torsions:
REMARK  status: ('A' for Active; 'I' for Inactive)
REMARK    1  A    between atoms: C_1  and  C_2
REMARK    2  A    between atoms: C_7  and  N_8
REMARK    3  A    between atoms: N_8  and  C_9
REMARK    4  A    between atoms: C_9  and  C_10
REMARK    5  A    between atoms: C_10  and  C_11
REMARK    6  A    between atoms: C_14  and  C_15
REMARK    7  A    between atoms: C_20  and  O_21
REMARK    8  A    between atoms: O_21  and  C_22
REMARK                            x       y       z     vdW  Elec       q    Type
REMARK                         _______ _______ _______ _____ _____    ______ ____
ROOT
ATOM      1  N   UNL     1      48.670   7.429  15.428  0.00  0.00    +0.000 N 
ATOM      2  H   UNL     1      47.902   6.868  15.794  0.00  0.00    +0.000 HD
ENDROOT
BRANCH   1   9
ATOM      3  C   UNL     1      51.727   4.516  18.274  0.00  0.00    +0.000 C 
ATOM      4  C   UNL     1      51.467   5.532  17.195  0.00  0.00    +0.000 A 
ATOM      5  C   UNL     1      52.547   6.200  16.578  0.00  0.00    +0.000 A 
ATOM      6 CL   UNL     1      54.204   5.843  16.937  0.00  0.00    +0.000 Cl
ATOM      7  C   UNL     1      52.329   7.208  15.643  0.00  0.00    +0.000 A 
ATOM      8  C   UNL     1      51.033   7.579  15.314  0.00  0.00    +0.000 A 
ATOM      9  C   UNL     1      49.911   6.964  15.900  0.00  0.00    +0.000 A 
ATOM     10  C   UNL     1      50.144   5.894  16.813  0.00  0.00    +0.000 A 
BRANCH  10  11
ATOM     11  O   UNL     1      49.028   5.352  17.426  0.00  0.00    +0.000 OA
BRANCH  11  12
ATOM     12  C   UNL     1      48.450   4.101  16.979  0.00  0.00    +0.000 C 
ATOM     13  C   UNL     1      46.950   3.989  16.650  0.00  0.00    +0.000 C 
ATOM     14  N   UNL     1      46.772   2.955  17.677  0.00  0.00    +0.000 NA
ATOM     15  C   UNL     1      48.171   3.072  18.096  0.00  0.00    +0.000 C 
ATOM     16  H   UNL     1      46.521   2.035  17.314  0.00  0.00    +0.000 HD
ENDBRANCH  11  12
ENDBRANCH  10  11
ENDBRANCH   1   9
BRANCH   1  17
ATOM     17  C   UNL     1      48.470   7.824  14.037  0.00  0.00    +0.000 C 
BRANCH  17  18
ATOM     18  C   UNL     1      48.452   6.597  13.114  0.00  0.00    +0.000 C 
BRANCH  18  19
ATOM     19  C   UNL     1      47.042   6.215  12.723  0.00  0.00    +0.000 A 
ATOM     20  C   UNL     1      46.406   5.123  13.326  0.00  0.00    +0.000 A 
ATOM     21  C   UNL     1      45.114   4.754  12.941  0.00  0.00    +0.000 A 
ATOM     22  C   UNL     1      44.436   5.477  11.953  0.00  0.00    +0.000 A 
ATOM     23  C   UNL     1      45.073   6.556  11.331  0.00  0.00    +0.000 A 
ATOM     24  C   UNL     1      46.368   6.920  11.715  0.00  0.00    +0.000 A 
BRANCH  22  25
ATOM     25  C   UNL     1      43.057   5.046  11.591  0.00  0.00    +0.000 C 
ATOM     26  N   UNL     1      42.059   5.976  11.704  0.00  0.00    +0.000 N 
ATOM     27  O   UNL     1      42.810   3.900  11.237  0.00  0.00    +0.000 OA
ATOM     28  H   UNL     1      42.172   6.836  12.221  0.00  0.00    +0.000 HD
ATOM     29  H   UNL     1      41.116   5.634  11.563  0.00  0.00    +0.000 HD
ENDBRANCH  22  25
ENDBRANCH  18  19
ENDBRANCH  17  18
ENDBRANCH   1  17
TORSDOF 7
ENDMDL
MODEL 8
REMARK VINA RESULT:    -6.066      2.029      3.286
REMARK INTER + INTRA:          -9.623
REMARK INTER:                  -8.951
REMARK INTRA:                  -0.671
REMARK UNBOUND:                -1.075
REMARK  Name = 
REMARK  8 active torsions:
REMARK  status: ('A' for Active; 'I' for Inactive)
REMARK    1  A    between atoms: C_1  and  C_2
REMARK    2  A    between atoms: C_7  and  N_8
REMARK    3  A    between atoms: N_8  and  C_9
REMARK    4  A    between atoms: C_9  and  C_10
REMARK    5  A    between atoms: C_10  and  C_11
REMARK    6  A    between atoms: C_14  and  C_15
REMARK    7  A    between atoms: C_20  and  O_21
REMARK    8  A    between atoms: O_21  and  C_22
REMARK                            x       y       z     vdW  Elec       q    Type
REMARK                         _______ _______ _______ _____ _____    ______ ____
ROOT
ATOM      1  N   UNL     1      43.701   6.068  11.817  0.00  0.00    +0.000 N 
ATOM      2  H   UNL     1      42.904   6.269  12.419  0.00  0.00    +0.000 HD
ENDROOT
BRANCH   1   9
ATOM      3  C   UNL     1      48.609   6.351  13.146  0.00  0.00    +0.000 C 
ATOM      4  C   UNL     1      47.196   5.865  13.329  0.00  0.00    +0.000 A 
ATOM      5  C   UNL     1      46.903   4.897  14.314  0.00  0.00    +0.000 A 
ATOM      6 CL   UNL     1      48.092   4.284  15.415  0.00  0.00    +0.000 Cl
ATOM      7  C   UNL     1      45.624   4.366  14.442  0.00  0.00    +0.000 A 
ATOM      8  C   UNL     1      44.613   4.778  13.585  0.00  0.00    +0.000 A 
ATOM      9  C   UNL     1      44.838   5.731  12.573  0.00  0.00    +0.000 A 
ATOM     10  C   UNL     1      46.139   6.310  12.487  0.00  0.00    +0.000 A 
BRANCH  10  11
ATOM     11  O   UNL     1      46.353   7.192  11.442  0.00  0.00    +0.000 OA
BRANCH  11  12
ATOM     12  C   UNL     1      46.333   8.626  11.644  0.00  0.00    +0.000 C 
ATOM     13  C   UNL     1      47.607   9.393  12.043  0.00  0.00    +0.000 C 
ATOM     14  N   UNL     1      46.971   9.864  13.280  0.00  0.00    +0.000 NA
ATOM     15  C   UNL     1      45.760   9.090  13.000  0.00  0.00    +0.000 C 
ATOM     16  H   UNL     1      46.822  10.872  13.322  0.00  0.00    +0.000 HD
ENDBRANCH  11  12
ENDBRANCH  10  11
ENDBRANCH   1   9
BRANCH   1  17
ATOM     17  C   UNL     1      43.330   5.337  10.609  0.00  0.00    +0.000 C 
BRANCH  17  18
ATOM     18  C   UNL     1      43.779   3.872  10.694  0.00  0.00    +0.000 C 
BRANCH  18  19
ATOM     19  C   UNL     1      44.745   3.520   9.584  0.00  0.00    +0.000 A 
ATOM     20  C   UNL     1      45.031   2.182   9.286  0.00  0.00    +0.000 A 
ATOM     21  C   UNL     1      45.947   1.861   8.279  0.00  0.00    +0.000 A 
ATOM     22  C   UNL     1      46.583   2.872   7.552  0.00  0.00    +0.000 A 
ATOM     23  C   UNL     1      46.319   4.211   7.860  0.00  0.00    +0.000 A 
ATOM     24  C   UNL     1      45.406   4.531   8.871  0.00  0.00    +0.000 A 
BRANCH  22  25
ATOM     25  C   UNL     1      47.541   2.471   6.484  0.00  0.00    +0.000 C 
ATOM     26  N   UNL     1      47.308   2.947   5.222  0.00  0.00    +0.000 N 
ATOM     27  O   UNL     1      48.482   1.721   6.709  0.00  0.00    +0.000 OA
ATOM     28  H   UNL     1      46.424   3.350   4.946  0.00  0.00    +0.000 HD
ATOM     29  H   UNL     1      47.901   2.574   4.491  0.00  0.00    +0.000 HD
ENDBRANCH  22  25
ENDBRANCH  18  19
ENDBRANCH  17  18
ENDBRANCH   1  17
TORSDOF 7
ENDMDL
MODEL 9
REMARK VINA RESULT:    -5.735      3.194      4.638
REMARK INTER + INTRA:          -9.157
REMARK INTER:                  -8.486
REMARK INTRA:                  -0.671
REMARK UNBOUND:                -1.075
REMARK  Name = 
REMARK  8 active torsions:
REMARK  status: ('A' for Active; 'I' for Inactive)
REMARK    1  A    between atoms: C_1  and  C_2
REMARK    2  A    between atoms: C_7  and  N_8
REMARK    3  A    between atoms: N_8  and  C_9
REMARK    4  A    between atoms: C_9  and  C_10
REMARK    5  A    between atoms: C_10  and  C_11
REMARK    6  A    between atoms: C_14  and  C_15
REMARK    7  A    between atoms: C_20  and  O_21
REMARK    8  A    between atoms: O_21  and  C_22
REMARK                            x       y       z     vdW  Elec       q    Type
REMARK                         _______ _______ _______ _____ _____    ______ ____
ROOT
ATOM      1  N   UNL     1      47.440   7.633  14.352  0.00  0.00    +0.000 N 
ATOM      2  H   UNL     1      46.959   6.761  14.566  0.00  0.00    +0.000 HD
ENDROOT
BRANCH   1   9
ATOM      3  C   UNL     1      51.362   6.201  17.268  0.00  0.00    +0.000 C 
ATOM      4  C   UNL     1      50.765   6.856  16.052  0.00  0.00    +0.000 A 
ATOM      5  C   UNL     1      51.588   7.580  15.162  0.00  0.00    +0.000 A 
ATOM      6 CL   UNL     1      53.308   7.686  15.345  0.00  0.00    +0.000 Cl
ATOM      7  C   UNL     1      51.047   8.270  14.081  0.00  0.00    +0.000 A 
ATOM      8  C   UNL     1      49.675   8.263  13.872  0.00  0.00    +0.000 A 
ATOM      9  C   UNL     1      48.795   7.573  14.726  0.00  0.00    +0.000 A 
ATOM     10  C   UNL     1      49.365   6.822  15.797  0.00  0.00    +0.000 A 
BRANCH  10  11
ATOM     11  O   UNL     1      48.475   6.209  16.662  0.00  0.00    +0.000 OA
BRANCH  11  12
ATOM     12  C   UNL     1      48.323   4.769  16.699  0.00  0.00    +0.000 C 
ATOM     13  C   UNL     1      47.090   4.081  16.086  0.00  0.00    +0.000 C 
ATOM     14  N   UNL     1      46.731   3.501  17.386  0.00  0.00    +0.000 NA
ATOM     15  C   UNL     1      47.839   4.195  18.048  0.00  0.00    +0.000 C 
ATOM     16  H   UNL     1      46.792   2.484  17.428  0.00  0.00    +0.000 HD
ENDBRANCH  11  12
ENDBRANCH  10  11
ENDBRANCH   1   9
BRANCH   1  17
ATOM     17  C   UNL     1      47.013   8.221  13.086  0.00  0.00    +0.000 C 
BRANCH  17  18
ATOM     18  C   UNL     1      45.500   8.057  12.887  0.00  0.00    +0.000 C 
BRANCH  18  19
ATOM     19  C   UNL     1      45.178   6.857  12.025  0.00  0.00    +0.000 A 
ATOM     20  C   UNL     1      46.061   6.446  11.018  0.00  0.00    +0.000 A 
ATOM     21  C   UNL     1      45.747   5.354  10.203  0.00  0.00    +0.000 A 
ATOM     22  C   UNL     1      44.551   4.653  10.389  0.00  0.00    +0.000 A 
ATOM     23  C   UNL     1      43.654   5.071  11.378  0.00  0.00    +0.000 A 
ATOM     24  C   UNL     1      43.969   6.167  12.189  0.00  0.00    +0.000 A 
BRANCH  22  25
ATOM     25  C   UNL     1      44.274   3.490   9.499  0.00  0.00    +0.000 C 
ATOM     26  N   UNL     1      44.343   3.703   8.149  0.00  0.00    +0.000 N 
ATOM     27  O   UNL     1      43.963   2.394   9.948  0.00  0.00    +0.000 OA
ATOM     28  H   UNL     1      44.345   4.627   7.742  0.00  0.00    +0.000 HD
ATOM     29  H   UNL     1      44.042   2.934   7.563  0.00  0.00    +0.000 HD
ENDBRANCH  22  25
ENDBRANCH  18  19
ENDBRANCH  17  18
ENDBRANCH   1  17
TORSDOF 7
ENDMDL
