MODEL 1
REMARK VINA RESULT:    -9.508      0.000      0.000
REMARK INTER + INTRA:         -12.529
REMARK INTER:                 -12.287
REMARK INTRA:                  -0.242
REMARK UNBOUND:                -0.242
REMARK  Name = 
REMARK  7 active torsions:
REMARK  status: ('A' for Active; 'I' for Inactive)
REMARK    1  A    between atoms: C_1  and  C_2
REMARK    2  A    between atoms: C_2  and  C_3
REMARK    3  A    between atoms: C_2  and  C_4
REMARK    4  A    between atoms: C_2  and  N_18
REMARK    5  A    between atoms: C_5  and  C_6
REMARK    6  A    between atoms: C_10  and  C_11
REMARK    7  A    between atoms: C_22  and  C_23
REMARK                            x       y       z     vdW  Elec       q    Type
REMARK                         _______ _______ _______ _____ _____    ______ ____
ROOT
ATOM      1  C   UNL     1      43.349   3.279  11.689  0.00  0.00    +0.000 C 
ATOM      2  C   UNL     1      43.507   4.782  11.389  0.00  0.00    +0.000 C 
ATOM      3  C   UNL     1      42.136   5.453  11.584  0.00  0.00    +0.000 C 
ENDROOT
BRANCH   2   4
ATOM      4  N   UNL     1      43.949   4.942   9.993  0.00  0.00    +0.000 N 
ATOM      5  C   UNL     1      44.788   4.078   9.310  0.00  0.00    +0.000 A 
ATOM      6  C   UNL     1      44.820   2.700   9.491  0.00  0.00    +0.000 A 
ATOM      7  C   UNL     1      45.654   1.889   8.727  0.00  0.00    +0.000 A 
ATOM      8  C   UNL     1      46.458   2.459   7.756  0.00  0.00    +0.000 A 
ATOM      9  C   UNL     1      46.372   3.836   7.615  0.00  0.00    +0.000 A 
ATOM     10  N   UNL     1      45.566   4.646   8.366  0.00  0.00    +0.000 NA
ATOM     11  H   UNL     1      44.232   5.888   9.746  0.00  0.00    +0.000 HD
BRANCH   8  12
ATOM     12  C   UNL     1      47.326   1.559   6.960  0.00  0.00    +0.000 C 
ATOM     13  N   UNL     1      48.460   2.059   6.393  0.00  0.00    +0.000 N 
ATOM     14  O   UNL     1      47.043   0.374   6.806  0.00  0.00    +0.000 OA
ATOM     15  H   UNL     1      48.776   3.013   6.446  0.00  0.00    +0.000 HD
ATOM     16  H   UNL     1      49.014   1.400   5.857  0.00  0.00    +0.000 HD
ENDBRANCH   8  12
ENDBRANCH   2   4
BRANCH   2  17
ATOM     17  C   UNL     1      44.629   5.267  12.284  0.00  0.00    +0.000 C 
ATOM     18  C   UNL     1      45.589   6.146  11.951  0.00  0.00    +0.000 C 
BRANCH  18  19
ATOM     19  C   UNL     1      46.843   6.327  12.700  0.00  0.00    +0.000 A 
ATOM     20  C   UNL     1      47.750   7.359  12.427  0.00  0.00    +0.000 A 
ATOM     21  C   UNL     1      48.841   7.579  13.262  0.00  0.00    +0.000 A 
ATOM     22  C   UNL     1      49.014   6.795  14.404  0.00  0.00    +0.000 A 
ATOM     23  C   UNL     1      48.089   5.796  14.749  0.00  0.00    +0.000 A 
ATOM     24  C   UNL     1      47.025   5.562  13.857  0.00  0.00    +0.000 A 
BRANCH  23  25
ATOM     25  C   UNL     1      48.132   5.100  16.055  0.00  0.00    +0.000 A 
ATOM     26  C   UNL     1      47.352   3.952  16.284  0.00  0.00    +0.000 A 
ATOM     27  C   UNL     1      47.483   3.202  17.454  0.00  0.00    +0.000 A 
ATOM     28  C   UNL     1      48.405   3.581  18.424  0.00  0.00    +0.000 A 
ATOM     29  C   UNL     1      49.172   4.726  18.237  0.00  0.00    +0.000 A 
ATOM     30  C   UNL     1      49.026   5.485  17.072  0.00  0.00    +0.000 A 
ENDBRANCH  23  25
ENDBRANCH  18  19
ENDBRANCH   2  17
TORSDOF 5
ENDMDL
MODEL 2
REMARK VINA RESULT:    -9.054      1.146      3.379
REMARK INTER + INTRA:         -11.943
REMARK INTER:                 -11.495
REMARK INTRA:                  -0.448
REMARK UNBOUND:                -0.242
REMARK  Name = 
REMARK  7 active torsions:
REMARK  status: ('A' for Active; 'I' for Inactive)
REMARK    1  A    between atoms: C_1  and  C_2
REMARK    2  A    between atoms: C_2  and  C_3
REMARK    3  A    between atoms: C_2  and  C_4
REMARK    4  A    between atoms: C_2  and  N_18
REMARK    5  A    between atoms: C_5  and  C_6
REMARK    6  A    between atoms: C_10  and  C_11
REMARK    7  A    between atoms: C_22  and  C_23
REMARK                            x       y       z     vdW  Elec       q    Type
REMARK                         _______ _______ _______ _____ _____    ______ ____
ROOT
ATOM      1  C   UNL     1      43.530   3.155  11.735  0.00  0.00    +0.000 C 
ATOM      2  C   UNL     1      43.751   4.647  11.419  0.00  0.00    +0.000 C 
ATOM      3  C   UNL     1      42.472   5.410  11.807  0.00  0.00    +0.000 C 
ENDROOT
BRANCH   2   4
ATOM      4  N   UNL     1      44.003   4.793   9.976  0.00  0.00    +0.000 N 
ATOM      5  C   UNL     1      44.856   4.003   9.223  0.00  0.00    +0.000 A 
ATOM      6  C   UNL     1      45.077   2.649   9.443  0.00  0.00    +0.000 A 
ATOM      7  C   UNL     1      45.909   1.907   8.610  0.00  0.00    +0.000 A 
ATOM      8  C   UNL     1      46.518   2.522   7.530  0.00  0.00    +0.000 A 
ATOM      9  C   UNL     1      46.248   3.871   7.357  0.00  0.00    +0.000 A 
ATOM     10  N   UNL     1      45.442   4.615   8.174  0.00  0.00    +0.000 NA
ATOM     11  H   UNL     1      44.137   5.753   9.666  0.00  0.00    +0.000 HD
BRANCH   8  12
ATOM     12  C   UNL     1      47.391   1.695   6.664  0.00  0.00    +0.000 C 
ATOM     13  N   UNL     1      48.423   2.287   5.999  0.00  0.00    +0.000 N 
ATOM     14  O   UNL     1      47.203   0.488   6.537  0.00  0.00    +0.000 OA
ATOM     15  H   UNL     1      48.656   3.266   6.023  0.00  0.00    +0.000 HD
ATOM     16  H   UNL     1      48.985   1.675   5.418  0.00  0.00    +0.000 HD
ENDBRANCH   8  12
ENDBRANCH   2   4
BRANCH   2  17
ATOM     17  C   UNL     1      45.019   5.041  12.149  0.00  0.00    +0.000 C 
ATOM     18  C   UNL     1      45.534   4.438  13.233  0.00  0.00    +0.000 C 
BRANCH  18  19
ATOM     19  C   UNL     1      46.547   5.040  14.114  0.00  0.00    +0.000 A 
ATOM     20  C   UNL     1      46.896   4.495  15.356  0.00  0.00    +0.000 A 
ATOM     21  C   UNL     1      47.967   5.014  16.078  0.00  0.00    +0.000 A 
ATOM     22  C   UNL     1      48.726   6.056  15.547  0.00  0.00    +0.000 A 
ATOM     23  C   UNL     1      48.451   6.584  14.274  0.00  0.00    +0.000 A 
ATOM     24  C   UNL     1      47.331   6.075  13.591  0.00  0.00    +0.000 A 
BRANCH  23  25
ATOM     25  C   UNL     1      49.364   7.536  13.602  0.00  0.00    +0.000 A 
ATOM     26  C   UNL     1      49.515   7.522  12.204  0.00  0.00    +0.000 A 
ATOM     27  C   UNL     1      50.260   8.498  11.539  0.00  0.00    +0.000 A 
ATOM     28  C   UNL     1      50.869   9.518  12.261  0.00  0.00    +0.000 A 
ATOM     29  C   UNL     1      50.759   9.544  13.647  0.00  0.00    +0.000 A 
ATOM     30  C   UNL     1      50.027   8.555  14.311  0.00  0.00    +0.000 A 
ENDBRANCH  23  25
ENDBRANCH  18  19
ENDBRANCH   2  17
TORSDOF 5
ENDMDL
MODEL 3
REMARK VINA RESULT:    -8.957      3.600      8.093
REMARK INTER + INTRA:         -11.817
REMARK INTER:                 -11.145
REMARK INTRA:                  -0.672
REMARK UNBOUND:                -0.242
REMARK  Name = 
REMARK  7 active torsions:
REMARK  status: ('A' for Active; 'I' for Inactive)
REMARK    1  A    between atoms: C_1  and  C_2
REMARK    2  A    between atoms: C_2  and  C_3
REMARK    3  A    between atoms: C_2  and  C_4
REMARK    4  A    between atoms: C_2  and  N_18
REMARK    5  A    between atoms: C_5  and  C_6
REMARK    6  A    between atoms: C_10  and  C_11
REMARK    7  A    between atoms: C_22  and  C_23
REMARK                            x       y       z     vdW  Elec       q    Type
REMARK                         _______ _______ _______ _____ _____    ______ ____
ROOT
ATOM      1  C   UNL     1      49.393   8.770  11.535  0.00  0.00    +0.000 C 
ATOM      2  C   UNL     1      48.446   8.162  12.587  0.00  0.00    +0.000 C 
ATOM      3  C   UNL     1      47.760   9.319  13.335  0.00  0.00    +0.000 C 
ENDROOT
BRANCH   2   4
ATOM      4  N   UNL     1      49.241   7.357  13.530  0.00  0.00    +0.000 N 
ATOM      5  C   UNL     1      48.728   6.498  14.486  0.00  0.00    +0.000 A 
ATOM      6  C   UNL     1      47.570   5.744  14.332  0.00  0.00    +0.000 A 
ATOM      7  C   UNL     1      47.145   4.860  15.318  0.00  0.00    +0.000 A 
ATOM      8  C   UNL     1      47.895   4.712  16.472  0.00  0.00    +0.000 A 
ATOM      9  C   UNL     1      49.045   5.481  16.562  0.00  0.00    +0.000 A 
ATOM     10  N   UNL     1      49.469   6.362  15.606  0.00  0.00    +0.000 NA
ATOM     11  H   UNL     1      50.014   7.856  13.963  0.00  0.00    +0.000 HD
BRANCH   8  12
ATOM     12  C   UNL     1      47.410   3.754  17.495  0.00  0.00    +0.000 C 
ATOM     13  N   UNL     1      48.021   3.717  18.713  0.00  0.00    +0.000 N 
ATOM     14  O   UNL     1      46.470   2.998  17.265  0.00  0.00    +0.000 OA
ATOM     15  H   UNL     1      48.804   4.281  18.998  0.00  0.00    +0.000 HD
ATOM     16  H   UNL     1      47.651   3.042  19.372  0.00  0.00    +0.000 HD
ENDBRANCH   8  12
ENDBRANCH   2   4
BRANCH   2  17
ATOM     17  C   UNL     1      47.537   7.217  11.829  0.00  0.00    +0.000 C 
ATOM     18  C   UNL     1      46.208   7.341  11.677  0.00  0.00    +0.000 C 
BRANCH  18  19
ATOM     19  C   UNL     1      45.317   6.249  11.251  0.00  0.00    +0.000 A 
ATOM     20  C   UNL     1      43.938   6.256  11.491  0.00  0.00    +0.000 A 
ATOM     21  C   UNL     1      43.120   5.279  10.932  0.00  0.00    +0.000 A 
ATOM     22  C   UNL     1      43.666   4.307  10.094  0.00  0.00    +0.000 A 
ATOM     23  C   UNL     1      45.035   4.307   9.774  0.00  0.00    +0.000 A 
ATOM     24  C   UNL     1      45.845   5.276  10.395  0.00  0.00    +0.000 A 
BRANCH  23  25
ATOM     25  C   UNL     1      45.599   3.425   8.727  0.00  0.00    +0.000 A 
ATOM     26  C   UNL     1      46.255   3.967   7.607  0.00  0.00    +0.000 A 
ATOM     27  C   UNL     1      46.915   3.155   6.683  0.00  0.00    +0.000 A 
ATOM     28  C   UNL     1      46.938   1.776   6.861  0.00  0.00    +0.000 A 
ATOM     29  C   UNL     1      46.276   1.209   7.945  0.00  0.00    +0.000 A 
ATOM     30  C   UNL     1      45.601   2.024   8.859  0.00  0.00    +0.000 A 
ENDBRANCH  23  25
ENDBRANCH  18  19
ENDBRANCH   2  17
TORSDOF 5
ENDMDL
MODEL 4
REMARK VINA RESULT:    -8.730      2.145      4.667
REMARK INTER + INTRA:         -11.524
REMARK INTER:                 -11.421
REMARK INTRA:                  -0.102
REMARK UNBOUND:                -0.242
REMARK  Name = 
REMARK  7 active torsions:
REMARK  status: ('A' for Active; 'I' for Inactive)
REMARK    1  A    between atoms: C_1  and  C_2
REMARK    2  A    between atoms: C_2  and  C_3
REMARK    3  A    between atoms: C_2  and  C_4
REMARK    4  A    between atoms: C_2  and  N_18
REMARK    5  A    between atoms: C_5  and  C_6
REMARK    6  A    between atoms: C_10  and  C_11
REMARK    7  A    between atoms: C_22  and  C_23
REMARK                            x       y       z     vdW  Elec       q    Type
REMARK                         _______ _______ _______ _____ _____    ______ ____
ROOT
ATOM      1  C   UNL     1      43.921   3.408  11.833  0.00  0.00    +0.000 C 
ATOM      2  C   UNL     1      43.796   4.883  11.404  0.00  0.00    +0.000 C 
ATOM      3  C   UNL     1      42.340   5.324  11.634  0.00  0.00    +0.000 C 
ENDROOT
BRANCH   2   4
ATOM      4  N   UNL     1      44.132   4.989   9.974  0.00  0.00    +0.000 N 
ATOM      5  C   UNL     1      44.934   4.109   9.267  0.00  0.00    +0.000 A 
ATOM      6  C   UNL     1      45.003   2.741   9.502  0.00  0.00    +0.000 A 
ATOM      7  C   UNL     1      45.793   1.910   8.714  0.00  0.00    +0.000 A 
ATOM      8  C   UNL     1      46.514   2.449   7.664  0.00  0.00    +0.000 A 
ATOM      9  C   UNL     1      46.394   3.818   7.472  0.00  0.00    +0.000 A 
ATOM     10  N   UNL     1      45.631   4.648   8.246  0.00  0.00    +0.000 NA
ATOM     11  H   UNL     1      44.380   5.928   9.668  0.00  0.00    +0.000 HD
BRANCH   8  12
ATOM     12  C   UNL     1      47.337   1.529   6.844  0.00  0.00    +0.000 C 
ATOM     13  N   UNL     1      48.485   1.992   6.272  0.00  0.00    +0.000 N 
ATOM     14  O   UNL     1      47.005   0.359   6.673  0.00  0.00    +0.000 OA
ATOM     15  H   UNL     1      48.839   2.932   6.338  0.00  0.00    +0.000 HD
ATOM     16  H   UNL     1      49.006   1.321   5.720  0.00  0.00    +0.000 HD
ENDBRANCH   8  12
ENDBRANCH   2   4
BRANCH   2  17
ATOM     17  C   UNL     1      44.859   5.632  12.182  0.00  0.00    +0.000 C 
ATOM     18  C   UNL     1      45.629   6.630  11.719  0.00  0.00    +0.000 C 
BRANCH  18  19
ATOM     19  C   UNL     1      46.868   7.090  12.367  0.00  0.00    +0.000 A 
ATOM     20  C   UNL     1      47.527   6.352  13.358  0.00  0.00    +0.000 A 
ATOM     21  C   UNL     1      48.774   6.756  13.826  0.00  0.00    +0.000 A 
ATOM     22  C   UNL     1      49.395   7.879  13.278  0.00  0.00    +0.000 A 
ATOM     23  C   UNL     1      48.797   8.605  12.234  0.00  0.00    +0.000 A 
ATOM     24  C   UNL     1      47.514   8.204  11.818  0.00  0.00    +0.000 A 
BRANCH  23  25
ATOM     25  C   UNL     1      49.523   9.663  11.495  0.00  0.00    +0.000 A 
ATOM     26  C   UNL     1      50.904   9.553  11.254  0.00  0.00    +0.000 A 
ATOM     27  C   UNL     1      51.579  10.466  10.442  0.00  0.00    +0.000 A 
ATOM     28  C   UNL     1      50.884  11.511   9.843  0.00  0.00    +0.000 A 
ATOM     29  C   UNL     1      49.522  11.660  10.083  0.00  0.00    +0.000 A 
ATOM     30  C   UNL     1      48.853  10.754  10.912  0.00  0.00    +0.000 A 
ENDBRANCH  23  25
ENDBRANCH  18  19
ENDBRANCH   2  17
TORSDOF 5
ENDMDL
MODEL 5
REMARK VINA RESULT:    -7.946      4.392      7.833
REMARK INTER + INTRA:         -10.510
REMARK INTER:                  -9.772
REMARK INTRA:                  -0.739
REMARK UNBOUND:                -0.242
REMARK  Name = 
REMARK  7 active torsions:
REMARK  status: ('A' for Active; 'I' for Inactive)
REMARK    1  A    between atoms: C_1  and  C_2
REMARK    2  A    between atoms: C_2  and  C_3
REMARK    3  A    between atoms: C_2  and  C_4
REMARK    4  A    between atoms: C_2  and  N_18
REMARK    5  A    between atoms: C_5  and  C_6
REMARK    6  A    between atoms: C_10  and  C_11
REMARK    7  A    between atoms: C_22  and  C_23
REMARK                            x       y       z     vdW  Elec       q    Type
REMARK                         _______ _______ _______ _____ _____    ______ ____
ROOT
ATOM      1  C   UNL     1      45.124   9.454  12.512  0.00  0.00    +0.000 C 
ATOM      2  C   UNL     1      46.450   8.671  12.504  0.00  0.00    +0.000 C 
ATOM      3  C   UNL     1      46.984   8.622  13.946  0.00  0.00    +0.000 C 
ENDROOT
BRANCH   2   4
ATOM      4  N   UNL     1      47.410   9.375  11.637  0.00  0.00    +0.000 N 
ATOM      5  C   UNL     1      48.759   9.084  11.526  0.00  0.00    +0.000 A 
ATOM      6  C   UNL     1      49.302   7.808  11.619  0.00  0.00    +0.000 A 
ATOM      7  C   UNL     1      50.664   7.586  11.443  0.00  0.00    +0.000 A 
ATOM      8  C   UNL     1      51.497   8.652  11.153  0.00  0.00    +0.000 A 
ATOM      9  C   UNL     1      50.895   9.897  11.061  0.00  0.00    +0.000 A 
ATOM     10  N   UNL     1      49.560  10.132  11.243  0.00  0.00    +0.000 NA
ATOM     11  H   UNL     1      47.326  10.389  11.650  0.00  0.00    +0.000 HD
BRANCH   8  12
ATOM     12  C   UNL     1      52.941   8.371  10.966  0.00  0.00    +0.000 C 
ATOM     13  N   UNL     1      53.389   7.088  11.071  0.00  0.00    +0.000 N 
ATOM     14  O   UNL     1      53.737   9.271  10.715  0.00  0.00    +0.000 OA
ATOM     15  H   UNL     1      52.825   6.282  11.286  0.00  0.00    +0.000 HD
ATOM     16  H   UNL     1      54.384   6.954  10.938  0.00  0.00    +0.000 HD
ENDBRANCH   8  12
ENDBRANCH   2   4
BRANCH   2  17
ATOM     17  C   UNL     1      46.139   7.337  11.854  0.00  0.00    +0.000 C 
ATOM     18  C   UNL     1      44.918   6.819  11.645  0.00  0.00    +0.000 C 
BRANCH  18  19
ATOM     19  C   UNL     1      44.659   5.402  11.345  0.00  0.00    +0.000 A 
ATOM     20  C   UNL     1      43.597   4.686  11.911  0.00  0.00    +0.000 A 
ATOM     21  C   UNL     1      43.304   3.397  11.476  0.00  0.00    +0.000 A 
ATOM     22  C   UNL     1      44.044   2.825  10.442  0.00  0.00    +0.000 A 
ATOM     23  C   UNL     1      45.072   3.537   9.801  0.00  0.00    +0.000 A 
ATOM     24  C   UNL     1      45.380   4.817  10.297  0.00  0.00    +0.000 A 
BRANCH  23  25
ATOM     25  C   UNL     1      45.726   3.039   8.570  0.00  0.00    +0.000 A 
ATOM     26  C   UNL     1      46.121   3.929   7.555  0.00  0.00    +0.000 A 
ATOM     27  C   UNL     1      46.862   3.499   6.453  0.00  0.00    +0.000 A 
ATOM     28  C   UNL     1      47.232   2.163   6.343  0.00  0.00    +0.000 A 
ATOM     29  C   UNL     1      46.834   1.254   7.318  0.00  0.00    +0.000 A 
ATOM     30  C   UNL     1      46.077   1.685   8.411  0.00  0.00    +0.000 A 
ENDBRANCH  23  25
ENDBRANCH  18  19
ENDBRANCH   2  17
TORSDOF 5
ENDMDL
MODEL 6
REMARK VINA RESULT:    -7.632      4.339      8.749
REMARK INTER + INTRA:         -10.105
REMARK INTER:                  -9.926
REMARK INTRA:                  -0.180
REMARK UNBOUND:                -0.242
REMARK  Name = 
REMARK  7 active torsions:
REMARK  status: ('A' for Active; 'I' for Inactive)
REMARK    1  A    between atoms: C_1  and  C_2
REMARK    2  A    between atoms: C_2  and  C_3
REMARK    3  A    between atoms: C_2  and  C_4
REMARK    4  A    between atoms: C_2  and  N_18
REMARK    5  A    between atoms: C_5  and  C_6
REMARK    6  A    between atoms: C_10  and  C_11
REMARK    7  A    between atoms: C_22  and  C_23
REMARK                            x       y       z     vdW  Elec       q    Type
REMARK                         _______ _______ _______ _____ _____    ______ ____
ROOT
ATOM      1  C   UNL     1      49.530   7.305  13.381  0.00  0.00    +0.000 C 
ATOM      2  C   UNL     1      48.113   7.421  13.974  0.00  0.00    +0.000 C 
ATOM      3  C   UNL     1      47.808   8.914  14.188  0.00  0.00    +0.000 C 
ENDROOT
BRANCH   2   4
ATOM      4  N   UNL     1      48.081   6.712  15.264  0.00  0.00    +0.000 N 
ATOM      5  C   UNL     1      49.184   6.224  15.943  0.00  0.00    +0.000 A 
ATOM      6  C   UNL     1      50.437   6.825  15.949  0.00  0.00    +0.000 A 
ATOM      7  C   UNL     1      51.487   6.305  16.700  0.00  0.00    +0.000 A 
ATOM      8  C   UNL     1      51.279   5.174  17.470  0.00  0.00    +0.000 A 
ATOM      9  C   UNL     1      50.005   4.628  17.432  0.00  0.00    +0.000 A 
ATOM     10  N   UNL     1      48.968   5.123  16.691  0.00  0.00    +0.000 NA
ATOM     11  H   UNL     1      47.350   6.009  15.341  0.00  0.00    +0.000 HD
BRANCH   8  12
ATOM     12  C   UNL     1      52.421   4.656  18.261  0.00  0.00    +0.000 C 
ATOM     13  N   UNL     1      52.175   3.921  19.383  0.00  0.00    +0.000 N 
ATOM     14  O   UNL     1      53.581   4.873  17.922  0.00  0.00    +0.000 OA
ATOM     15  H   UNL     1      51.266   3.697  19.754  0.00  0.00    +0.000 HD
ATOM     16  H   UNL     1      52.992   3.595  19.886  0.00  0.00    +0.000 HD
ENDBRANCH   8  12
ENDBRANCH   2   4
BRANCH   2  17
ATOM     17  C   UNL     1      47.202   6.677  13.019  0.00  0.00    +0.000 C 
ATOM     18  C   UNL     1      45.869   6.812  12.923  0.00  0.00    +0.000 C 
BRANCH  18  19
ATOM     19  C   UNL     1      44.984   5.845  12.253  0.00  0.00    +0.000 A 
ATOM     20  C   UNL     1      43.597   5.826  12.441  0.00  0.00    +0.000 A 
ATOM     21  C   UNL     1      42.791   4.996  11.668  0.00  0.00    +0.000 A 
ATOM     22  C   UNL     1      43.359   4.205  10.669  0.00  0.00    +0.000 A 
ATOM     23  C   UNL     1      44.739   4.247  10.404  0.00  0.00    +0.000 A 
ATOM     24  C   UNL     1      45.534   5.056  11.236  0.00  0.00    +0.000 A 
BRANCH  23  25
ATOM     25  C   UNL     1      45.333   3.586   9.220  0.00  0.00    +0.000 A 
ATOM     26  C   UNL     1      45.910   4.346   8.186  0.00  0.00    +0.000 A 
ATOM     27  C   UNL     1      46.598   3.741   7.132  0.00  0.00    +0.000 A 
ATOM     28  C   UNL     1      46.730   2.358   7.091  0.00  0.00    +0.000 A 
ATOM     29  C   UNL     1      46.149   1.578   8.085  0.00  0.00    +0.000 A 
ATOM     30  C   UNL     1      45.445   2.186   9.130  0.00  0.00    +0.000 A 
ENDBRANCH  23  25
ENDBRANCH  18  19
ENDBRANCH   2  17
TORSDOF 5
ENDMDL
MODEL 7
REMARK VINA RESULT:    -7.257      3.007      4.789
REMARK INTER + INTRA:          -9.621
REMARK INTER:                  -8.820
REMARK INTRA:                  -0.801
REMARK UNBOUND:                -0.242
REMARK  Name = 
REMARK  7 active torsions:
REMARK  status: ('A' for Active; 'I' for Inactive)
REMARK    1  A    between atoms: C_1  and  C_2
REMARK    2  A    between atoms: C_2  and  C_3
REMARK    3  A    between atoms: C_2  and  C_4
REMARK    4  A    between atoms: C_2  and  N_18
REMARK    5  A    between atoms: C_5  and  C_6
REMARK    6  A    between atoms: C_10  and  C_11
REMARK    7  A    between atoms: C_22  and  C_23
REMARK                            x       y       z     vdW  Elec       q    Type
REMARK                         _______ _______ _______ _____ _____    ______ ____
ROOT
ATOM      1  C   UNL     1      47.633  10.356  12.544  0.00  0.00    +0.000 C 
ATOM      2  C   UNL     1      47.571   8.817  12.595  0.00  0.00    +0.000 C 
ATOM      3  C   UNL     1      48.716   8.266  11.728  0.00  0.00    +0.000 C 
ENDROOT
BRANCH   2   4
ATOM      4  N   UNL     1      46.274   8.378  12.051  0.00  0.00    +0.000 N 
ATOM      5  C   UNL     1      45.814   7.073  12.023  0.00  0.00    +0.000 A 
ATOM      6  C   UNL     1      46.082   6.119  12.998  0.00  0.00    +0.000 A 
ATOM      7  C   UNL     1      45.539   4.840  12.928  0.00  0.00    +0.000 A 
ATOM      8  C   UNL     1      44.701   4.511  11.878  0.00  0.00    +0.000 A 
ATOM      9  C   UNL     1      44.462   5.508  10.944  0.00  0.00    +0.000 A 
ATOM     10  N   UNL     1      44.998   6.765  10.994  0.00  0.00    +0.000 NA
ATOM     11  H   UNL     1      46.026   8.800  11.159  0.00  0.00    +0.000 HD
BRANCH   8  12
ATOM     12  C   UNL     1      44.138   3.140  11.845  0.00  0.00    +0.000 C 
ATOM     13  N   UNL     1      44.178   2.431  10.681  0.00  0.00    +0.000 N 
ATOM     14  O   UNL     1      43.639   2.632  12.845  0.00  0.00    +0.000 OA
ATOM     15  H   UNL     1      44.551   2.757   9.804  0.00  0.00    +0.000 HD
ATOM     16  H   UNL     1      43.776   1.502  10.715  0.00  0.00    +0.000 HD
ENDBRANCH   8  12
ENDBRANCH   2   4
BRANCH   2  17
ATOM     17  C   UNL     1      47.600   8.449  14.064  0.00  0.00    +0.000 C 
ATOM     18  C   UNL     1      48.446   8.933  14.989  0.00  0.00    +0.000 C 
BRANCH  18  19
ATOM     19  C   UNL     1      48.682   8.311  16.302  0.00  0.00    +0.000 A 
ATOM     20  C   UNL     1      48.291   8.908  17.507  0.00  0.00    +0.000 A 
ATOM     21  C   UNL     1      48.396   8.210  18.707  0.00  0.00    +0.000 A 
ATOM     22  C   UNL     1      48.855   6.893  18.709  0.00  0.00    +0.000 A 
ATOM     23  C   UNL     1      49.192   6.236  17.513  0.00  0.00    +0.000 A 
ATOM     24  C   UNL     1      49.125   6.983  16.323  0.00  0.00    +0.000 A 
BRANCH  23  25
ATOM     25  C   UNL     1      49.475   4.783  17.466  0.00  0.00    +0.000 A 
ATOM     26  C   UNL     1      48.487   3.872  17.051  0.00  0.00    +0.000 A 
ATOM     27  C   UNL     1      48.773   2.518  16.865  0.00  0.00    +0.000 A 
ATOM     28  C   UNL     1      50.062   2.044  17.084  0.00  0.00    +0.000 A 
ATOM     29  C   UNL     1      51.054   2.917  17.519  0.00  0.00    +0.000 A 
ATOM     30  C   UNL     1      50.759   4.268  17.722  0.00  0.00    +0.000 A 
ENDBRANCH  23  25
ENDBRANCH  18  19
ENDBRANCH   2  17
TORSDOF 5
ENDMDL
MODEL 8
REMARK VINA RESULT:    -7.227      3.263      5.652
REMARK INTER + INTRA:          -9.582
REMARK INTER:                  -8.794
REMARK INTRA:                  -0.788
REMARK UNBOUND:                -0.242
REMARK  Name = 
REMARK  7 active torsions:
REMARK  status: ('A' for Active; 'I' for Inactive)
REMARK    1  A    between atoms: C_1  and  C_2
REMARK    2  A    between atoms: C_2  and  C_3
REMARK    3  A    between atoms: C_2  and  C_4
REMARK    4  A    between atoms: C_2  and  N_18
REMARK    5  A    between atoms: C_5  and  C_6
REMARK    6  A    between atoms: C_10  and  C_11
REMARK    7  A    between atoms: C_22  and  C_23
REMARK                            x       y       z     vdW  Elec       q    Type
REMARK                         _______ _______ _______ _____ _____    ______ ____
ROOT
ATOM      1  C   UNL     1      48.809   9.202  14.208  0.00  0.00    +0.000 C 
ATOM      2  C   UNL     1      48.427   7.742  13.900  0.00  0.00    +0.000 C 
ATOM      3  C   UNL     1      49.165   7.316  12.619  0.00  0.00    +0.000 C 
ENDROOT
BRANCH   2   4
ATOM      4  N   UNL     1      46.972   7.668  13.689  0.00  0.00    +0.000 N 
ATOM      5  C   UNL     1      46.287   6.580  13.174  0.00  0.00    +0.000 A 
ATOM      6  C   UNL     1      46.638   5.252  13.387  0.00  0.00    +0.000 A 
ATOM      7  C   UNL     1      45.869   4.209  12.881  0.00  0.00    +0.000 A 
ATOM      8  C   UNL     1      44.721   4.494  12.163  0.00  0.00    +0.000 A 
ATOM      9  C   UNL     1      44.417   5.837  11.995  0.00  0.00    +0.000 A 
ATOM     10  N   UNL     1      45.169   6.872  12.477  0.00  0.00    +0.000 NA
ATOM     11  H   UNL     1      46.563   8.501  13.271  0.00  0.00    +0.000 HD
BRANCH   8  12
ATOM     12  C   UNL     1      43.926   3.354  11.647  0.00  0.00    +0.000 C 
ATOM     13  N   UNL     1      43.688   2.286  12.461  0.00  0.00    +0.000 N 
ATOM     14  O   UNL     1      43.477   3.357  10.505  0.00  0.00    +0.000 OA
ATOM     15  H   UNL     1      44.020   2.178  13.405  0.00  0.00    +0.000 HD
ATOM     16  H   UNL     1      43.143   1.535  12.056  0.00  0.00    +0.000 HD
ENDBRANCH   8  12
ENDBRANCH   2   4
BRANCH   2  17
ATOM     17  C   UNL     1      48.749   6.956  15.156  0.00  0.00    +0.000 C 
ATOM     18  C   UNL     1      48.688   7.413  16.417  0.00  0.00    +0.000 C 
BRANCH  18  19
ATOM     19  C   UNL     1      49.331   6.757  17.568  0.00  0.00    +0.000 A 
ATOM     20  C   UNL     1      49.028   7.083  18.896  0.00  0.00    +0.000 A 
ATOM     21  C   UNL     1      49.547   6.328  19.943  0.00  0.00    +0.000 A 
ATOM     22  C   UNL     1      50.342   5.214  19.673  0.00  0.00    +0.000 A 
ATOM     23  C   UNL     1      50.612   4.814  18.353  0.00  0.00    +0.000 A 
ATOM     24  C   UNL     1      50.117   5.627  17.316  0.00  0.00    +0.000 A 
BRANCH  23  25
ATOM     25  C   UNL     1      51.268   3.524  18.040  0.00  0.00    +0.000 A 
ATOM     26  C   UNL     1      52.596   3.280  18.432  0.00  0.00    +0.000 A 
ATOM     27  C   UNL     1      53.186   2.025  18.271  0.00  0.00    +0.000 A 
ATOM     28  C   UNL     1      52.456   0.979  17.719  0.00  0.00    +0.000 A 
ATOM     29  C   UNL     1      51.148   1.197  17.298  0.00  0.00    +0.000 A 
ATOM     30  C   UNL     1      50.567   2.460  17.444  0.00  0.00    +0.000 A 
ENDBRANCH  23  25
ENDBRANCH  18  19
ENDBRANCH   2  17
TORSDOF 5
ENDMDL
MODEL 9
REMARK VINA RESULT:    -7.176      4.398      8.002
REMARK INTER + INTRA:          -9.516
REMARK INTER:                  -8.492
REMARK INTRA:                  -1.024
REMARK UNBOUND:                -0.242
REMARK  Name = 
REMARK  7 active torsions:
REMARK  status: ('A' for Active; 'I' for Inactive)
REMARK    1  A    between atoms: C_1  and  C_2
REMARK    2  A    between atoms: C_2  and  C_3
REMARK    3  A    between atoms: C_2  and  C_4
REMARK    4  A    between atoms: C_2  and  N_18
REMARK    5  A    between atoms: C_5  and  C_6
REMARK    6  A    between atoms: C_10  and  C_11
REMARK    7  A    between atoms: C_22  and  C_23
REMARK                            x       y       z     vdW  Elec       q    Type
REMARK                         _______ _______ _______ _____ _____    ______ ____
ROOT
ATOM      1  C   UNL     1      50.880   8.393  13.196  0.00  0.00    +0.000 C 
ATOM      2  C   UNL     1      49.350   8.272  13.327  0.00  0.00    +0.000 C 
ATOM      3  C   UNL     1      48.959   8.694  14.754  0.00  0.00    +0.000 C 
ENDROOT
BRANCH   2   4
ATOM      4  N   UNL     1      48.964   6.870  13.095  0.00  0.00    +0.000 N 
ATOM      5  C   UNL     1      47.674   6.370  13.148  0.00  0.00    +0.000 A 
ATOM      6  C   UNL     1      46.538   7.073  12.763  0.00  0.00    +0.000 A 
ATOM      7  C   UNL     1      45.278   6.485  12.794  0.00  0.00    +0.000 A 
ATOM      8  C   UNL     1      45.149   5.168  13.199  0.00  0.00    +0.000 A 
ATOM      9  C   UNL     1      46.319   4.516  13.558  0.00  0.00    +0.000 A 
ATOM     10  N   UNL     1      47.563   5.085  13.544  0.00  0.00    +0.000 NA
ATOM     11  H   UNL     1      49.566   6.186  13.548  0.00  0.00    +0.000 HD
BRANCH   8  12
ATOM     12  C   UNL     1      43.790   4.577  13.211  0.00  0.00    +0.000 C 
ATOM     13  N   UNL     1      42.706   5.397  13.106  0.00  0.00    +0.000 N 
ATOM     14  O   UNL     1      43.623   3.364  13.311  0.00  0.00    +0.000 OA
ATOM     15  H   UNL     1      42.731   6.401  13.033  0.00  0.00    +0.000 HD
ATOM     16  H   UNL     1      41.802   4.940  13.122  0.00  0.00    +0.000 HD
ENDBRANCH   8  12
ENDBRANCH   2   4
BRANCH   2  17
ATOM     17  C   UNL     1      48.771   9.100  12.197  0.00  0.00    +0.000 C 
ATOM     18  C   UNL     1      48.794  10.439  12.099  0.00  0.00    +0.000 C 
BRANCH  18  19
ATOM     19  C   UNL     1      47.935  11.219  11.193  0.00  0.00    +0.000 A 
ATOM     20  C   UNL     1      48.426  11.883  10.062  0.00  0.00    +0.000 A 
ATOM     21  C   UNL     1      47.552  12.474   9.155  0.00  0.00    +0.000 A 
ATOM     22  C   UNL     1      46.174  12.372   9.347  0.00  0.00    +0.000 A 
ATOM     23  C   UNL     1      45.640  11.655  10.432  0.00  0.00    +0.000 A 
ATOM     24  C   UNL     1      46.549  11.113  11.360  0.00  0.00    +0.000 A 
BRANCH  23  25
ATOM     25  C   UNL     1      44.195  11.352  10.541  0.00  0.00    +0.000 A 
ATOM     26  C   UNL     1      43.240  12.384  10.507  0.00  0.00    +0.000 A 
ATOM     27  C   UNL     1      41.871  12.111  10.467  0.00  0.00    +0.000 A 
ATOM     28  C   UNL     1      41.425  10.794  10.454  0.00  0.00    +0.000 A 
ATOM     29  C   UNL     1      42.345   9.753  10.512  0.00  0.00    +0.000 A 
ATOM     30  C   UNL     1      43.714  10.030  10.570  0.00  0.00    +0.000 A 
ENDBRANCH  23  25
ENDBRANCH  18  19
ENDBRANCH   2  17
TORSDOF 5
ENDMDL
