MODEL 1
REMARK VINA RESULT:    -7.601      0.000      0.000
REMARK INTER + INTRA:         -11.042
REMARK INTER:                 -10.267
REMARK INTRA:                  -0.775
REMARK UNBOUND:                -0.775
REMARK  Name = 
REMARK  6 active torsions:
REMARK  status: ('A' for Active; 'I' for Inactive)
REMARK    1  A    between atoms: C_2  and  C_4
REMARK    2  A    between atoms: C_8  and  N_9
REMARK    3  A    between atoms: N_9  and  C_10
REMARK    4  A    between atoms: C_10  and  C_11
REMARK    5  A    between atoms: C_11  and  C_12
REMARK    6  A    between atoms: C_17  and  C_18
REMARK                            x       y       z     vdW  Elec       q    Type
REMARK                         _______ _______ _______ _____ _____    ______ ____
ROOT
ATOM      1  N   UNL     1      44.241   4.638   8.987  0.00  0.00    +0.000 N 
ATOM      2  H   UNL     1      44.799   5.456   8.745  0.00  0.00    +0.000 HD
ENDROOT
BRANCH   1   7
ATOM      3  C   UNL     1      46.510   2.328   7.149  0.00  0.00    +0.000 A 
ATOM      4  C   UNL     1      46.265   1.113   7.796  0.00  0.00    +0.000 A 
ATOM      5  C   UNL     1      45.325   1.055   8.820  0.00  0.00    +0.000 A 
ATOM      6  C   UNL     1      44.651   2.216   9.216  0.00  0.00    +0.000 A 
ATOM      7  C   UNL     1      44.923   3.458   8.630  0.00  0.00    +0.000 A 
ATOM      8  C   UNL     1      45.833   3.490   7.561  0.00  0.00    +0.000 A 
BRANCH   3  10
ATOM      9  N   UNL     1      47.321   3.429   5.136  0.00  0.00    +0.000 N 
ATOM     10  C   UNL     1      47.510   2.436   6.059  0.00  0.00    +0.000 C 
ATOM     11  O   UNL     1      48.478   1.691   5.994  0.00  0.00    +0.000 OA
ATOM     12  H   UNL     1      48.055   3.546   4.446  0.00  0.00    +0.000 HD
ATOM     13  H   UNL     1      46.696   4.205   5.295  0.00  0.00    +0.000 HD
ENDBRANCH   3  10
ENDBRANCH   1   7
BRANCH   1  14
ATOM     14  C   UNL     1      43.718   4.711  10.355  0.00  0.00    +0.000 C 
BRANCH  14  15
ATOM     15  C   UNL     1      44.451   5.788  11.161  0.00  0.00    +0.000 C 
BRANCH  15  16
ATOM     16  C   UNL     1      45.397   5.199  12.182  0.00  0.00    +0.000 A 
ATOM     17  C   UNL     1      45.414   3.810  12.341  0.00  0.00    +0.000 A 
ATOM     18  N   UNL     1      46.174   3.145  13.236  0.00  0.00    +0.000 NA
ATOM     19  C   UNL     1      46.968   3.886  14.029  0.00  0.00    +0.000 A 
ATOM     20  C   UNL     1      47.059   5.263  13.936  0.00  0.00    +0.000 A 
ATOM     21  C   UNL     1      46.276   5.948  12.988  0.00  0.00    +0.000 A 
BRANCH  21  22
ATOM     22  C   UNL     1      46.452   7.447  12.920  0.00  0.00    +0.000 C 
ATOM     23  F   UNL     1      47.300   7.972  13.843  0.00  0.00    +0.000 F 
ATOM     24  F   UNL     1      46.921   7.856  11.709  0.00  0.00    +0.000 F 
ATOM     25  F   UNL     1      45.271   8.106  13.100  0.00  0.00    +0.000 F 
ENDBRANCH  21  22
ENDBRANCH  15  16
ENDBRANCH  14  15
ENDBRANCH   1  14
TORSDOF 6
ENDMDL
MODEL 2
REMARK VINA RESULT:    -7.471      1.757      2.455
REMARK INTER + INTRA:         -10.866
REMARK INTER:                 -10.149
REMARK INTRA:                  -0.717
REMARK UNBOUND:                -0.775
REMARK  Name = 
REMARK  6 active torsions:
REMARK  status: ('A' for Active; 'I' for Inactive)
REMARK    1  A    between atoms: C_2  and  C_4
REMARK    2  A    between atoms: C_8  and  N_9
REMARK    3  A    between atoms: N_9  and  C_10
REMARK    4  A    between atoms: C_10  and  C_11
REMARK    5  A    between atoms: C_11  and  C_12
REMARK    6  A    between atoms: C_17  and  C_18
REMARK                            x       y       z     vdW  Elec       q    Type
REMARK                         _______ _______ _______ _____ _____    ______ ____
ROOT
ATOM      1  N   UNL     1      44.048   2.625  10.832  0.00  0.00    +0.000 N 
ATOM      2  H   UNL     1      43.142   3.090  10.797  0.00  0.00    +0.000 HD
ENDROOT
BRANCH   1   7
ATOM      3  C   UNL     1      46.355   2.206   7.940  0.00  0.00    +0.000 A 
ATOM      4  C   UNL     1      46.413   3.506   7.431  0.00  0.00    +0.000 A 
ATOM      5  C   UNL     1      45.713   4.527   8.066  0.00  0.00    +0.000 A 
ATOM      6  C   UNL     1      44.933   4.243   9.192  0.00  0.00    +0.000 A 
ATOM      7  C   UNL     1      44.803   2.938   9.684  0.00  0.00    +0.000 A 
ATOM      8  C   UNL     1      45.560   1.930   9.067  0.00  0.00    +0.000 A 
BRANCH   3  10
ATOM      9  N   UNL     1      46.675  -0.183   7.601  0.00  0.00    +0.000 N 
ATOM     10  C   UNL     1      47.079   1.087   7.288  0.00  0.00    +0.000 C 
ATOM     11  O   UNL     1      47.981   1.282   6.487  0.00  0.00    +0.000 OA
ATOM     12  H   UNL     1      47.120  -0.935   7.087  0.00  0.00    +0.000 HD
ATOM     13  H   UNL     1      45.790  -0.376   8.046  0.00  0.00    +0.000 HD
ENDBRANCH   3  10
ENDBRANCH   1   7
BRANCH   1  14
ATOM     14  C   UNL     1      44.712   2.803  12.128  0.00  0.00    +0.000 C 
BRANCH  14  15
ATOM     15  C   UNL     1      44.340   4.155  12.747  0.00  0.00    +0.000 C 
BRANCH  15  16
ATOM     16  C   UNL     1      45.557   4.972  13.117  0.00  0.00    +0.000 A 
ATOM     17  C   UNL     1      46.522   4.382  13.938  0.00  0.00    +0.000 A 
ATOM     18  N   UNL     1      47.637   4.998  14.382  0.00  0.00    +0.000 NA
ATOM     19  C   UNL     1      47.821   6.275  14.000  0.00  0.00    +0.000 A 
ATOM     20  C   UNL     1      46.951   6.947  13.162  0.00  0.00    +0.000 A 
ATOM     21  C   UNL     1      45.798   6.291  12.688  0.00  0.00    +0.000 A 
BRANCH  21  22
ATOM     22  C   UNL     1      44.910   7.076  11.750  0.00  0.00    +0.000 C 
ATOM     23  F   UNL     1      43.613   6.674  11.709  0.00  0.00    +0.000 F 
ATOM     24  F   UNL     1      44.879   8.402  12.059  0.00  0.00    +0.000 F 
ATOM     25  F   UNL     1      45.349   7.009  10.460  0.00  0.00    +0.000 F 
ENDBRANCH  21  22
ENDBRANCH  15  16
ENDBRANCH  14  15
ENDBRANCH   1  14
TORSDOF 6
ENDMDL
MODEL 3
REMARK VINA RESULT:    -6.973      2.175      2.677
REMARK INTER + INTRA:         -10.193
REMARK INTER:                  -9.531
REMARK INTRA:                  -0.662
REMARK UNBOUND:                -0.775
REMARK  Name = 
REMARK  6 active torsions:
REMARK  status: ('A' for Active; 'I' for Inactive)
REMARK    1  A    between atoms: C_2  and  C_4
REMARK    2  A    between atoms: C_8  and  N_9
REMARK    3  A    between atoms: N_9  and  C_10
REMARK    4  A    between atoms: C_10  and  C_11
REMARK    5  A    between atoms: C_11  and  C_12
REMARK    6  A    between atoms: C_17  and  C_18
REMARK                            x       y       z     vdW  Elec       q    Type
REMARK                         _______ _______ _______ _____ _____    ______ ____
ROOT
ATOM      1  N   UNL     1      44.975   5.312   9.377  0.00  0.00    +0.000 N 
ATOM      2  H   UNL     1      44.648   5.851   8.577  0.00  0.00    +0.000 HD
ENDROOT
BRANCH   1   7
ATOM      3  C   UNL     1      46.509   2.497   7.484  0.00  0.00    +0.000 A 
ATOM      4  C   UNL     1      45.900   1.388   8.079  0.00  0.00    +0.000 A 
ATOM      5  C   UNL     1      44.957   1.576   9.085  0.00  0.00    +0.000 A 
ATOM      6  C   UNL     1      44.646   2.870   9.516  0.00  0.00    +0.000 A 
ATOM      7  C   UNL     1      45.288   3.996   8.984  0.00  0.00    +0.000 A 
ATOM      8  C   UNL     1      46.194   3.792   7.931  0.00  0.00    +0.000 A 
BRANCH   3  10
ATOM      9  N   UNL     1      47.342   3.070   5.271  0.00  0.00    +0.000 N 
ATOM     10  C   UNL     1      47.525   2.340   6.415  0.00  0.00    +0.000 C 
ATOM     11  O   UNL     1      48.499   1.614   6.550  0.00  0.00    +0.000 OA
ATOM     12  H   UNL     1      48.086   3.019   4.583  0.00  0.00    +0.000 HD
ATOM     13  H   UNL     1      46.710   3.854   5.223  0.00  0.00    +0.000 HD
ENDBRANCH   3  10
ENDBRANCH   1   7
BRANCH   1  14
ATOM     14  C   UNL     1      45.994   6.030  10.150  0.00  0.00    +0.000 C 
BRANCH  14  15
ATOM     15  C   UNL     1      45.503   6.303  11.575  0.00  0.00    +0.000 C 
BRANCH  15  16
ATOM     16  C   UNL     1      46.634   6.647  12.518  0.00  0.00    +0.000 A 
ATOM     17  C   UNL     1      47.289   7.870  12.343  0.00  0.00    +0.000 A 
ATOM     18  N   UNL     1      48.336   8.296  13.079  0.00  0.00    +0.000 NA
ATOM     19  C   UNL     1      48.773   7.473  14.049  0.00  0.00    +0.000 A 
ATOM     20  C   UNL     1      48.180   6.257  14.335  0.00  0.00    +0.000 A 
ATOM     21  C   UNL     1      47.076   5.827  13.574  0.00  0.00    +0.000 A 
BRANCH  21  22
ATOM     22  C   UNL     1      46.458   4.505  13.964  0.00  0.00    +0.000 C 
ATOM     23  F   UNL     1      46.628   3.499  13.066  0.00  0.00    +0.000 F 
ATOM     24  F   UNL     1      46.950   4.035  15.144  0.00  0.00    +0.000 F 
ATOM     25  F   UNL     1      45.109   4.606  14.140  0.00  0.00    +0.000 F 
ENDBRANCH  21  22
ENDBRANCH  15  16
ENDBRANCH  14  15
ENDBRANCH   1  14
TORSDOF 6
ENDMDL
MODEL 4
REMARK VINA RESULT:    -6.948      3.804      7.359
REMARK INTER + INTRA:         -10.160
REMARK INTER:                  -9.307
REMARK INTRA:                  -0.853
REMARK UNBOUND:                -0.775
REMARK  Name = 
REMARK  6 active torsions:
REMARK  status: ('A' for Active; 'I' for Inactive)
REMARK    1  A    between atoms: C_2  and  C_4
REMARK    2  A    between atoms: C_8  and  N_9
REMARK    3  A    between atoms: N_9  and  C_10
REMARK    4  A    between atoms: C_10  and  C_11
REMARK    5  A    between atoms: C_11  and  C_12
REMARK    6  A    between atoms: C_17  and  C_18
REMARK                            x       y       z     vdW  Elec       q    Type
REMARK                         _______ _______ _______ _____ _____    ______ ____
ROOT
ATOM      1  N   UNL     1      46.906   5.243  12.895  0.00  0.00    +0.000 N 
ATOM      2  H   UNL     1      47.471   4.615  12.325  0.00  0.00    +0.000 HD
ENDROOT
BRANCH   1   7
ATOM      3  C   UNL     1      47.696   4.666  16.488  0.00  0.00    +0.000 A 
ATOM      4  C   UNL     1      48.558   5.731  16.765  0.00  0.00    +0.000 A 
ATOM      5  C   UNL     1      48.852   6.657  15.768  0.00  0.00    +0.000 A 
ATOM      6  C   UNL     1      48.307   6.503  14.490  0.00  0.00    +0.000 A 
ATOM      7  C   UNL     1      47.493   5.410  14.165  0.00  0.00    +0.000 A 
ATOM      8  C   UNL     1      47.161   4.516  15.196  0.00  0.00    +0.000 A 
BRANCH   3  10
ATOM      9  N   UNL     1      48.148   3.624  18.640  0.00  0.00    +0.000 N 
ATOM     10  C   UNL     1      47.364   3.652  17.518  0.00  0.00    +0.000 C 
ATOM     11  O   UNL     1      46.418   2.888  17.391  0.00  0.00    +0.000 OA
ATOM     12  H   UNL     1      47.861   2.984  19.372  0.00  0.00    +0.000 HD
ATOM     13  H   UNL     1      48.760   4.385  18.893  0.00  0.00    +0.000 HD
ENDBRANCH   3  10
ENDBRANCH   1   7
BRANCH   1  14
ATOM     14  C   UNL     1      46.537   6.464  12.172  0.00  0.00    +0.000 C 
BRANCH  14  15
ATOM     15  C   UNL     1      45.146   6.324  11.544  0.00  0.00    +0.000 C 
BRANCH  15  16
ATOM     16  C   UNL     1      45.100   5.249  10.482  0.00  0.00    +0.000 A 
ATOM     17  C   UNL     1      45.865   5.432   9.326  0.00  0.00    +0.000 A 
ATOM     18  N   UNL     1      45.895   4.581   8.279  0.00  0.00    +0.000 NA
ATOM     19  C   UNL     1      45.127   3.481   8.366  0.00  0.00    +0.000 A 
ATOM     20  C   UNL     1      44.358   3.180   9.476  0.00  0.00    +0.000 A 
ATOM     21  C   UNL     1      44.346   4.064  10.572  0.00  0.00    +0.000 A 
BRANCH  21  22
ATOM     22  C   UNL     1      43.509   3.655  11.762  0.00  0.00    +0.000 C 
ATOM     23  F   UNL     1      44.175   3.600  12.946  0.00  0.00    +0.000 F 
ATOM     24  F   UNL     1      42.458   4.498  11.967  0.00  0.00    +0.000 F 
ATOM     25  F   UNL     1      42.963   2.417  11.598  0.00  0.00    +0.000 F 
ENDBRANCH  21  22
ENDBRANCH  15  16
ENDBRANCH  14  15
ENDBRANCH   1  14
TORSDOF 6
ENDMDL
MODEL 5
REMARK VINA RESULT:    -6.592      2.745      4.360
REMARK INTER + INTRA:          -9.678
REMARK INTER:                  -8.291
REMARK INTRA:                  -1.387
REMARK UNBOUND:                -0.775
REMARK  Name = 
REMARK  6 active torsions:
REMARK  status: ('A' for Active; 'I' for Inactive)
REMARK    1  A    between atoms: C_2  and  C_4
REMARK    2  A    between atoms: C_8  and  N_9
REMARK    3  A    between atoms: N_9  and  C_10
REMARK    4  A    between atoms: C_10  and  C_11
REMARK    5  A    between atoms: C_11  and  C_12
REMARK    6  A    between atoms: C_17  and  C_18
REMARK                            x       y       z     vdW  Elec       q    Type
REMARK                         _______ _______ _______ _____ _____    ______ ____
ROOT
ATOM      1  N   UNL     1      43.048   7.238  11.228  0.00  0.00    +0.000 N 
ATOM      2  H   UNL     1      42.347   7.347  10.496  0.00  0.00    +0.000 HD
ENDROOT
BRANCH   1   7
ATOM      3  C   UNL     1      43.991   3.718  10.467  0.00  0.00    +0.000 A 
ATOM      4  C   UNL     1      43.863   3.111  11.719  0.00  0.00    +0.000 A 
ATOM      5  C   UNL     1      43.434   3.863  12.808  0.00  0.00    +0.000 A 
ATOM      6  C   UNL     1      43.160   5.225  12.652  0.00  0.00    +0.000 A 
ATOM      7  C   UNL     1      43.342   5.874  11.424  0.00  0.00    +0.000 A 
ATOM      8  C   UNL     1      43.721   5.090  10.322  0.00  0.00    +0.000 A 
BRANCH   3  10
ATOM      9  N   UNL     1      44.294   3.548   8.058  0.00  0.00    +0.000 N 
ATOM     10  C   UNL     1      44.454   2.955   9.282  0.00  0.00    +0.000 C 
ATOM     11  O   UNL     1      44.978   1.856   9.385  0.00  0.00    +0.000 OA
ATOM     12  H   UNL     1      44.690   3.055   7.265  0.00  0.00    +0.000 HD
ATOM     13  H   UNL     1      44.108   4.534   7.953  0.00  0.00    +0.000 HD
ENDBRANCH   3  10
ENDBRANCH   1   7
BRANCH   1  14
ATOM     14  C   UNL     1      44.189   8.139  11.039  0.00  0.00    +0.000 C 
BRANCH  14  15
ATOM     15  C   UNL     1      44.884   8.424  12.375  0.00  0.00    +0.000 C 
BRANCH  15  16
ATOM     16  C   UNL     1      46.366   8.672  12.212  0.00  0.00    +0.000 A 
ATOM     17  C   UNL     1      46.793   9.984  11.985  0.00  0.00    +0.000 A 
ATOM     18  N   UNL     1      48.075  10.353  11.783  0.00  0.00    +0.000 NA
ATOM     19  C   UNL     1      49.000   9.378  11.803  0.00  0.00    +0.000 A 
ATOM     20  C   UNL     1      48.697   8.052  12.053  0.00  0.00    +0.000 A 
ATOM     21  C   UNL     1      47.359   7.677  12.281  0.00  0.00    +0.000 A 
BRANCH  21  22
ATOM     22  C   UNL     1      47.106   6.217  12.580  0.00  0.00    +0.000 C 
ATOM     23  F   UNL     1      46.284   5.977  13.635  0.00  0.00    +0.000 F 
ATOM     24  F   UNL     1      46.554   5.563  11.521  0.00  0.00    +0.000 F 
ATOM     25  F   UNL     1      48.261   5.550  12.865  0.00  0.00    +0.000 F 
ENDBRANCH  21  22
ENDBRANCH  15  16
ENDBRANCH  14  15
ENDBRANCH   1  14
TORSDOF 6
ENDMDL
MODEL 6
REMARK VINA RESULT:    -6.583      3.964      6.079
REMARK INTER + INTRA:          -9.667
REMARK INTER:                  -9.050
REMARK INTRA:                  -0.617
REMARK UNBOUND:                -0.775
REMARK  Name = 
REMARK  6 active torsions:
REMARK  status: ('A' for Active; 'I' for Inactive)
REMARK    1  A    between atoms: C_2  and  C_4
REMARK    2  A    between atoms: C_8  and  N_9
REMARK    3  A    between atoms: N_9  and  C_10
REMARK    4  A    between atoms: C_10  and  C_11
REMARK    5  A    between atoms: C_11  and  C_12
REMARK    6  A    between atoms: C_17  and  C_18
REMARK                            x       y       z     vdW  Elec       q    Type
REMARK                         _______ _______ _______ _____ _____    ______ ____
ROOT
ATOM      1  N   UNL     1      46.745   3.857  14.414  0.00  0.00    +0.000 N 
ATOM      2  H   UNL     1      46.015   3.194  14.669  0.00  0.00    +0.000 HD
ENDROOT
BRANCH   1   7
ATOM      3  C   UNL     1      45.060   4.680  11.198  0.00  0.00    +0.000 A 
ATOM      4  C   UNL     1      45.636   5.914  10.881  0.00  0.00    +0.000 A 
ATOM      5  C   UNL     1      46.606   6.456  11.719  0.00  0.00    +0.000 A 
ATOM      6  C   UNL     1      46.978   5.780  12.885  0.00  0.00    +0.000 A 
ATOM      7  C   UNL     1      46.371   4.575  13.261  0.00  0.00    +0.000 A 
ATOM      8  C   UNL     1      45.436   4.013  12.377  0.00  0.00    +0.000 A 
BRANCH   3  10
ATOM      9  N   UNL     1      44.010   4.430   9.016  0.00  0.00    +0.000 N 
ATOM     10  C   UNL     1      44.017   4.070  10.337  0.00  0.00    +0.000 C 
ATOM     11  O   UNL     1      43.211   3.262  10.774  0.00  0.00    +0.000 OA
ATOM     12  H   UNL     1      43.348   3.944   8.422  0.00  0.00    +0.000 HD
ATOM     13  H   UNL     1      44.796   4.882   8.573  0.00  0.00    +0.000 HD
ENDBRANCH   3  10
ENDBRANCH   1   7
BRANCH   1  14
ATOM     14  C   UNL     1      47.204   4.645  15.563  0.00  0.00    +0.000 C 
BRANCH  14  15
ATOM     15  C   UNL     1      47.337   3.761  16.808  0.00  0.00    +0.000 C 
BRANCH  15  16
ATOM     16  C   UNL     1      48.765   3.336  17.063  0.00  0.00    +0.000 A 
ATOM     17  C   UNL     1      49.205   2.133  16.502  0.00  0.00    +0.000 A 
ATOM     18  N   UNL     1      50.435   1.607  16.672  0.00  0.00    +0.000 NA
ATOM     19  C   UNL     1      51.292   2.301  17.443  0.00  0.00    +0.000 A 
ATOM     20  C   UNL     1      50.978   3.518  18.018  0.00  0.00    +0.000 A 
ATOM     21  C   UNL     1      49.697   4.070  17.821  0.00  0.00    +0.000 A 
BRANCH  21  22
ATOM     22  C   UNL     1      49.436   5.418  18.452  0.00  0.00    +0.000 C 
ATOM     23  F   UNL     1      48.333   5.482  19.243  0.00  0.00    +0.000 F 
ATOM     24  F   UNL     1      50.475   5.832  19.229  0.00  0.00    +0.000 F 
ATOM     25  F   UNL     1      49.265   6.393  17.514  0.00  0.00    +0.000 F 
ENDBRANCH  21  22
ENDBRANCH  15  16
ENDBRANCH  14  15
ENDBRANCH   1  14
TORSDOF 6
ENDMDL
MODEL 7
REMARK VINA RESULT:    -6.343      4.065      7.100
REMARK INTER + INTRA:          -9.343
REMARK INTER:                  -9.188
REMARK INTRA:                  -0.155
REMARK UNBOUND:                -0.775
REMARK  Name = 
REMARK  6 active torsions:
REMARK  status: ('A' for Active; 'I' for Inactive)
REMARK    1  A    between atoms: C_2  and  C_4
REMARK    2  A    between atoms: C_8  and  N_9
REMARK    3  A    between atoms: N_9  and  C_10
REMARK    4  A    between atoms: C_10  and  C_11
REMARK    5  A    between atoms: C_11  and  C_12
REMARK    6  A    between atoms: C_17  and  C_18
REMARK                            x       y       z     vdW  Elec       q    Type
REMARK                         _______ _______ _______ _____ _____    ______ ____
ROOT
ATOM      1  N   UNL     1      46.936   5.567  12.721  0.00  0.00    +0.000 N 
ATOM      2  H   UNL     1      47.557   5.086  12.071  0.00  0.00    +0.000 HD
ENDROOT
BRANCH   1   7
ATOM      3  C   UNL     1      47.785   4.720  16.245  0.00  0.00    +0.000 A 
ATOM      4  C   UNL     1      48.612   5.788  16.604  0.00  0.00    +0.000 A 
ATOM      5  C   UNL     1      48.861   6.805  15.687  0.00  0.00    +0.000 A 
ATOM      6  C   UNL     1      48.308   6.738  14.404  0.00  0.00    +0.000 A 
ATOM      7  C   UNL     1      47.530   5.648  13.995  0.00  0.00    +0.000 A 
ATOM      8  C   UNL     1      47.241   4.659  14.950  0.00  0.00    +0.000 A 
BRANCH   3  10
ATOM      9  N   UNL     1      48.529   3.196  17.991  0.00  0.00    +0.000 N 
ATOM     10  C   UNL     1      47.500   3.612  17.189  0.00  0.00    +0.000 C 
ATOM     11  O   UNL     1      46.392   3.102  17.272  0.00  0.00    +0.000 OA
ATOM     12  H   UNL     1      48.300   2.497  18.689  0.00  0.00    +0.000 HD
ATOM     13  H   UNL     1      49.363   3.746  18.132  0.00  0.00    +0.000 HD
ENDBRANCH   3  10
ENDBRANCH   1   7
BRANCH   1  14
ATOM     14  C   UNL     1      46.405   6.813  12.159  0.00  0.00    +0.000 C 
BRANCH  14  15
ATOM     15  C   UNL     1      45.175   6.535  11.288  0.00  0.00    +0.000 C 
BRANCH  15  16
ATOM     16  C   UNL     1      44.583   5.169  11.546  0.00  0.00    +0.000 A 
ATOM     17  C   UNL     1      43.979   4.935  12.786  0.00  0.00    +0.000 A 
ATOM     18  N   UNL     1      43.444   3.760  13.173  0.00  0.00    +0.000 NA
ATOM     19  C   UNL     1      43.502   2.744  12.294  0.00  0.00    +0.000 A 
ATOM     20  C   UNL     1      44.043   2.871  11.027  0.00  0.00    +0.000 A 
ATOM     21  C   UNL     1      44.584   4.106  10.623  0.00  0.00    +0.000 A 
BRANCH  21  22
ATOM     22  C   UNL     1      45.126   4.180   9.214  0.00  0.00    +0.000 C 
ATOM     23  F   UNL     1      45.743   3.052   8.772  0.00  0.00    +0.000 F 
ATOM     24  F   UNL     1      44.153   4.453   8.302  0.00  0.00    +0.000 F 
ATOM     25  F   UNL     1      46.051   5.173   9.077  0.00  0.00    +0.000 F 
ENDBRANCH  21  22
ENDBRANCH  15  16
ENDBRANCH  14  15
ENDBRANCH   1  14
TORSDOF 6
ENDMDL
MODEL 8
REMARK VINA RESULT:    -6.038      4.344      6.514
REMARK INTER + INTRA:          -8.931
REMARK INTER:                  -8.184
REMARK INTRA:                  -0.747
REMARK UNBOUND:                -0.775
REMARK  Name = 
REMARK  6 active torsions:
REMARK  status: ('A' for Active; 'I' for Inactive)
REMARK    1  A    between atoms: C_2  and  C_4
REMARK    2  A    between atoms: C_8  and  N_9
REMARK    3  A    between atoms: N_9  and  C_10
REMARK    4  A    between atoms: C_10  and  C_11
REMARK    5  A    between atoms: C_11  and  C_12
REMARK    6  A    between atoms: C_17  and  C_18
REMARK                            x       y       z     vdW  Elec       q    Type
REMARK                         _______ _______ _______ _____ _____    ______ ____
ROOT
ATOM      1  N   UNL     1      47.877   7.834  14.383  0.00  0.00    +0.000 N 
ATOM      2  H   UNL     1      48.183   8.710  13.961  0.00  0.00    +0.000 HD
ENDROOT
BRANCH   1   7
ATOM      3  C   UNL     1      46.140   4.987  12.727  0.00  0.00    +0.000 A 
ATOM      4  C   UNL     1      45.456   5.633  11.693  0.00  0.00    +0.000 A 
ATOM      5  C   UNL     1      45.597   7.007  11.527  0.00  0.00    +0.000 A 
ATOM      6  C   UNL     1      46.397   7.739  12.410  0.00  0.00    +0.000 A 
ATOM      7  C   UNL     1      47.042   7.129  13.494  0.00  0.00    +0.000 A 
ATOM      8  C   UNL     1      46.936   5.734  13.614  0.00  0.00    +0.000 A 
BRANCH   3  10
ATOM      9  N   UNL     1      44.941   2.901  12.363  0.00  0.00    +0.000 N 
ATOM     10  C   UNL     1      46.012   3.526  12.944  0.00  0.00    +0.000 C 
ATOM     11  O   UNL     1      46.834   2.894  13.592  0.00  0.00    +0.000 OA
ATOM     12  H   UNL     1      44.911   1.891  12.448  0.00  0.00    +0.000 HD
ATOM     13  H   UNL     1      44.398   3.327  11.627  0.00  0.00    +0.000 HD
ENDBRANCH   3  10
ENDBRANCH   1   7
BRANCH   1  14
ATOM     14  C   UNL     1      48.991   7.086  14.975  0.00  0.00    +0.000 C 
BRANCH  14  15
ATOM     15  C   UNL     1      48.701   6.749  16.441  0.00  0.00    +0.000 C 
BRANCH  15  16
ATOM     16  C   UNL     1      49.402   5.488  16.892  0.00  0.00    +0.000 A 
ATOM     17  C   UNL     1      50.800   5.494  16.945  0.00  0.00    +0.000 A 
ATOM     18  N   UNL     1      51.562   4.436  17.289  0.00  0.00    +0.000 NA
ATOM     19  C   UNL     1      50.919   3.297  17.602  0.00  0.00    +0.000 A 
ATOM     20  C   UNL     1      49.540   3.187  17.619  0.00  0.00    +0.000 A 
ATOM     21  C   UNL     1      48.750   4.301  17.275  0.00  0.00    +0.000 A 
BRANCH  21  22
ATOM     22  C   UNL     1      47.252   4.117  17.347  0.00  0.00    +0.000 C 
ATOM     23  F   UNL     1      46.607   4.952  18.204  0.00  0.00    +0.000 F 
ATOM     24  F   UNL     1      46.653   4.292  16.137  0.00  0.00    +0.000 F 
ATOM     25  F   UNL     1      46.913   2.858  17.748  0.00  0.00    +0.000 F 
ENDBRANCH  21  22
ENDBRANCH  15  16
ENDBRANCH  14  15
ENDBRANCH   1  14
TORSDOF 6
ENDMDL
MODEL 9
REMARK VINA RESULT:    -5.906      4.308      7.435
REMARK INTER + INTRA:          -8.752
REMARK INTER:                  -8.221
REMARK INTRA:                  -0.531
REMARK UNBOUND:                -0.775
REMARK  Name = 
REMARK  6 active torsions:
REMARK  status: ('A' for Active; 'I' for Inactive)
REMARK    1  A    between atoms: C_2  and  C_4
REMARK    2  A    between atoms: C_8  and  N_9
REMARK    3  A    between atoms: N_9  and  C_10
REMARK    4  A    between atoms: C_10  and  C_11
REMARK    5  A    between atoms: C_11  and  C_12
REMARK    6  A    between atoms: C_17  and  C_18
REMARK                            x       y       z     vdW  Elec       q    Type
REMARK                         _______ _______ _______ _____ _____    ______ ____
ROOT
ATOM      1  N   UNL     1      46.578   4.159  15.433  0.00  0.00    +0.000 N 
ATOM      2  H   UNL     1      46.503   3.248  14.984  0.00  0.00    +0.000 HD
ENDROOT
BRANCH   1   7
ATOM      3  C   UNL     1      49.457   3.111  17.549  0.00  0.00    +0.000 A 
ATOM      4  C   UNL     1      49.225   3.833  18.723  0.00  0.00    +0.000 A 
ATOM      5  C   UNL     1      48.098   4.642  18.824  0.00  0.00    +0.000 A 
ATOM      6  C   UNL     1      47.219   4.752  17.742  0.00  0.00    +0.000 A 
ATOM      7  C   UNL     1      47.460   4.092  16.530  0.00  0.00    +0.000 A 
ATOM      8  C   UNL     1      48.570   3.235  16.464  0.00  0.00    +0.000 A 
BRANCH   3  10
ATOM      9  N   UNL     1      51.750   2.560  18.149  0.00  0.00    +0.000 N 
ATOM     10  C   UNL     1      50.650   2.244  17.397  0.00  0.00    +0.000 C 
ATOM     11  O   UNL     1      50.653   1.273  16.654  0.00  0.00    +0.000 OA
ATOM     12  H   UNL     1      52.529   1.912  18.100  0.00  0.00    +0.000 HD
ATOM     13  H   UNL     1      51.704   3.180  18.944  0.00  0.00    +0.000 HD
ENDBRANCH   3  10
ENDBRANCH   1   7
BRANCH   1  14
ATOM     14  C   UNL     1      46.810   5.236  14.465  0.00  0.00    +0.000 C 
BRANCH  14  15
ATOM     15  C   UNL     1      46.672   4.716  13.030  0.00  0.00    +0.000 C 
BRANCH  15  16
ATOM     16  C   UNL     1      45.270   4.879  12.490  0.00  0.00    +0.000 A 
ATOM     17  C   UNL     1      44.436   3.756  12.471  0.00  0.00    +0.000 A 
ATOM     18  N   UNL     1      43.178   3.739  11.986  0.00  0.00    +0.000 NA
ATOM     19  C   UNL     1      42.703   4.892  11.483  0.00  0.00    +0.000 A 
ATOM     20  C   UNL     1      43.425   6.072  11.483  0.00  0.00    +0.000 A 
ATOM     21  C   UNL     1      44.732   6.087  12.008  0.00  0.00    +0.000 A 
BRANCH  21  22
ATOM     22  C   UNL     1      45.448   7.417  12.004  0.00  0.00    +0.000 C 
ATOM     23  F   UNL     1      45.591   8.001  13.223  0.00  0.00    +0.000 F 
ATOM     24  F   UNL     1      46.705   7.323  11.488  0.00  0.00    +0.000 F 
ATOM     25  F   UNL     1      44.802   8.340  11.236  0.00  0.00    +0.000 F 
ENDBRANCH  21  22
ENDBRANCH  15  16
ENDBRANCH  14  15
ENDBRANCH   1  14
TORSDOF 6
ENDMDL
