MODEL 1
REMARK VINA RESULT:    -6.918      0.000      0.000
REMARK INTER + INTRA:         -10.347
REMARK INTER:                  -9.344
REMARK INTRA:                  -1.002
REMARK UNBOUND:                -1.002
REMARK  Name = 
REMARK  7 active torsions:
REMARK  status: ('A' for Active; 'I' for Inactive)
REMARK    1  A    between atoms: C_1  and  O_2
REMARK    2  A    between atoms: O_2  and  C_3
REMARK    3  A    between atoms: C_5  and  C_6
REMARK    4  A    between atoms: C_10  and  N_11
REMARK    5  A    between atoms: N_11  and  C_12
REMARK    6  A    between atoms: C_12  and  C_13
REMARK    7  A    between atoms: C_17  and  C_18
REMARK                            x       y       z     vdW  Elec       q    Type
REMARK                         _______ _______ _______ _____ _____    ______ ____
ROOT
ATOM      1  C   UNL     1      46.310   7.357  12.328  0.00  0.00    +0.000 C 
ATOM      2  C   UNL     1      46.367   8.788  11.819  0.00  0.00    +0.000 C 
ATOM      3  C   UNL     1      45.735   8.502  13.142  0.00  0.00    +0.000 C 
ENDROOT
BRANCH   1   4
ATOM      4  C   UNL     1      45.312   6.369  11.729  0.00  0.00    +0.000 A 
ATOM      5  C   UNL     1      43.930   6.475  11.912  0.00  0.00    +0.000 A 
ATOM      6  C   UNL     1      43.052   5.625  11.237  0.00  0.00    +0.000 A 
ATOM      7  C   UNL     1      43.542   4.674  10.335  0.00  0.00    +0.000 A 
ATOM      8  C   UNL     1      44.920   4.519  10.118  0.00  0.00    +0.000 A 
ATOM      9  C   UNL     1      45.771   5.346  10.873  0.00  0.00    +0.000 A 
BRANCH   8  10
ATOM     10  C   UNL     1      45.466   3.599   9.089  0.00  0.00    +0.000 A 
ATOM     11  C   UNL     1      46.101   4.042   7.921  0.00  0.00    +0.000 A 
ATOM     12  C   UNL     1      46.656   3.130   7.019  0.00  0.00    +0.000 A 
ATOM     13  C   UNL     1      46.551   1.780   7.294  0.00  0.00    +0.000 A 
ATOM     14  N   UNL     1      45.943   1.293   8.391  0.00  0.00    +0.000 NA
ATOM     15  C   UNL     1      45.428   2.208   9.251  0.00  0.00    +0.000 A 
ENDBRANCH   8  10
ENDBRANCH   1   4
BRANCH   1  16
ATOM     16  N   UNL     1      47.626   6.754  12.647  0.00  0.00    +0.000 N 
ATOM     17  H   UNL     1      47.995   6.137  11.927  0.00  0.00    +0.000 HD
BRANCH  16  23
ATOM     18  C   UNL     1      48.641   6.862  14.858  0.00  0.00    +0.000 A 
ATOM     19  C   UNL     1      48.787   6.331  16.141  0.00  0.00    +0.000 A 
ATOM     20  C   UNL     1      48.186   5.111  16.450  0.00  0.00    +0.000 A 
ATOM     21  C   UNL     1      47.465   4.468  15.462  0.00  0.00    +0.000 A 
ATOM     22  N   UNL     1      47.294   4.961  14.213  0.00  0.00    +0.000 NA
ATOM     23  C   UNL     1      47.870   6.148  13.907  0.00  0.00    +0.000 A 
BRANCH  18  25
ATOM     24  C   UNL     1      50.606   8.049  14.214  0.00  0.00    +0.000 C 
ATOM     25  O   UNL     1      49.199   8.048  14.437  0.00  0.00    +0.000 OA
ENDBRANCH  18  25
BRANCH  20  26
ATOM     26  C   UNL     1      48.296   4.550  17.758  0.00  0.00    +0.000 C 
ATOM     27  N   UNL     1      48.369   4.105  18.831  0.00  0.00    +0.000 NA
ENDBRANCH  20  26
ENDBRANCH  16  23
ENDBRANCH   1  16
TORSDOF 6
ENDMDL
MODEL 2
REMARK VINA RESULT:    -6.416      2.933      7.022
REMARK INTER + INTRA:          -9.668
REMARK INTER:                  -8.904
REMARK INTRA:                  -0.764
REMARK UNBOUND:                -1.002
REMARK  Name = 
REMARK  7 active torsions:
REMARK  status: ('A' for Active; 'I' for Inactive)
REMARK    1  A    between atoms: C_1  and  O_2
REMARK    2  A    between atoms: O_2  and  C_3
REMARK    3  A    between atoms: C_5  and  C_6
REMARK    4  A    between atoms: C_10  and  N_11
REMARK    5  A    between atoms: N_11  and  C_12
REMARK    6  A    between atoms: C_12  and  C_13
REMARK    7  A    between atoms: C_17  and  C_18
REMARK                            x       y       z     vdW  Elec       q    Type
REMARK                         _______ _______ _______ _____ _____    ______ ____
ROOT
ATOM      1  C   UNL     1      44.137   6.569  11.240  0.00  0.00    +0.000 C 
ATOM      2  C   UNL     1      43.125   7.651  11.581  0.00  0.00    +0.000 C 
ATOM      3  C   UNL     1      44.229   7.952  10.620  0.00  0.00    +0.000 C 
ENDROOT
BRANCH   1   4
ATOM      4  C   UNL     1      45.222   6.191  12.245  0.00  0.00    +0.000 A 
ATOM      5  C   UNL     1      45.108   5.104  13.118  0.00  0.00    +0.000 A 
ATOM      6  C   UNL     1      46.179   4.720  13.926  0.00  0.00    +0.000 A 
ATOM      7  C   UNL     1      47.402   5.396  13.847  0.00  0.00    +0.000 A 
ATOM      8  C   UNL     1      47.570   6.498  12.995  0.00  0.00    +0.000 A 
ATOM      9  C   UNL     1      46.443   6.896  12.253  0.00  0.00    +0.000 A 
BRANCH   8  10
ATOM     10  C   UNL     1      48.882   7.166  12.806  0.00  0.00    +0.000 A 
ATOM     11  C   UNL     1      49.364   7.575  11.555  0.00  0.00    +0.000 A 
ATOM     12  C   UNL     1      50.577   8.260  11.445  0.00  0.00    +0.000 A 
ATOM     13  C   UNL     1      51.301   8.512  12.595  0.00  0.00    +0.000 A 
ATOM     14  N   UNL     1      50.898   8.134  13.822  0.00  0.00    +0.000 NA
ATOM     15  C   UNL     1      49.709   7.483  13.892  0.00  0.00    +0.000 A 
ENDBRANCH   8  10
ENDBRANCH   1   4
BRANCH   1  16
ATOM     16  N   UNL     1      43.588   5.413  10.494  0.00  0.00    +0.000 N 
ATOM     17  H   UNL     1      42.894   4.871  11.003  0.00  0.00    +0.000 HD
BRANCH  16  23
ATOM     18  C   UNL     1      44.203   3.114   9.979  0.00  0.00    +0.000 A 
ATOM     19  C   UNL     1      44.957   2.210   9.226  0.00  0.00    +0.000 A 
ATOM     20  C   UNL     1      45.928   2.693   8.349  0.00  0.00    +0.000 A 
ATOM     21  C   UNL     1      46.111   4.059   8.263  0.00  0.00    +0.000 A 
ATOM     22  N   UNL     1      45.390   4.962   8.969  0.00  0.00    +0.000 NA
ATOM     23  C   UNL     1      44.441   4.502   9.818  0.00  0.00    +0.000 A 
BRANCH  18  25
ATOM     24  C   UNL     1      43.670   2.398  12.190  0.00  0.00    +0.000 C 
ATOM     25  O   UNL     1      43.230   2.754  10.882  0.00  0.00    +0.000 OA
ENDBRANCH  18  25
BRANCH  20  26
ATOM     26  C   UNL     1      46.701   1.799   7.548  0.00  0.00    +0.000 C 
ATOM     27  N   UNL     1      47.335   1.058   6.913  0.00  0.00    +0.000 NA
ENDBRANCH  20  26
ENDBRANCH  16  23
ENDBRANCH   1  16
TORSDOF 6
ENDMDL
MODEL 3
REMARK VINA RESULT:    -6.177      2.077      3.144
REMARK INTER + INTRA:          -9.346
REMARK INTER:                  -8.338
REMARK INTRA:                  -1.008
REMARK UNBOUND:                -1.002
REMARK  Name = 
REMARK  7 active torsions:
REMARK  status: ('A' for Active; 'I' for Inactive)
REMARK    1  A    between atoms: C_1  and  O_2
REMARK    2  A    between atoms: O_2  and  C_3
REMARK    3  A    between atoms: C_5  and  C_6
REMARK    4  A    between atoms: C_10  and  N_11
REMARK    5  A    between atoms: N_11  and  C_12
REMARK    6  A    between atoms: C_12  and  C_13
REMARK    7  A    between atoms: C_17  and  C_18
REMARK                            x       y       z     vdW  Elec       q    Type
REMARK                         _______ _______ _______ _____ _____    ______ ____
ROOT
ATOM      1  C   UNL     1      48.972   7.806  12.616  0.00  0.00    +0.000 C 
ATOM      2  C   UNL     1      49.868   8.046  11.412  0.00  0.00    +0.000 C 
ATOM      3  C   UNL     1      49.533   9.185  12.319  0.00  0.00    +0.000 C 
ENDROOT
BRANCH   1   4
ATOM      4  C   UNL     1      47.469   7.617  12.428  0.00  0.00    +0.000 A 
ATOM      5  C   UNL     1      46.531   8.605  12.745  0.00  0.00    +0.000 A 
ATOM      6  C   UNL     1      45.181   8.434  12.433  0.00  0.00    +0.000 A 
ATOM      7  C   UNL     1      44.750   7.284  11.763  0.00  0.00    +0.000 A 
ATOM      8  C   UNL     1      45.646   6.258  11.428  0.00  0.00    +0.000 A 
ATOM      9  C   UNL     1      46.984   6.438  11.826  0.00  0.00    +0.000 A 
BRANCH   8  10
ATOM     10  C   UNL     1      45.243   5.079  10.622  0.00  0.00    +0.000 A 
ATOM     11  C   UNL     1      45.554   4.934   9.263  0.00  0.00    +0.000 A 
ATOM     12  C   UNL     1      45.206   3.771   8.570  0.00  0.00    +0.000 A 
ATOM     13  C   UNL     1      44.533   2.772   9.249  0.00  0.00    +0.000 A 
ATOM     14  N   UNL     1      44.195   2.858  10.549  0.00  0.00    +0.000 NA
ATOM     15  C   UNL     1      44.561   3.996  11.193  0.00  0.00    +0.000 A 
ENDBRANCH   8  10
ENDBRANCH   1   4
BRANCH   1  16
ATOM     16  N   UNL     1      49.555   6.934  13.664  0.00  0.00    +0.000 N 
ATOM     17  H   UNL     1      49.428   5.938  13.505  0.00  0.00    +0.000 HD
BRANCH  16  23
ATOM     18  C   UNL     1      48.603   6.226  15.790  0.00  0.00    +0.000 A 
ATOM     19  C   UNL     1      48.476   6.403  17.169  0.00  0.00    +0.000 A 
ATOM     20  C   UNL     1      49.048   7.524  17.771  0.00  0.00    +0.000 A 
ATOM     21  C   UNL     1      49.722   8.425  16.969  0.00  0.00    +0.000 A 
ATOM     22  N   UNL     1      49.875   8.276  15.633  0.00  0.00    +0.000 NA
ATOM     23  C   UNL     1      49.326   7.188  15.041  0.00  0.00    +0.000 A 
BRANCH  18  25
ATOM     24  C   UNL     1      47.369   4.186  15.845  0.00  0.00    +0.000 C 
ATOM     25  O   UNL     1      48.070   5.168  15.088  0.00  0.00    +0.000 OA
ENDBRANCH  18  25
BRANCH  20  26
ATOM     26  C   UNL     1      48.956   7.725  19.181  0.00  0.00    +0.000 C 
ATOM     27  N   UNL     1      48.892   7.908  20.329  0.00  0.00    +0.000 NA
ENDBRANCH  20  26
ENDBRANCH  16  23
ENDBRANCH   1  16
TORSDOF 6
ENDMDL
MODEL 4
REMARK VINA RESULT:    -5.768      1.762      2.568
REMARK INTER + INTRA:          -8.793
REMARK INTER:                  -7.775
REMARK INTRA:                  -1.018
REMARK UNBOUND:                -1.002
REMARK  Name = 
REMARK  7 active torsions:
REMARK  status: ('A' for Active; 'I' for Inactive)
REMARK    1  A    between atoms: C_1  and  O_2
REMARK    2  A    between atoms: O_2  and  C_3
REMARK    3  A    between atoms: C_5  and  C_6
REMARK    4  A    between atoms: C_10  and  N_11
REMARK    5  A    between atoms: N_11  and  C_12
REMARK    6  A    between atoms: C_12  and  C_13
REMARK    7  A    between atoms: C_17  and  C_18
REMARK                            x       y       z     vdW  Elec       q    Type
REMARK                         _______ _______ _______ _____ _____    ______ ____
ROOT
ATOM      1  C   UNL     1      48.898   8.248  12.489  0.00  0.00    +0.000 C 
ATOM      2  C   UNL     1      49.615   9.023  11.395  0.00  0.00    +0.000 C 
ATOM      3  C   UNL     1      49.260   9.711  12.673  0.00  0.00    +0.000 C 
ENDROOT
BRANCH   1   4
ATOM      4  C   UNL     1      47.415   7.918  12.349  0.00  0.00    +0.000 A 
ATOM      5  C   UNL     1      46.398   8.771  12.791  0.00  0.00    +0.000 A 
ATOM      6  C   UNL     1      45.059   8.485  12.523  0.00  0.00    +0.000 A 
ATOM      7  C   UNL     1      44.713   7.355  11.773  0.00  0.00    +0.000 A 
ATOM      8  C   UNL     1      45.691   6.462  11.310  0.00  0.00    +0.000 A 
ATOM      9  C   UNL     1      47.022   6.749  11.665  0.00  0.00    +0.000 A 
BRANCH   8  10
ATOM     10  C   UNL     1      45.369   5.319  10.420  0.00  0.00    +0.000 A 
ATOM     11  C   UNL     1      45.855   5.203   9.111  0.00  0.00    +0.000 A 
ATOM     12  C   UNL     1      45.574   4.070   8.341  0.00  0.00    +0.000 A 
ATOM     13  C   UNL     1      44.790   3.074   8.892  0.00  0.00    +0.000 A 
ATOM     14  N   UNL     1      44.283   3.134  10.137  0.00  0.00    +0.000 NA
ATOM     15  C   UNL     1      44.588   4.241  10.860  0.00  0.00    +0.000 A 
ENDBRANCH   8  10
ENDBRANCH   1   4
BRANCH   1  16
ATOM     16  N   UNL     1      49.694   7.162  13.109  0.00  0.00    +0.000 N 
ATOM     17  H   UNL     1      49.659   6.275  12.612  0.00  0.00    +0.000 HD
BRANCH  16  23
ATOM     18  C   UNL     1      50.551   7.487  15.365  0.00  0.00    +0.000 A 
ATOM     19  C   UNL     1      50.401   7.321  16.743  0.00  0.00    +0.000 A 
ATOM     20  C   UNL     1      49.337   6.563  17.231  0.00  0.00    +0.000 A 
ATOM     21  C   UNL     1      48.467   5.996  16.319  0.00  0.00    +0.000 A 
ATOM     22  N   UNL     1      48.576   6.147  14.979  0.00  0.00    +0.000 NA
ATOM     23  C   UNL     1      49.604   6.886  14.498  0.00  0.00    +0.000 A 
BRANCH  18  25
ATOM     24  C   UNL     1      51.832   9.497  15.299  0.00  0.00    +0.000 C 
ATOM     25  O   UNL     1      51.568   8.200  14.772  0.00  0.00    +0.000 OA
ENDBRANCH  18  25
BRANCH  20  26
ATOM     26  C   UNL     1      49.141   6.392  18.634  0.00  0.00    +0.000 C 
ATOM     27  N   UNL     1      49.001   6.260  19.782  0.00  0.00    +0.000 NA
ENDBRANCH  20  26
ENDBRANCH  16  23
ENDBRANCH   1  16
TORSDOF 6
ENDMDL
MODEL 5
REMARK VINA RESULT:    -5.691      2.294      7.413
REMARK INTER + INTRA:          -8.690
REMARK INTER:                  -7.798
REMARK INTRA:                  -0.892
REMARK UNBOUND:                -1.002
REMARK  Name = 
REMARK  7 active torsions:
REMARK  status: ('A' for Active; 'I' for Inactive)
REMARK    1  A    between atoms: C_1  and  O_2
REMARK    2  A    between atoms: O_2  and  C_3
REMARK    3  A    between atoms: C_5  and  C_6
REMARK    4  A    between atoms: C_10  and  N_11
REMARK    5  A    between atoms: N_11  and  C_12
REMARK    6  A    between atoms: C_12  and  C_13
REMARK    7  A    between atoms: C_17  and  C_18
REMARK                            x       y       z     vdW  Elec       q    Type
REMARK                         _______ _______ _______ _____ _____    ______ ____
ROOT
ATOM      1  C   UNL     1      47.777   7.820  13.289  0.00  0.00    +0.000 C 
ATOM      2  C   UNL     1      48.102   8.848  12.217  0.00  0.00    +0.000 C 
ATOM      3  C   UNL     1      48.737   7.496  12.159  0.00  0.00    +0.000 C 
ENDROOT
BRANCH   1   4
ATOM      4  C   UNL     1      48.377   7.953  14.686  0.00  0.00    +0.000 A 
ATOM      5  C   UNL     1      48.079   9.016  15.546  0.00  0.00    +0.000 A 
ATOM      6  C   UNL     1      48.550   9.025  16.860  0.00  0.00    +0.000 A 
ATOM      7  C   UNL     1      49.298   7.949  17.351  0.00  0.00    +0.000 A 
ATOM      8  C   UNL     1      49.632   6.861  16.531  0.00  0.00    +0.000 A 
ATOM      9  C   UNL     1      49.200   6.927  15.193  0.00  0.00    +0.000 A 
BRANCH   8  10
ATOM     10  C   UNL     1      50.327   5.657  17.048  0.00  0.00    +0.000 A 
ATOM     11  C   UNL     1      49.661   4.471  17.388  0.00  0.00    +0.000 A 
ATOM     12  C   UNL     1      50.375   3.345  17.808  0.00  0.00    +0.000 A 
ATOM     13  C   UNL     1      51.752   3.430  17.897  0.00  0.00    +0.000 A 
ATOM     14  N   UNL     1      52.447   4.543  17.599  0.00  0.00    +0.000 NA
ATOM     15  C   UNL     1      51.722   5.612  17.182  0.00  0.00    +0.000 A 
ENDBRANCH   8  10
ENDBRANCH   1   4
BRANCH   1  16
ATOM     16  N   UNL     1      46.376   7.337  13.286  0.00  0.00    +0.000 N 
ATOM     17  H   UNL     1      45.967   7.219  14.210  0.00  0.00    +0.000 HD
BRANCH  16  23
ATOM     18  C   UNL     1      45.904   4.955  13.106  0.00  0.00    +0.000 A 
ATOM     19  C   UNL     1      45.402   3.881  12.368  0.00  0.00    +0.000 A 
ATOM     20  C   UNL     1      45.003   4.085  11.047  0.00  0.00    +0.000 A 
ATOM     21  C   UNL     1      45.126   5.354  10.515  0.00  0.00    +0.000 A 
ATOM     22  N   UNL     1      45.597   6.418  11.206  0.00  0.00    +0.000 NA
ATOM     23  C   UNL     1      45.981   6.230  12.491  0.00  0.00    +0.000 A 
BRANCH  18  25
ATOM     24  C   UNL     1      47.209   3.787  14.724  0.00  0.00    +0.000 C 
ATOM     25  O   UNL     1      46.339   4.870  14.409  0.00  0.00    +0.000 OA
ENDBRANCH  18  25
BRANCH  20  26
ATOM     26  C   UNL     1      44.465   3.014  10.271  0.00  0.00    +0.000 C 
ATOM     27  N   UNL     1      44.007   2.152   9.638  0.00  0.00    +0.000 NA
ENDBRANCH  20  26
ENDBRANCH  16  23
ENDBRANCH   1  16
TORSDOF 6
ENDMDL
MODEL 6
REMARK VINA RESULT:    -5.605      2.818      7.191
REMARK INTER + INTRA:          -8.573
REMARK INTER:                  -7.618
REMARK INTRA:                  -0.955
REMARK UNBOUND:                -1.002
REMARK  Name = 
REMARK  7 active torsions:
REMARK  status: ('A' for Active; 'I' for Inactive)
REMARK    1  A    between atoms: C_1  and  O_2
REMARK    2  A    between atoms: O_2  and  C_3
REMARK    3  A    between atoms: C_5  and  C_6
REMARK    4  A    between atoms: C_10  and  N_11
REMARK    5  A    between atoms: N_11  and  C_12
REMARK    6  A    between atoms: C_12  and  C_13
REMARK    7  A    between atoms: C_17  and  C_18
REMARK                            x       y       z     vdW  Elec       q    Type
REMARK                         _______ _______ _______ _____ _____    ______ ____
ROOT
ATOM      1  C   UNL     1      48.023   8.178  13.225  0.00  0.00    +0.000 C 
ATOM      2  C   UNL     1      48.876   8.985  12.259  0.00  0.00    +0.000 C 
ATOM      3  C   UNL     1      48.916   7.492  12.206  0.00  0.00    +0.000 C 
ENDROOT
BRANCH   1   4
ATOM      4  C   UNL     1      48.431   8.058  14.691  0.00  0.00    +0.000 A 
ATOM      5  C   UNL     1      48.202   9.067  15.632  0.00  0.00    +0.000 A 
ATOM      6  C   UNL     1      48.474   8.858  16.985  0.00  0.00    +0.000 A 
ATOM      7  C   UNL     1      48.948   7.618  17.427  0.00  0.00    +0.000 A 
ATOM      8  C   UNL     1      49.204   6.573  16.526  0.00  0.00    +0.000 A 
ATOM      9  C   UNL     1      48.985   6.851  15.164  0.00  0.00    +0.000 A 
BRANCH   8  10
ATOM     10  C   UNL     1      49.600   5.215  16.973  0.00  0.00    +0.000 A 
ATOM     11  C   UNL     1      48.715   4.128  17.009  0.00  0.00    +0.000 A 
ATOM     12  C   UNL     1      49.161   2.854  17.375  0.00  0.00    +0.000 A 
ATOM     13  C   UNL     1      50.490   2.692  17.718  0.00  0.00    +0.000 A 
ATOM     14  N   UNL     1      51.384   3.697  17.716  0.00  0.00    +0.000 NA
ATOM     15  C   UNL     1      50.919   4.917  17.342  0.00  0.00    +0.000 A 
ENDBRANCH   8  10
ENDBRANCH   1   4
BRANCH   1  16
ATOM     16  N   UNL     1      46.561   8.305  13.022  0.00  0.00    +0.000 N 
ATOM     17  H   UNL     1      46.082   8.858  13.729  0.00  0.00    +0.000 HD
BRANCH  16  23
ATOM     18  C   UNL     1      44.838   7.246  11.665  0.00  0.00    +0.000 A 
ATOM     19  C   UNL     1      44.130   6.099  11.302  0.00  0.00    +0.000 A 
ATOM     20  C   UNL     1      44.332   4.915  12.012  0.00  0.00    +0.000 A 
ATOM     21  C   UNL     1      45.232   4.927  13.060  0.00  0.00    +0.000 A 
ATOM     22  N   UNL     1      45.943   6.017  13.430  0.00  0.00    +0.000 NA
ATOM     23  C   UNL     1      45.757   7.169  12.742  0.00  0.00    +0.000 A 
BRANCH  18  25
ATOM     24  C   UNL     1      43.396   9.010  10.964  0.00  0.00    +0.000 C 
ATOM     25  O   UNL     1      44.711   8.469  11.046  0.00  0.00    +0.000 OA
ENDBRANCH  18  25
BRANCH  20  26
ATOM     26  C   UNL     1      43.641   3.718  11.654  0.00  0.00    +0.000 C 
ATOM     27  N   UNL     1      43.059   2.754  11.361  0.00  0.00    +0.000 NA
ENDBRANCH  20  26
ENDBRANCH  16  23
ENDBRANCH   1  16
TORSDOF 6
ENDMDL
MODEL 7
REMARK VINA RESULT:    -5.503      3.045      7.402
REMARK INTER + INTRA:          -8.436
REMARK INTER:                  -7.952
REMARK INTRA:                  -0.484
REMARK UNBOUND:                -1.002
REMARK  Name = 
REMARK  7 active torsions:
REMARK  status: ('A' for Active; 'I' for Inactive)
REMARK    1  A    between atoms: C_1  and  O_2
REMARK    2  A    between atoms: O_2  and  C_3
REMARK    3  A    between atoms: C_5  and  C_6
REMARK    4  A    between atoms: C_10  and  N_11
REMARK    5  A    between atoms: N_11  and  C_12
REMARK    6  A    between atoms: C_12  and  C_13
REMARK    7  A    between atoms: C_17  and  C_18
REMARK                            x       y       z     vdW  Elec       q    Type
REMARK                         _______ _______ _______ _____ _____    ______ ____
ROOT
ATOM      1  C   UNL     1      49.109   7.541  15.682  0.00  0.00    +0.000 C 
ATOM      2  C   UNL     1      48.453   8.903  15.839  0.00  0.00    +0.000 C 
ATOM      3  C   UNL     1      49.942   8.794  15.879  0.00  0.00    +0.000 C 
ENDROOT
BRANCH   1   4
ATOM      4  C   UNL     1      49.085   6.540  16.834  0.00  0.00    +0.000 A 
ATOM      5  C   UNL     1      48.055   6.489  17.779  0.00  0.00    +0.000 A 
ATOM      6  C   UNL     1      48.012   5.474  18.735  0.00  0.00    +0.000 A 
ATOM      7  C   UNL     1      48.982   4.465  18.740  0.00  0.00    +0.000 A 
ATOM      8  C   UNL     1      50.041   4.470  17.820  0.00  0.00    +0.000 A 
ATOM      9  C   UNL     1      50.087   5.552  16.921  0.00  0.00    +0.000 A 
BRANCH   8  10
ATOM     10  C   UNL     1      51.021   3.360  17.727  0.00  0.00    +0.000 A 
ATOM     11  C   UNL     1      52.367   3.488  18.098  0.00  0.00    +0.000 A 
ATOM     12  C   UNL     1      53.229   2.389  18.052  0.00  0.00    +0.000 A 
ATOM     13  C   UNL     1      52.732   1.175  17.617  0.00  0.00    +0.000 A 
ATOM     14  N   UNL     1      51.455   0.992  17.235  0.00  0.00    +0.000 NA
ATOM     15  C   UNL     1      50.643   2.078  17.305  0.00  0.00    +0.000 A 
ENDBRANCH   8  10
ENDBRANCH   1   4
BRANCH   1  16
ATOM     16  N   UNL     1      48.941   6.917  14.348  0.00  0.00    +0.000 N 
ATOM     17  H   UNL     1      49.107   7.543  13.563  0.00  0.00    +0.000 HD
BRANCH  16  23
ATOM     18  C   UNL     1      46.803   6.691  13.204  0.00  0.00    +0.000 A 
ATOM     19  C   UNL     1      45.735   5.888  12.798  0.00  0.00    +0.000 A 
ATOM     20  C   UNL     1      45.669   4.565  13.236  0.00  0.00    +0.000 A 
ATOM     21  C   UNL     1      46.670   4.099  14.065  0.00  0.00    +0.000 A 
ATOM     22  N   UNL     1      47.724   4.847  14.467  0.00  0.00    +0.000 NA
ATOM     23  C   UNL     1      47.799   6.131  14.043  0.00  0.00    +0.000 A 
BRANCH  18  25
ATOM     24  C   UNL     1      45.812   8.843  12.933  0.00  0.00    +0.000 C 
ATOM     25  O   UNL     1      46.965   8.011  12.848  0.00  0.00    +0.000 OA
ENDBRANCH  18  25
BRANCH  20  26
ATOM     26  C   UNL     1      44.603   3.710  12.822  0.00  0.00    +0.000 C 
ATOM     27  N   UNL     1      43.722   3.030  12.483  0.00  0.00    +0.000 NA
ENDBRANCH  20  26
ENDBRANCH  16  23
ENDBRANCH   1  16
TORSDOF 6
ENDMDL
MODEL 8
REMARK VINA RESULT:    -5.448      2.169      7.347
REMARK INTER + INTRA:          -8.361
REMARK INTER:                  -7.342
REMARK INTRA:                  -1.019
REMARK UNBOUND:                -1.002
REMARK  Name = 
REMARK  7 active torsions:
REMARK  status: ('A' for Active; 'I' for Inactive)
REMARK    1  A    between atoms: C_1  and  O_2
REMARK    2  A    between atoms: O_2  and  C_3
REMARK    3  A    between atoms: C_5  and  C_6
REMARK    4  A    between atoms: C_10  and  N_11
REMARK    5  A    between atoms: N_11  and  C_12
REMARK    6  A    between atoms: C_12  and  C_13
REMARK    7  A    between atoms: C_17  and  C_18
REMARK                            x       y       z     vdW  Elec       q    Type
REMARK                         _______ _______ _______ _____ _____    ______ ____
ROOT
ATOM      1  C   UNL     1      45.678   8.021  12.435  0.00  0.00    +0.000 C 
ATOM      2  C   UNL     1      45.009   9.349  12.751  0.00  0.00    +0.000 C 
ATOM      3  C   UNL     1      45.332   9.005  11.333  0.00  0.00    +0.000 C 
ENDROOT
BRANCH   1   4
ATOM      4  C   UNL     1      47.160   7.818  12.739  0.00  0.00    +0.000 A 
ATOM      5  C   UNL     1      48.169   8.040  11.795  0.00  0.00    +0.000 A 
ATOM      6  C   UNL     1      49.515   7.967  12.158  0.00  0.00    +0.000 A 
ATOM      7  C   UNL     1      49.877   7.706  13.484  0.00  0.00    +0.000 A 
ATOM      8  C   UNL     1      48.907   7.468  14.470  0.00  0.00    +0.000 A 
ATOM      9  C   UNL     1      47.565   7.479  14.046  0.00  0.00    +0.000 A 
BRANCH   8  10
ATOM     10  C   UNL     1      49.252   7.299  15.903  0.00  0.00    +0.000 A 
ATOM     11  C   UNL     1      49.449   6.048  16.504  0.00  0.00    +0.000 A 
ATOM     12  C   UNL     1      49.838   5.952  17.843  0.00  0.00    +0.000 A 
ATOM     13  C   UNL     1      50.009   7.117  18.568  0.00  0.00    +0.000 A 
ATOM     14  N   UNL     1      49.822   8.345  18.052  0.00  0.00    +0.000 NA
ATOM     15  C   UNL     1      49.458   8.400  16.745  0.00  0.00    +0.000 A 
ENDBRANCH   8  10
ENDBRANCH   1   4
BRANCH   1  16
ATOM     16  N   UNL     1      44.846   6.824  12.703  0.00  0.00    +0.000 N 
ATOM     17  H   UNL     1      44.858   6.508  13.670  0.00  0.00    +0.000 HD
BRANCH  16  23
ATOM     18  C   UNL     1      45.187   4.424  12.474  0.00  0.00    +0.000 A 
ATOM     19  C   UNL     1      45.141   3.273  11.685  0.00  0.00    +0.000 A 
ATOM     20  C   UNL     1      44.847   3.385  10.326  0.00  0.00    +0.000 A 
ATOM     21  C   UNL     1      44.615   4.645   9.809  0.00  0.00    +0.000 A 
ATOM     22  N   UNL     1      44.640   5.779  10.548  0.00  0.00    +0.000 NA
ATOM     23  C   UNL     1      44.919   5.678  11.870  0.00  0.00    +0.000 A 
BRANCH  18  25
ATOM     24  C   UNL     1      46.812   4.095  14.187  0.00  0.00    +0.000 C 
ATOM     25  O   UNL     1      45.479   4.435  13.819  0.00  0.00    +0.000 OA
ENDBRANCH  18  25
BRANCH  20  26
ATOM     26  C   UNL     1      44.770   2.227   9.494  0.00  0.00    +0.000 C 
ATOM     27  N   UNL     1      44.688   1.290   8.811  0.00  0.00    +0.000 NA
ENDBRANCH  20  26
ENDBRANCH  16  23
ENDBRANCH   1  16
TORSDOF 6
ENDMDL
MODEL 9
REMARK VINA RESULT:    -5.170      4.016      7.915
REMARK INTER + INTRA:          -7.985
REMARK INTER:                  -6.962
REMARK INTRA:                  -1.023
REMARK UNBOUND:                -1.002
REMARK  Name = 
REMARK  7 active torsions:
REMARK  status: ('A' for Active; 'I' for Inactive)
REMARK    1  A    between atoms: C_1  and  O_2
REMARK    2  A    between atoms: O_2  and  C_3
REMARK    3  A    between atoms: C_5  and  C_6
REMARK    4  A    between atoms: C_10  and  N_11
REMARK    5  A    between atoms: N_11  and  C_12
REMARK    6  A    between atoms: C_12  and  C_13
REMARK    7  A    between atoms: C_17  and  C_18
REMARK                            x       y       z     vdW  Elec       q    Type
REMARK                         _______ _______ _______ _____ _____    ______ ____
ROOT
ATOM      1  C   UNL     1      48.656   6.804  17.263  0.00  0.00    +0.000 C 
ATOM      2  C   UNL     1      48.255   7.518  18.544  0.00  0.00    +0.000 C 
ATOM      3  C   UNL     1      49.692   7.488  18.137  0.00  0.00    +0.000 C 
ENDROOT
BRANCH   1   4
ATOM      4  C   UNL     1      48.694   5.279  17.215  0.00  0.00    +0.000 A 
ATOM      5  C   UNL     1      47.641   4.505  16.715  0.00  0.00    +0.000 A 
ATOM      6  C   UNL     1      47.776   3.124  16.570  0.00  0.00    +0.000 A 
ATOM      7  C   UNL     1      48.984   2.493  16.890  0.00  0.00    +0.000 A 
ATOM      8  C   UNL     1      50.070   3.219  17.402  0.00  0.00    +0.000 A 
ATOM      9  C   UNL     1      49.866   4.598  17.600  0.00  0.00    +0.000 A 
BRANCH   8  10
ATOM     10  C   UNL     1      51.397   2.602  17.646  0.00  0.00    +0.000 A 
ATOM     11  C   UNL     1      52.557   3.346  17.901  0.00  0.00    +0.000 A 
ATOM     12  C   UNL     1      53.767   2.709  18.191  0.00  0.00    +0.000 A 
ATOM     13  C   UNL     1      53.800   1.327  18.203  0.00  0.00    +0.000 A 
ATOM     14  N   UNL     1      52.725   0.558  17.952  0.00  0.00    +0.000 NA
ATOM     15  C   UNL     1      51.564   1.211  17.689  0.00  0.00    +0.000 A 
ENDBRANCH   8  10
ENDBRANCH   1   4
BRANCH   1  16
ATOM     16  N   UNL     1      48.151   7.427  16.017  0.00  0.00    +0.000 N 
ATOM     17  H   UNL     1      47.229   7.109  15.728  0.00  0.00    +0.000 HD
BRANCH  16  23
ATOM     18  C   UNL     1      48.401   7.136  13.612  0.00  0.00    +0.000 A 
ATOM     19  C   UNL     1      49.148   7.330  12.449  0.00  0.00    +0.000 A 
ATOM     20  C   UNL     1      50.428   7.876  12.540  0.00  0.00    +0.000 A 
ATOM     21  C   UNL     1      50.912   8.202  13.792  0.00  0.00    +0.000 A 
ATOM     22  N   UNL     1      50.211   8.038  14.938  0.00  0.00    +0.000 NA
ATOM     23  C   UNL     1      48.964   7.514  14.857  0.00  0.00    +0.000 A 
BRANCH  18  25
ATOM     24  C   UNL     1      47.008   5.240  13.222  0.00  0.00    +0.000 C 
ATOM     25  O   UNL     1      47.136   6.595  13.645  0.00  0.00    +0.000 OA
ENDBRANCH  18  25
BRANCH  20  26
ATOM     26  C   UNL     1      51.211   8.109  11.369  0.00  0.00    +0.000 C 
ATOM     27  N   UNL     1      51.835   8.286  10.403  0.00  0.00    +0.000 NA
ENDBRANCH  20  26
ENDBRANCH  16  23
ENDBRANCH   1  16
TORSDOF 6
ENDMDL
