MODEL 1
REMARK VINA RESULT:    -8.590      0.000      0.000
REMARK INTER + INTRA:         -13.763
REMARK INTER:                 -12.356
REMARK INTRA:                  -1.407
REMARK UNBOUND:                -1.407
REMARK  Name = 
REMARK  10 active torsions:
REMARK  status: ('A' for Active; 'I' for Inactive)
REMARK    1  A    between atoms: C_1  and  C_2
REMARK    2  A    between atoms: C_5  and  C_6
REMARK    3  A    between atoms: C_6  and  O_7
REMARK    4  A    between atoms: O_7  and  C_8
REMARK    5  A    between atoms: C_8  and  C_9
REMARK    6  A    between atoms: C_12  and  C_13
REMARK    7  A    between atoms: C_13  and  N_14
REMARK    8  A    between atoms: C_15  and  C_17
REMARK    9  A    between atoms: C_24  and  O_25
REMARK   10  A    between atoms: C_30  and  C_31
REMARK                            x       y       z     vdW  Elec       q    Type
REMARK                         _______ _______ _______ _____ _____    ______ ____
ROOT
ATOM      1  C   UNL     1      44.598   5.522  12.010  0.00  0.00    +0.000 A 
ATOM      2  C   UNL     1      45.437   6.456  11.384  0.00  0.00    +0.000 A 
ATOM      3  C   UNL     1      46.687   6.769  11.927  0.00  0.00    +0.000 A 
ATOM      4  C   UNL     1      47.131   6.146  13.101  0.00  0.00    +0.000 A 
ATOM      5  C   UNL     1      46.276   5.244  13.749  0.00  0.00    +0.000 A 
ATOM      6  C   UNL     1      45.026   4.932  13.206  0.00  0.00    +0.000 A 
ENDROOT
BRANCH   1   7
ATOM      7  C   UNL     1      43.262   5.173  11.406  0.00  0.00    +0.000 C 
BRANCH   7   8
ATOM      8  O   UNL     1      43.472   4.634  10.103  0.00  0.00    +0.000 OA
BRANCH   8   9
ATOM      9  C   UNL     1      43.924   3.282  10.154  0.00  0.00    +0.000 C 
BRANCH   9  14
ATOM     10  C   UNL     1      47.902   2.269   5.998  0.00  0.00    +0.000 C 
ATOM     11  C   UNL     1      46.894   2.508   7.089  0.00  0.00    +0.000 A 
ATOM     12  C   UNL     1      46.464   3.816   7.351  0.00  0.00    +0.000 A 
ATOM     13  C   UNL     1      45.510   4.072   8.338  0.00  0.00    +0.000 A 
ATOM     14  C   UNL     1      44.950   3.025   9.077  0.00  0.00    +0.000 A 
ATOM     15  C   UNL     1      45.402   1.719   8.836  0.00  0.00    +0.000 A 
ATOM     16  C   UNL     1      46.365   1.446   7.848  0.00  0.00    +0.000 A 
ATOM     17  C   UNL     1      46.805   0.026   7.620  0.00  0.00    +0.000 C 
ENDBRANCH   9  14
ENDBRANCH   8   9
ENDBRANCH   7   8
ENDBRANCH   1   7
BRANCH   4  18
ATOM     18  C   UNL     1      48.490   6.460  13.677  0.00  0.00    +0.000 C 
BRANCH  18  19
ATOM     19  N   UNL     1      48.365   7.097  14.961  0.00  0.00    +0.000 N 
ATOM     20  C   UNL     1      48.785   6.487  16.116  0.00  0.00    +0.000 C 
ATOM     21  O   UNL     1      49.159   5.318  16.145  0.00  0.00    +0.000 OA
ATOM     22  H   UNL     1      48.237   8.102  14.957  0.00  0.00    +0.000 HD
BRANCH  20  23
ATOM     23  C   UNL     1      48.736   7.313  17.328  0.00  0.00    +0.000 A 
ATOM     24  C   UNL     1      49.233   8.609  17.308  0.00  0.00    +0.000 A 
ATOM     25  S   UNL     1      49.114   9.402  18.814  0.00  0.00    +0.000 S 
ATOM     26  C   UNL     1      48.354   8.056  19.521  0.00  0.00    +0.000 A 
ATOM     27  N   UNL     1      47.967   8.094  20.808  0.00  0.00    +0.000 NA
ATOM     28  C   UNL     1      47.376   6.964  21.206  0.00  0.00    +0.000 A 
ATOM     29  N   UNL     1      47.155   5.861  20.477  0.00  0.00    +0.000 NA
ATOM     30  C   UNL     1      47.565   5.892  19.208  0.00  0.00    +0.000 A 
ATOM     31  C   UNL     1      48.201   6.994  18.640  0.00  0.00    +0.000 A 
BRANCH  30  32
ATOM     32  O   UNL     1      47.321   4.735  18.527  0.00  0.00    +0.000 OA
ATOM     33  H   UNL     1      47.399   4.083  19.248  0.00  0.00    +0.000 HD
ENDBRANCH  30  32
ENDBRANCH  20  23
ENDBRANCH  18  19
ENDBRANCH   4  18
TORSDOF 8
ENDMDL
MODEL 2
REMARK VINA RESULT:    -8.497      2.128      2.419
REMARK INTER + INTRA:         -13.630
REMARK INTER:                 -12.559
REMARK INTRA:                  -1.071
REMARK UNBOUND:                -1.407
REMARK  Name = 
REMARK  10 active torsions:
REMARK  status: ('A' for Active; 'I' for Inactive)
REMARK    1  A    between atoms: C_1  and  C_2
REMARK    2  A    between atoms: C_5  and  C_6
REMARK    3  A    between atoms: C_6  and  O_7
REMARK    4  A    between atoms: O_7  and  C_8
REMARK    5  A    between atoms: C_8  and  C_9
REMARK    6  A    between atoms: C_12  and  C_13
REMARK    7  A    between atoms: C_13  and  N_14
REMARK    8  A    between atoms: C_15  and  C_17
REMARK    9  A    between atoms: C_24  and  O_25
REMARK   10  A    between atoms: C_30  and  C_31
REMARK                            x       y       z     vdW  Elec       q    Type
REMARK                         _______ _______ _______ _____ _____    ______ ____
ROOT
ATOM      1  C   UNL     1      44.595   5.949  11.667  0.00  0.00    +0.000 A 
ATOM      2  C   UNL     1      45.648   5.126  12.092  0.00  0.00    +0.000 A 
ATOM      3  C   UNL     1      46.852   5.679  12.539  0.00  0.00    +0.000 A 
ATOM      4  C   UNL     1      47.025   7.069  12.581  0.00  0.00    +0.000 A 
ATOM      5  C   UNL     1      45.989   7.891  12.117  0.00  0.00    +0.000 A 
ATOM      6  C   UNL     1      44.785   7.337  11.671  0.00  0.00    +0.000 A 
ENDROOT
BRANCH   1   7
ATOM      7  C   UNL     1      43.292   5.344  11.210  0.00  0.00    +0.000 C 
BRANCH   7   8
ATOM      8  O   UNL     1      43.484   4.751   9.928  0.00  0.00    +0.000 OA
BRANCH   8   9
ATOM      9  C   UNL     1      43.916   3.396  10.029  0.00  0.00    +0.000 C 
BRANCH   9  14
ATOM     10  C   UNL     1      47.998   2.217   6.020  0.00  0.00    +0.000 C 
ATOM     11  C   UNL     1      46.963   2.499   7.074  0.00  0.00    +0.000 A 
ATOM     12  C   UNL     1      46.545   3.819   7.290  0.00  0.00    +0.000 A 
ATOM     13  C   UNL     1      45.567   4.115   8.241  0.00  0.00    +0.000 A 
ATOM     14  C   UNL     1      44.969   3.096   8.990  0.00  0.00    +0.000 A 
ATOM     15  C   UNL     1      45.408   1.778   8.796  0.00  0.00    +0.000 A 
ATOM     16  C   UNL     1      46.396   1.465   7.844  0.00  0.00    +0.000 A 
ATOM     17  C   UNL     1      46.820   0.033   7.667  0.00  0.00    +0.000 C 
ENDBRANCH   9  14
ENDBRANCH   8   9
ENDBRANCH   7   8
ENDBRANCH   1   7
BRANCH   4  18
ATOM     18  C   UNL     1      48.312   7.673  13.086  0.00  0.00    +0.000 C 
BRANCH  18  19
ATOM     19  N   UNL     1      48.849   6.896  14.172  0.00  0.00    +0.000 N 
ATOM     20  C   UNL     1      48.858   7.363  15.462  0.00  0.00    +0.000 C 
ATOM     21  O   UNL     1      48.543   8.515  15.748  0.00  0.00    +0.000 OA
ATOM     22  H   UNL     1      48.944   5.900  14.012  0.00  0.00    +0.000 HD
BRANCH  20  23
ATOM     23  C   UNL     1      49.295   6.405  16.485  0.00  0.00    +0.000 A 
ATOM     24  C   UNL     1      50.428   6.668  17.243  0.00  0.00    +0.000 A 
ATOM     25  S   UNL     1      50.795   5.432  18.360  0.00  0.00    +0.000 S 
ATOM     26  C   UNL     1      49.429   4.534  17.895  0.00  0.00    +0.000 A 
ATOM     27  N   UNL     1      49.150   3.362  18.492  0.00  0.00    +0.000 NA
ATOM     28  C   UNL     1      48.039   2.791  18.021  0.00  0.00    +0.000 A 
ATOM     29  N   UNL     1      47.230   3.256  17.058  0.00  0.00    +0.000 NA
ATOM     30  C   UNL     1      47.566   4.423  16.508  0.00  0.00    +0.000 A 
ATOM     31  C   UNL     1      48.697   5.145  16.885  0.00  0.00    +0.000 A 
BRANCH  30  32
ATOM     32  O   UNL     1      46.709   4.831  15.528  0.00  0.00    +0.000 OA
ATOM     33  H   UNL     1      47.135   5.664  15.253  0.00  0.00    +0.000 HD
ENDBRANCH  30  32
ENDBRANCH  20  23
ENDBRANCH  18  19
ENDBRANCH   4  18
TORSDOF 8
ENDMDL
MODEL 3
REMARK VINA RESULT:    -7.680      2.190      2.498
REMARK INTER + INTRA:         -12.454
REMARK INTER:                 -11.300
REMARK INTRA:                  -1.154
REMARK UNBOUND:                -1.407
REMARK  Name = 
REMARK  10 active torsions:
REMARK  status: ('A' for Active; 'I' for Inactive)
REMARK    1  A    between atoms: C_1  and  C_2
REMARK    2  A    between atoms: C_5  and  C_6
REMARK    3  A    between atoms: C_6  and  O_7
REMARK    4  A    between atoms: O_7  and  C_8
REMARK    5  A    between atoms: C_8  and  C_9
REMARK    6  A    between atoms: C_12  and  C_13
REMARK    7  A    between atoms: C_13  and  N_14
REMARK    8  A    between atoms: C_15  and  C_17
REMARK    9  A    between atoms: C_24  and  O_25
REMARK   10  A    between atoms: C_30  and  C_31
REMARK                            x       y       z     vdW  Elec       q    Type
REMARK                         _______ _______ _______ _____ _____    ______ ____
ROOT
ATOM      1  C   UNL     1      44.737   4.828  12.570  0.00  0.00    +0.000 A 
ATOM      2  C   UNL     1      44.300   6.155  12.445  0.00  0.00    +0.000 A 
ATOM      3  C   UNL     1      45.185   7.220  12.637  0.00  0.00    +0.000 A 
ATOM      4  C   UNL     1      46.531   6.981  12.946  0.00  0.00    +0.000 A 
ATOM      5  C   UNL     1      46.959   5.657  13.112  0.00  0.00    +0.000 A 
ATOM      6  C   UNL     1      46.072   4.592  12.920  0.00  0.00    +0.000 A 
ENDROOT
BRANCH   1   7
ATOM      7  C   UNL     1      43.781   3.686  12.338  0.00  0.00    +0.000 C 
BRANCH   7   8
ATOM      8  O   UNL     1      44.208   2.952  11.194  0.00  0.00    +0.000 OA
BRANCH   8   9
ATOM      9  C   UNL     1      44.010   3.686   9.987  0.00  0.00    +0.000 C 
BRANCH   9  14
ATOM     10  C   UNL     1      48.016   2.179   6.012  0.00  0.00    +0.000 C 
ATOM     11  C   UNL     1      46.999   2.545   7.058  0.00  0.00    +0.000 A 
ATOM     12  C   UNL     1      46.650   3.891   7.235  0.00  0.00    +0.000 A 
ATOM     13  C   UNL     1      45.691   4.265   8.176  0.00  0.00    +0.000 A 
ATOM     14  C   UNL     1      45.043   3.302   8.956  0.00  0.00    +0.000 A 
ATOM     15  C   UNL     1      45.413   1.957   8.802  0.00  0.00    +0.000 A 
ATOM     16  C   UNL     1      46.381   1.566   7.859  0.00  0.00    +0.000 A 
ATOM     17  C   UNL     1      46.730   0.109   7.725  0.00  0.00    +0.000 C 
ENDBRANCH   9  14
ENDBRANCH   8   9
ENDBRANCH   7   8
ENDBRANCH   1   7
BRANCH   4  18
ATOM     18  C   UNL     1      47.498   8.125  13.128  0.00  0.00    +0.000 C 
BRANCH  18  19
ATOM     19  N   UNL     1      48.437   7.838  14.180  0.00  0.00    +0.000 N 
ATOM     20  C   UNL     1      49.780   7.706  13.935  0.00  0.00    +0.000 C 
ATOM     21  O   UNL     1      50.244   7.684  12.799  0.00  0.00    +0.000 OA
ATOM     22  H   UNL     1      48.128   8.027  15.126  0.00  0.00    +0.000 HD
BRANCH  20  23
ATOM     23  C   UNL     1      50.634   7.564  15.120  0.00  0.00    +0.000 A 
ATOM     24  C   UNL     1      51.748   8.379  15.276  0.00  0.00    +0.000 A 
ATOM     25  S   UNL     1      52.631   8.051  16.699  0.00  0.00    +0.000 S 
ATOM     26  C   UNL     1      51.528   6.846  17.168  0.00  0.00    +0.000 A 
ATOM     27  N   UNL     1      51.701   6.180  18.323  0.00  0.00    +0.000 NA
ATOM     28  C   UNL     1      50.743   5.277  18.549  0.00  0.00    +0.000 A 
ATOM     29  N   UNL     1      49.692   4.992  17.768  0.00  0.00    +0.000 NA
ATOM     30  C   UNL     1      49.582   5.689  16.637  0.00  0.00    +0.000 A 
ATOM     31  C   UNL     1      50.500   6.666  16.253  0.00  0.00    +0.000 A 
BRANCH  30  32
ATOM     32  O   UNL     1      48.499   5.341  15.883  0.00  0.00    +0.000 OA
ATOM     33  H   UNL     1      48.015   4.778  16.515  0.00  0.00    +0.000 HD
ENDBRANCH  30  32
ENDBRANCH  20  23
ENDBRANCH  18  19
ENDBRANCH   4  18
TORSDOF 8
ENDMDL
MODEL 4
REMARK VINA RESULT:    -7.229      4.833      6.545
REMARK INTER + INTRA:         -11.805
REMARK INTER:                 -10.604
REMARK INTRA:                  -1.202
REMARK UNBOUND:                -1.407
REMARK  Name = 
REMARK  10 active torsions:
REMARK  status: ('A' for Active; 'I' for Inactive)
REMARK    1  A    between atoms: C_1  and  C_2
REMARK    2  A    between atoms: C_5  and  C_6
REMARK    3  A    between atoms: C_6  and  O_7
REMARK    4  A    between atoms: O_7  and  C_8
REMARK    5  A    between atoms: C_8  and  C_9
REMARK    6  A    between atoms: C_12  and  C_13
REMARK    7  A    between atoms: C_13  and  N_14
REMARK    8  A    between atoms: C_15  and  C_17
REMARK    9  A    between atoms: C_24  and  O_25
REMARK   10  A    between atoms: C_30  and  C_31
REMARK                            x       y       z     vdW  Elec       q    Type
REMARK                         _______ _______ _______ _____ _____    ______ ____
ROOT
ATOM      1  C   UNL     1      45.539   6.392  12.077  0.00  0.00    +0.000 A 
ATOM      2  C   UNL     1      45.106   7.721  11.970  0.00  0.00    +0.000 A 
ATOM      3  C   UNL     1      46.009   8.779  12.111  0.00  0.00    +0.000 A 
ATOM      4  C   UNL     1      47.367   8.531  12.350  0.00  0.00    +0.000 A 
ATOM      5  C   UNL     1      47.793   7.204  12.499  0.00  0.00    +0.000 A 
ATOM      6  C   UNL     1      46.889   6.146  12.358  0.00  0.00    +0.000 A 
ENDROOT
BRANCH   1   7
ATOM      7  C   UNL     1      44.563   5.256  11.900  0.00  0.00    +0.000 C 
BRANCH   7   8
ATOM      8  O   UNL     1      44.297   5.089  10.510  0.00  0.00    +0.000 OA
BRANCH   8   9
ATOM      9  C   UNL     1      44.132   3.715  10.162  0.00  0.00    +0.000 C 
BRANCH   9  14
ATOM     10  C   UNL     1      47.860   2.195   5.929  0.00  0.00    +0.000 C 
ATOM     11  C   UNL     1      46.916   2.565   7.040  0.00  0.00    +0.000 A 
ATOM     12  C   UNL     1      46.582   3.912   7.238  0.00  0.00    +0.000 A 
ATOM     13  C   UNL     1      45.689   4.289   8.242  0.00  0.00    +0.000 A 
ATOM     14  C   UNL     1      45.093   3.328   9.064  0.00  0.00    +0.000 A 
ATOM     15  C   UNL     1      45.450   1.982   8.888  0.00  0.00    +0.000 A 
ATOM     16  C   UNL     1      46.351   1.587   7.883  0.00  0.00    +0.000 A 
ATOM     17  C   UNL     1      46.688   0.130   7.727  0.00  0.00    +0.000 C 
ENDBRANCH   9  14
ENDBRANCH   8   9
ENDBRANCH   7   8
ENDBRANCH   1   7
BRANCH   4  18
ATOM     18  C   UNL     1      48.351   9.668  12.477  0.00  0.00    +0.000 C 
BRANCH  18  19
ATOM     19  N   UNL     1      49.342   9.604  11.434  0.00  0.00    +0.000 N 
ATOM     20  C   UNL     1      50.461  10.397  11.450  0.00  0.00    +0.000 C 
ATOM     21  O   UNL     1      50.619  11.299  12.268  0.00  0.00    +0.000 OA
ATOM     22  H   UNL     1      49.341   8.770  10.860  0.00  0.00    +0.000 HD
BRANCH  20  23
ATOM     23  C   UNL     1      51.455  10.118  10.407  0.00  0.00    +0.000 A 
ATOM     24  C   UNL     1      51.954  11.154   9.628  0.00  0.00    +0.000 A 
ATOM     25  S   UNL     1      53.077  10.635   8.453  0.00  0.00    +0.000 S 
ATOM     26  C   UNL     1      52.963   9.023   8.980  0.00  0.00    +0.000 A 
ATOM     27  N   UNL     1      53.699   8.063   8.393  0.00  0.00    +0.000 NA
ATOM     28  C   UNL     1      53.502   6.857   8.932  0.00  0.00    +0.000 A 
ATOM     29  N   UNL     1      52.681   6.540   9.942  0.00  0.00    +0.000 NA
ATOM     30  C   UNL     1      51.980   7.541  10.478  0.00  0.00    +0.000 A 
ATOM     31  C   UNL     1      52.068   8.858  10.029  0.00  0.00    +0.000 A 
BRANCH  30  32
ATOM     32  O   UNL     1      51.155   7.149  11.491  0.00  0.00    +0.000 OA
ATOM     33  H   UNL     1      50.286   7.220  11.053  0.00  0.00    +0.000 HD
ENDBRANCH  30  32
ENDBRANCH  20  23
ENDBRANCH  18  19
ENDBRANCH   4  18
TORSDOF 8
ENDMDL
MODEL 5
REMARK VINA RESULT:    -7.139      1.798      2.537
REMARK INTER + INTRA:         -11.675
REMARK INTER:                 -10.450
REMARK INTRA:                  -1.225
REMARK UNBOUND:                -1.407
REMARK  Name = 
REMARK  10 active torsions:
REMARK  status: ('A' for Active; 'I' for Inactive)
REMARK    1  A    between atoms: C_1  and  C_2
REMARK    2  A    between atoms: C_5  and  C_6
REMARK    3  A    between atoms: C_6  and  O_7
REMARK    4  A    between atoms: O_7  and  C_8
REMARK    5  A    between atoms: C_8  and  C_9
REMARK    6  A    between atoms: C_12  and  C_13
REMARK    7  A    between atoms: C_13  and  N_14
REMARK    8  A    between atoms: C_15  and  C_17
REMARK    9  A    between atoms: C_24  and  O_25
REMARK   10  A    between atoms: C_30  and  C_31
REMARK                            x       y       z     vdW  Elec       q    Type
REMARK                         _______ _______ _______ _____ _____    ______ ____
ROOT
ATOM      1  C   UNL     1      45.588   5.179  12.614  0.00  0.00    +0.000 A 
ATOM      2  C   UNL     1      46.146   6.240  11.887  0.00  0.00    +0.000 A 
ATOM      3  C   UNL     1      47.311   6.875  12.330  0.00  0.00    +0.000 A 
ATOM      4  C   UNL     1      47.949   6.455  13.505  0.00  0.00    +0.000 A 
ATOM      5  C   UNL     1      47.369   5.422  14.254  0.00  0.00    +0.000 A 
ATOM      6  C   UNL     1      46.204   4.788  13.810  0.00  0.00    +0.000 A 
ENDROOT
BRANCH   1   7
ATOM      7  C   UNL     1      44.346   4.485  12.118  0.00  0.00    +0.000 C 
BRANCH   7   8
ATOM      8  O   UNL     1      44.246   4.671  10.708  0.00  0.00    +0.000 OA
BRANCH   8   9
ATOM      9  C   UNL     1      43.937   3.453  10.032  0.00  0.00    +0.000 C 
BRANCH   9  14
ATOM     10  C   UNL     1      47.998   2.240   6.012  0.00  0.00    +0.000 C 
ATOM     11  C   UNL     1      46.968   2.530   7.069  0.00  0.00    +0.000 A 
ATOM     12  C   UNL     1      46.568   3.855   7.292  0.00  0.00    +0.000 A 
ATOM     13  C   UNL     1      45.595   4.159   8.245  0.00  0.00    +0.000 A 
ATOM     14  C   UNL     1      44.984   3.145   8.990  0.00  0.00    +0.000 A 
ATOM     15  C   UNL     1      45.406   1.822   8.789  0.00  0.00    +0.000 A 
ATOM     16  C   UNL     1      46.388   1.500   7.835  0.00  0.00    +0.000 A 
ATOM     17  C   UNL     1      46.793   0.064   7.650  0.00  0.00    +0.000 C 
ENDBRANCH   9  14
ENDBRANCH   8   9
ENDBRANCH   7   8
ENDBRANCH   1   7
BRANCH   4  18
ATOM     18  C   UNL     1      49.220   7.119  13.974  0.00  0.00    +0.000 C 
BRANCH  18  19
ATOM     19  N   UNL     1      49.112   7.512  15.354  0.00  0.00    +0.000 N 
ATOM     20  C   UNL     1      49.954   7.016  16.317  0.00  0.00    +0.000 C 
ATOM     21  O   UNL     1      50.752   6.110  16.092  0.00  0.00    +0.000 OA
ATOM     22  H   UNL     1      48.605   8.368  15.542  0.00  0.00    +0.000 HD
BRANCH  20  23
ATOM     23  C   UNL     1      49.825   7.618  17.649  0.00  0.00    +0.000 A 
ATOM     24  C   UNL     1      49.590   6.813  18.756  0.00  0.00    +0.000 A 
ATOM     25  S   UNL     1      49.444   7.691  20.211  0.00  0.00    +0.000 S 
ATOM     26  C   UNL     1      49.735   9.163  19.413  0.00  0.00    +0.000 A 
ATOM     27  N   UNL     1      49.765  10.316  20.104  0.00  0.00    +0.000 NA
ATOM     28  C   UNL     1      50.017  11.377  19.333  0.00  0.00    +0.000 A 
ATOM     29  N   UNL     1      50.225  11.390  18.009  0.00  0.00    +0.000 NA
ATOM     30  C   UNL     1      50.180  10.212  17.386  0.00  0.00    +0.000 A 
ATOM     31  C   UNL     1      49.925   9.011  18.046  0.00  0.00    +0.000 A 
BRANCH  30  32
ATOM     32  O   UNL     1      50.386  10.297  16.040  0.00  0.00    +0.000 OA
ATOM     33  H   UNL     1      50.900   9.484  15.885  0.00  0.00    +0.000 HD
ENDBRANCH  30  32
ENDBRANCH  20  23
ENDBRANCH  18  19
ENDBRANCH   4  18
TORSDOF 8
ENDMDL
MODEL 6
REMARK VINA RESULT:    -7.129      4.692      6.454
REMARK INTER + INTRA:         -11.662
REMARK INTER:                 -10.349
REMARK INTRA:                  -1.312
REMARK UNBOUND:                -1.407
REMARK  Name = 
REMARK  10 active torsions:
REMARK  status: ('A' for Active; 'I' for Inactive)
REMARK    1  A    between atoms: C_1  and  C_2
REMARK    2  A    between atoms: C_5  and  C_6
REMARK    3  A    between atoms: C_6  and  O_7
REMARK    4  A    between atoms: O_7  and  C_8
REMARK    5  A    between atoms: C_8  and  C_9
REMARK    6  A    between atoms: C_12  and  C_13
REMARK    7  A    between atoms: C_13  and  N_14
REMARK    8  A    between atoms: C_15  and  C_17
REMARK    9  A    between atoms: C_24  and  O_25
REMARK   10  A    between atoms: C_30  and  C_31
REMARK                            x       y       z     vdW  Elec       q    Type
REMARK                         _______ _______ _______ _____ _____    ______ ____
ROOT
ATOM      1  C   UNL     1      45.185   5.332  12.622  0.00  0.00    +0.000 A 
ATOM      2  C   UNL     1      44.520   6.566  12.629  0.00  0.00    +0.000 A 
ATOM      3  C   UNL     1      45.236   7.764  12.535  0.00  0.00    +0.000 A 
ATOM      4  C   UNL     1      46.633   7.752  12.420  0.00  0.00    +0.000 A 
ATOM      5  C   UNL     1      47.301   6.521  12.455  0.00  0.00    +0.000 A 
ATOM      6  C   UNL     1      46.584   5.324  12.549  0.00  0.00    +0.000 A 
ENDROOT
BRANCH   1   7
ATOM      7  C   UNL     1      44.405   4.044  12.699  0.00  0.00    +0.000 C 
BRANCH   7   8
ATOM      8  O   UNL     1      44.797   3.202  11.618  0.00  0.00    +0.000 OA
BRANCH   8   9
ATOM      9  C   UNL     1      44.187   3.595  10.390  0.00  0.00    +0.000 C 
BRANCH   9  14
ATOM     10  C   UNL     1      47.714   2.388   5.893  0.00  0.00    +0.000 C 
ATOM     11  C   UNL     1      46.823   2.677   7.070  0.00  0.00    +0.000 A 
ATOM     12  C   UNL     1      46.457   4.001   7.345  0.00  0.00    +0.000 A 
ATOM     13  C   UNL     1      45.610   4.304   8.413  0.00  0.00    +0.000 A 
ATOM     14  C   UNL     1      45.095   3.288   9.225  0.00  0.00    +0.000 A 
ATOM     15  C   UNL     1      45.486   1.965   8.970  0.00  0.00    +0.000 A 
ATOM     16  C   UNL     1      46.341   1.645   7.899  0.00  0.00    +0.000 A 
ATOM     17  C   UNL     1      46.717   0.208   7.662  0.00  0.00    +0.000 C 
ENDBRANCH   9  14
ENDBRANCH   8   9
ENDBRANCH   7   8
ENDBRANCH   1   7
BRANCH   4  18
ATOM     18  C   UNL     1      47.408   9.040  12.293  0.00  0.00    +0.000 C 
BRANCH  18  19
ATOM     19  N   UNL     1      48.612   8.838  11.529  0.00  0.00    +0.000 N 
ATOM     20  C   UNL     1      49.846   9.182  12.019  0.00  0.00    +0.000 C 
ATOM     21  O   UNL     1      49.989   9.807  13.066  0.00  0.00    +0.000 OA
ATOM     22  H   UNL     1      48.556   8.177  10.764  0.00  0.00    +0.000 HD
BRANCH  20  23
ATOM     23  C   UNL     1      50.994   8.781  11.196  0.00  0.00    +0.000 A 
ATOM     24  C   UNL     1      51.155   7.451  10.829  0.00  0.00    +0.000 A 
ATOM     25  S   UNL     1      52.557   7.172   9.898  0.00  0.00    +0.000 S 
ATOM     26  C   UNL     1      52.963   8.822   9.920  0.00  0.00    +0.000 A 
ATOM     27  N   UNL     1      54.060   9.260   9.279  0.00  0.00    +0.000 NA
ATOM     28  C   UNL     1      54.230  10.581   9.383  0.00  0.00    +0.000 A 
ATOM     29  N   UNL     1      53.450  11.453  10.037  0.00  0.00    +0.000 NA
ATOM     30  C   UNL     1      52.378  10.951  10.652  0.00  0.00    +0.000 A 
ATOM     31  C   UNL     1      52.061   9.593  10.642  0.00  0.00    +0.000 A 
BRANCH  30  32
ATOM     32  O   UNL     1      51.636  11.888  11.309  0.00  0.00    +0.000 OA
ATOM     33  H   UNL     1      51.221  11.338  11.998  0.00  0.00    +0.000 HD
ENDBRANCH  30  32
ENDBRANCH  20  23
ENDBRANCH  18  19
ENDBRANCH   4  18
TORSDOF 8
ENDMDL
MODEL 7
REMARK VINA RESULT:    -7.076      3.618      9.268
REMARK INTER + INTRA:         -11.585
REMARK INTER:                  -9.877
REMARK INTRA:                  -1.708
REMARK UNBOUND:                -1.407
REMARK  Name = 
REMARK  10 active torsions:
REMARK  status: ('A' for Active; 'I' for Inactive)
REMARK    1  A    between atoms: C_1  and  C_2
REMARK    2  A    between atoms: C_5  and  C_6
REMARK    3  A    between atoms: C_6  and  O_7
REMARK    4  A    between atoms: O_7  and  C_8
REMARK    5  A    between atoms: C_8  and  C_9
REMARK    6  A    between atoms: C_12  and  C_13
REMARK    7  A    between atoms: C_13  and  N_14
REMARK    8  A    between atoms: C_15  and  C_17
REMARK    9  A    between atoms: C_24  and  O_25
REMARK   10  A    between atoms: C_30  and  C_31
REMARK                            x       y       z     vdW  Elec       q    Type
REMARK                         _______ _______ _______ _____ _____    ______ ____
ROOT
ATOM      1  C   UNL     1      49.054   8.314  16.392  0.00  0.00    +0.000 A 
ATOM      2  C   UNL     1      49.541   7.215  15.670  0.00  0.00    +0.000 A 
ATOM      3  C   UNL     1      49.139   6.993  14.349  0.00  0.00    +0.000 A 
ATOM      4  C   UNL     1      48.251   7.873  13.717  0.00  0.00    +0.000 A 
ATOM      5  C   UNL     1      47.732   8.948  14.450  0.00  0.00    +0.000 A 
ATOM      6  C   UNL     1      48.134   9.169  15.772  0.00  0.00    +0.000 A 
ENDROOT
BRANCH   1   7
ATOM      7  C   UNL     1      49.509   8.559  17.808  0.00  0.00    +0.000 C 
BRANCH   7   8
ATOM      8  O   UNL     1      48.539   8.024  18.703  0.00  0.00    +0.000 OA
BRANCH   8   9
ATOM      9  C   UNL     1      49.120   7.110  19.632  0.00  0.00    +0.000 C 
BRANCH   9  14
ATOM     10  C   UNL     1      50.258   1.997  17.046  0.00  0.00    +0.000 C 
ATOM     11  C   UNL     1      49.939   3.298  17.730  0.00  0.00    +0.000 A 
ATOM     12  C   UNL     1      50.988   4.109  18.184  0.00  0.00    +0.000 A 
ATOM     13  C   UNL     1      50.732   5.336  18.799  0.00  0.00    +0.000 A 
ATOM     14  C   UNL     1      49.419   5.791  18.961  0.00  0.00    +0.000 A 
ATOM     15  C   UNL     1      48.367   4.966  18.535  0.00  0.00    +0.000 A 
ATOM     16  C   UNL     1      48.611   3.726  17.916  0.00  0.00    +0.000 A 
ATOM     17  C   UNL     1      47.447   2.888  17.465  0.00  0.00    +0.000 C 
ENDBRANCH   9  14
ENDBRANCH   8   9
ENDBRANCH   7   8
ENDBRANCH   1   7
BRANCH   4  18
ATOM     18  C   UNL     1      47.835   7.654  12.283  0.00  0.00    +0.000 C 
BRANCH  18  19
ATOM     19  N   UNL     1      47.062   6.446  12.155  0.00  0.00    +0.000 N 
ATOM     20  C   UNL     1      45.690   6.457  12.193  0.00  0.00    +0.000 C 
ATOM     21  O   UNL     1      45.047   7.464  12.478  0.00  0.00    +0.000 OA
ATOM     22  H   UNL     1      47.533   5.649  11.746  0.00  0.00    +0.000 HD
BRANCH  20  23
ATOM     23  C   UNL     1      45.033   5.178  11.899  0.00  0.00    +0.000 A 
ATOM     24  C   UNL     1      44.350   4.501  12.900  0.00  0.00    +0.000 A 
ATOM     25  S   UNL     1      43.676   3.024  12.378  0.00  0.00    +0.000 S 
ATOM     26  C   UNL     1      44.237   3.269  10.792  0.00  0.00    +0.000 A 
ATOM     27  N   UNL     1      43.974   2.365   9.832  0.00  0.00    +0.000 NA
ATOM     28  C   UNL     1      44.473   2.712   8.643  0.00  0.00    +0.000 A 
ATOM     29  N   UNL     1      45.176   3.813   8.344  0.00  0.00    +0.000 NA
ATOM     30  C   UNL     1      45.402   4.666   9.345  0.00  0.00    +0.000 A 
ATOM     31  C   UNL     1      44.951   4.450  10.646  0.00  0.00    +0.000 A 
BRANCH  30  32
ATOM     32  O   UNL     1      46.133   5.758   8.977  0.00  0.00    +0.000 OA
ATOM     33  H   UNL     1      45.988   6.338   9.747  0.00  0.00    +0.000 HD
ENDBRANCH  30  32
ENDBRANCH  20  23
ENDBRANCH  18  19
ENDBRANCH   4  18
TORSDOF 8
ENDMDL
MODEL 8
REMARK VINA RESULT:    -6.818      4.100      8.442
REMARK INTER + INTRA:         -11.214
REMARK INTER:                  -9.331
REMARK INTRA:                  -1.884
REMARK UNBOUND:                -1.407
REMARK  Name = 
REMARK  10 active torsions:
REMARK  status: ('A' for Active; 'I' for Inactive)
REMARK    1  A    between atoms: C_1  and  C_2
REMARK    2  A    between atoms: C_5  and  C_6
REMARK    3  A    between atoms: C_6  and  O_7
REMARK    4  A    between atoms: O_7  and  C_8
REMARK    5  A    between atoms: C_8  and  C_9
REMARK    6  A    between atoms: C_12  and  C_13
REMARK    7  A    between atoms: C_13  and  N_14
REMARK    8  A    between atoms: C_15  and  C_17
REMARK    9  A    between atoms: C_24  and  O_25
REMARK   10  A    between atoms: C_30  and  C_31
REMARK                            x       y       z     vdW  Elec       q    Type
REMARK                         _______ _______ _______ _____ _____    ______ ____
ROOT
ATOM      1  C   UNL     1      49.154   8.544  17.472  0.00  0.00    +0.000 A 
ATOM      2  C   UNL     1      48.237   9.079  16.556  0.00  0.00    +0.000 A 
ATOM      3  C   UNL     1      48.359   8.818  15.188  0.00  0.00    +0.000 A 
ATOM      4  C   UNL     1      49.394   8.006  14.707  0.00  0.00    +0.000 A 
ATOM      5  C   UNL     1      50.335   7.505  15.616  0.00  0.00    +0.000 A 
ATOM      6  C   UNL     1      50.213   7.766  16.985  0.00  0.00    +0.000 A 
ENDROOT
BRANCH   1   7
ATOM      7  C   UNL     1      49.002   8.811  18.948  0.00  0.00    +0.000 C 
BRANCH   7   8
ATOM      8  O   UNL     1      47.943   8.005  19.455  0.00  0.00    +0.000 OA
BRANCH   8   9
ATOM      9  C   UNL     1      48.429   6.818  20.080  0.00  0.00    +0.000 C 
BRANCH   9  14
ATOM     10  C   UNL     1      48.401   2.354  16.312  0.00  0.00    +0.000 C 
ATOM     11  C   UNL     1      48.438   3.514  17.269  0.00  0.00    +0.000 A 
ATOM     12  C   UNL     1      47.268   4.248  17.503  0.00  0.00    +0.000 A 
ATOM     13  C   UNL     1      47.258   5.314  18.405  0.00  0.00    +0.000 A 
ATOM     14  C   UNL     1      48.416   5.663  19.108  0.00  0.00    +0.000 A 
ATOM     15  C   UNL     1      49.596   4.949  18.851  0.00  0.00    +0.000 A 
ATOM     16  C   UNL     1      49.621   3.875  17.943  0.00  0.00    +0.000 A 
ATOM     17  C   UNL     1      50.910   3.133  17.716  0.00  0.00    +0.000 C 
ENDBRANCH   9  14
ENDBRANCH   8   9
ENDBRANCH   7   8
ENDBRANCH   1   7
BRANCH   4  18
ATOM     18  C   UNL     1      49.515   7.699  13.234  0.00  0.00    +0.000 C 
BRANCH  18  19
ATOM     19  N   UNL     1      48.224   7.417  12.663  0.00  0.00    +0.000 N 
ATOM     20  C   UNL     1      47.575   6.231  12.891  0.00  0.00    +0.000 C 
ATOM     21  O   UNL     1      48.108   5.289  13.471  0.00  0.00    +0.000 OA
ATOM     22  H   UNL     1      47.688   8.215  12.343  0.00  0.00    +0.000 HD
BRANCH  20  23
ATOM     23  C   UNL     1      46.205   6.142  12.371  0.00  0.00    +0.000 A 
ATOM     24  C   UNL     1      45.604   7.258  11.804  0.00  0.00    +0.000 A 
ATOM     25  S   UNL     1      44.005   6.972  11.282  0.00  0.00    +0.000 S 
ATOM     26  C   UNL     1      44.087   5.342  11.756  0.00  0.00    +0.000 A 
ATOM     27  N   UNL     1      43.037   4.524  11.562  0.00  0.00    +0.000 NA
ATOM     28  C   UNL     1      43.267   3.276  11.978  0.00  0.00    +0.000 A 
ATOM     29  N   UNL     1      44.386   2.799  12.541  0.00  0.00    +0.000 NA
ATOM     30  C   UNL     1      45.388   3.664  12.705  0.00  0.00    +0.000 A 
ATOM     31  C   UNL     1      45.306   5.003  12.327  0.00  0.00    +0.000 A 
BRANCH  30  32
ATOM     32  O   UNL     1      46.490   3.118  13.295  0.00  0.00    +0.000 OA
ATOM     33  H   UNL     1      46.119   2.280  13.628  0.00  0.00    +0.000 HD
ENDBRANCH  30  32
ENDBRANCH  20  23
ENDBRANCH  18  19
ENDBRANCH   4  18
TORSDOF 8
ENDMDL
MODEL 9
REMARK VINA RESULT:    -6.796      3.698      9.245
REMARK INTER + INTRA:         -11.183
REMARK INTER:                  -9.274
REMARK INTRA:                  -1.909
REMARK UNBOUND:                -1.407
REMARK  Name = 
REMARK  10 active torsions:
REMARK  status: ('A' for Active; 'I' for Inactive)
REMARK    1  A    between atoms: C_1  and  C_2
REMARK    2  A    between atoms: C_5  and  C_6
REMARK    3  A    between atoms: C_6  and  O_7
REMARK    4  A    between atoms: O_7  and  C_8
REMARK    5  A    between atoms: C_8  and  C_9
REMARK    6  A    between atoms: C_12  and  C_13
REMARK    7  A    between atoms: C_13  and  N_14
REMARK    8  A    between atoms: C_15  and  C_17
REMARK    9  A    between atoms: C_24  and  O_25
REMARK   10  A    between atoms: C_30  and  C_31
REMARK                            x       y       z     vdW  Elec       q    Type
REMARK                         _______ _______ _______ _____ _____    ______ ____
ROOT
ATOM      1  C   UNL     1      48.897   5.755  20.196  0.00  0.00    +0.000 A 
ATOM      2  C   UNL     1      47.643   6.057  19.648  0.00  0.00    +0.000 A 
ATOM      3  C   UNL     1      47.163   5.360  18.535  0.00  0.00    +0.000 A 
ATOM      4  C   UNL     1      47.923   4.337  17.953  0.00  0.00    +0.000 A 
ATOM      5  C   UNL     1      49.195   4.063  18.474  0.00  0.00    +0.000 A 
ATOM      6  C   UNL     1      49.674   4.761  19.588  0.00  0.00    +0.000 A 
ENDROOT
BRANCH   1   7
ATOM      7  C   UNL     1      49.397   6.496  21.411  0.00  0.00    +0.000 C 
BRANCH   7   8
ATOM      8  O   UNL     1      49.342   7.896  21.152  0.00  0.00    +0.000 OA
BRANCH   8   9
ATOM      9  C   UNL     1      50.395   8.319  20.287  0.00  0.00    +0.000 C 
BRANCH   9  14
ATOM     10  C   UNL     1      48.405   9.185  14.864  0.00  0.00    +0.000 C 
ATOM     11  C   UNL     1      48.949   8.964  16.249  0.00  0.00    +0.000 A 
ATOM     12  C   UNL     1      48.364   9.635  17.332  0.00  0.00    +0.000 A 
ATOM     13  C   UNL     1      48.826   9.433  18.633  0.00  0.00    +0.000 A 
ATOM     14  C   UNL     1      49.875   8.544  18.889  0.00  0.00    +0.000 A 
ATOM     15  C   UNL     1      50.481   7.896  17.802  0.00  0.00    +0.000 A 
ATOM     16  C   UNL     1      50.029   8.092  16.484  0.00  0.00    +0.000 A 
ATOM     17  C   UNL     1      50.706   7.361  15.358  0.00  0.00    +0.000 C 
ENDBRANCH   9  14
ENDBRANCH   8   9
ENDBRANCH   7   8
ENDBRANCH   1   7
BRANCH   4  18
ATOM     18  C   UNL     1      47.400   3.563  16.768  0.00  0.00    +0.000 C 
BRANCH  18  19
ATOM     19  N   UNL     1      46.906   4.456  15.752  0.00  0.00    +0.000 N 
ATOM     20  C   UNL     1      46.874   4.100  14.428  0.00  0.00    +0.000 C 
ATOM     21  O   UNL     1      47.389   3.067  14.011  0.00  0.00    +0.000 OA
ATOM     22  H   UNL     1      46.321   5.220  16.068  0.00  0.00    +0.000 HD
BRANCH  20  23
ATOM     23  C   UNL     1      46.208   5.049  13.528  0.00  0.00    +0.000 A 
ATOM     24  C   UNL     1      46.625   6.372  13.480  0.00  0.00    +0.000 A 
ATOM     25  S   UNL     1      45.716   7.328  12.398  0.00  0.00    +0.000 S 
ATOM     26  C   UNL     1      44.772   5.994  11.931  0.00  0.00    +0.000 A 
ATOM     27  N   UNL     1      43.809   6.135  11.003  0.00  0.00    +0.000 NA
ATOM     28  C   UNL     1      43.170   4.993  10.741  0.00  0.00    +0.000 A 
ATOM     29  N   UNL     1      43.389   3.792  11.293  0.00  0.00    +0.000 NA
ATOM     30  C   UNL     1      44.358   3.723  12.207  0.00  0.00    +0.000 A 
ATOM     31  C   UNL     1      45.117   4.826  12.596  0.00  0.00    +0.000 A 
BRANCH  30  32
ATOM     32  O   UNL     1      44.520   2.477  12.739  0.00  0.00    +0.000 OA
ATOM     33  H   UNL     1      43.710   2.039  12.419  0.00  0.00    +0.000 HD
ENDBRANCH  30  32
ENDBRANCH  20  23
ENDBRANCH  18  19
ENDBRANCH   4  18
TORSDOF 8
ENDMDL
