MODEL 1
REMARK VINA RESULT:    -8.630      0.000      0.000
REMARK INTER + INTRA:         -11.312
REMARK INTER:                 -10.648
REMARK INTRA:                  -0.664
REMARK UNBOUND:                -0.664
REMARK  Name = 
REMARK  5 active torsions:
REMARK  status: ('A' for Active; 'I' for Inactive)
REMARK    1  A    between atoms: C_1  and  C_2
REMARK    2  A    between atoms: N_4  and  C_5
REMARK    3  A    between atoms: C_9  and  C_10
REMARK    4  A    between atoms: C_10  and  N_11
REMARK    5  A    between atoms: C_15  and  C_16
REMARK                            x       y       z     vdW  Elec       q    Type
REMARK                         _______ _______ _______ _____ _____    ______ ____
ROOT
ATOM      1  C   UNL     1      46.434   6.263  13.159  0.00  0.00    +0.000 A 
ATOM      2  C   UNL     1      46.949   5.137  13.816  0.00  0.00    +0.000 A 
ATOM      3  C   UNL     1      46.455   3.848  13.578  0.00  0.00    +0.000 A 
ATOM      4  C   UNL     1      45.405   3.655  12.686  0.00  0.00    +0.000 A 
ATOM      5  C   UNL     1      44.842   4.749  12.027  0.00  0.00    +0.000 A 
ATOM      6  C   UNL     1      45.391   6.030  12.246  0.00  0.00    +0.000 A 
ENDROOT
BRANCH   1  10
ATOM      7  C   UNL     1      49.412   7.978  11.538  0.00  0.00    +0.000 C 
ATOM      8  C   UNL     1      49.053   8.706  12.836  0.00  0.00    +0.000 C 
ATOM      9  C   UNL     1      48.310   7.778  13.836  0.00  0.00    +0.000 C 
ATOM     10  N   UNL     1      46.926   7.530  13.411  0.00  0.00    +0.000 N 
ATOM     11  C   UNL     1      46.145   8.737  13.100  0.00  0.00    +0.000 C 
ATOM     12  C   UNL     1      46.929   9.664  12.137  0.00  0.00    +0.000 C 
ATOM     13  N   UNL     1      48.314   9.965  12.559  0.00  0.00    +0.000 NA
ATOM     14  H   UNL     1      48.257  10.484  13.437  0.00  0.00    +0.000 HD
ENDBRANCH   1  10
BRANCH   5  15
ATOM     15  C   UNL     1      43.631   4.584  11.137  0.00  0.00    +0.000 C 
BRANCH  15  16
ATOM     16  N   UNL     1      43.954   4.879   9.757  0.00  0.00    +0.000 N 
ATOM     17  C   UNL     1      44.850   4.069   9.079  0.00  0.00    +0.000 A 
ATOM     18  C   UNL     1      44.956   2.682   9.254  0.00  0.00    +0.000 A 
ATOM     19  N   UNL     1      45.789   1.875   8.544  0.00  0.00    +0.000 NA
ATOM     20  C   UNL     1      46.521   2.522   7.598  0.00  0.00    +0.000 A 
ATOM     21  C   UNL     1      46.430   3.889   7.402  0.00  0.00    +0.000 A 
ATOM     22  N   UNL     1      45.603   4.683   8.141  0.00  0.00    +0.000 NA
ATOM     23  H   UNL     1      44.180   5.852   9.559  0.00  0.00    +0.000 HD
BRANCH  20  24
ATOM     24  C   UNL     1      47.437   1.703   6.753  0.00  0.00    +0.000 C 
ATOM     25  N   UNL     1      48.488   2.374   6.191  0.00  0.00    +0.000 N 
ATOM     26  O   UNL     1      47.259   0.505   6.570  0.00  0.00    +0.000 OA
ATOM     27  H   UNL     1      48.616   3.365   6.368  0.00  0.00    +0.000 HD
ATOM     28  H   UNL     1      49.148   1.871   5.617  0.00  0.00    +0.000 HD
ENDBRANCH  20  24
ENDBRANCH  15  16
ENDBRANCH   5  15
TORSDOF 4
ENDMDL
MODEL 2
REMARK VINA RESULT:    -8.206      1.471      2.639
REMARK INTER + INTRA:         -10.789
REMARK INTER:                 -10.079
REMARK INTRA:                  -0.711
REMARK UNBOUND:                -0.664
REMARK  Name = 
REMARK  5 active torsions:
REMARK  status: ('A' for Active; 'I' for Inactive)
REMARK    1  A    between atoms: C_1  and  C_2
REMARK    2  A    between atoms: N_4  and  C_5
REMARK    3  A    between atoms: C_9  and  C_10
REMARK    4  A    between atoms: C_10  and  N_11
REMARK    5  A    between atoms: C_15  and  C_16
REMARK                            x       y       z     vdW  Elec       q    Type
REMARK                         _______ _______ _______ _____ _____    ______ ____
ROOT
ATOM      1  C   UNL     1      46.482   6.496  12.922  0.00  0.00    +0.000 A 
ATOM      2  C   UNL     1      46.281   7.863  12.682  0.00  0.00    +0.000 A 
ATOM      3  C   UNL     1      45.168   8.336  11.976  0.00  0.00    +0.000 A 
ATOM      4  C   UNL     1      44.233   7.443  11.464  0.00  0.00    +0.000 A 
ATOM      5  C   UNL     1      44.404   6.071  11.655  0.00  0.00    +0.000 A 
ATOM      6  C   UNL     1      45.506   5.624  12.414  0.00  0.00    +0.000 A 
ENDROOT
BRANCH   1  10
ATOM      7  C   UNL     1      48.546   8.366  15.507  0.00  0.00    +0.000 C 
ATOM      8  C   UNL     1      49.345   7.165  14.993  0.00  0.00    +0.000 C 
ATOM      9  C   UNL     1      48.890   6.729  13.573  0.00  0.00    +0.000 C 
ATOM     10  N   UNL     1      47.590   6.044  13.613  0.00  0.00    +0.000 N 
ATOM     11  C   UNL     1      47.498   4.941  14.582  0.00  0.00    +0.000 C 
ATOM     12  C   UNL     1      48.000   5.392  15.976  0.00  0.00    +0.000 C 
ATOM     13  N   UNL     1      49.326   6.049  15.974  0.00  0.00    +0.000 NA
ATOM     14  H   UNL     1      50.006   5.356  15.660  0.00  0.00    +0.000 HD
ENDBRANCH   1  10
BRANCH   5  15
ATOM     15  C   UNL     1      43.464   5.073  11.019  0.00  0.00    +0.000 C 
BRANCH  15  16
ATOM     16  N   UNL     1      43.703   4.966   9.595  0.00  0.00    +0.000 N 
ATOM     17  C   UNL     1      44.585   4.008   9.123  0.00  0.00    +0.000 A 
ATOM     18  C   UNL     1      44.742   2.730   9.679  0.00  0.00    +0.000 A 
ATOM     19  N   UNL     1      45.560   1.765   9.179  0.00  0.00    +0.000 NA
ATOM     20  C   UNL     1      46.220   2.125   8.046  0.00  0.00    +0.000 A 
ATOM     21  C   UNL     1      46.076   3.378   7.474  0.00  0.00    +0.000 A 
ATOM     22  N   UNL     1      45.267   4.338   8.005  0.00  0.00    +0.000 NA
ATOM     23  H   UNL     1      43.888   5.843   9.115  0.00  0.00    +0.000 HD
BRANCH  20  24
ATOM     24  C   UNL     1      47.113   1.112   7.415  0.00  0.00    +0.000 C 
ATOM     25  N   UNL     1      48.143   1.610   6.664  0.00  0.00    +0.000 N 
ATOM     26  O   UNL     1      46.937  -0.092   7.557  0.00  0.00    +0.000 OA
ATOM     27  H   UNL     1      48.270   2.612   6.572  0.00  0.00    +0.000 HD
ATOM     28  H   UNL     1      48.787   0.972   6.220  0.00  0.00    +0.000 HD
ENDBRANCH  20  24
ENDBRANCH  15  16
ENDBRANCH   5  15
TORSDOF 4
ENDMDL
MODEL 3
REMARK VINA RESULT:    -6.569      3.647      6.051
REMARK INTER + INTRA:          -8.769
REMARK INTER:                  -8.094
REMARK INTRA:                  -0.674
REMARK UNBOUND:                -0.664
REMARK  Name = 
REMARK  5 active torsions:
REMARK  status: ('A' for Active; 'I' for Inactive)
REMARK    1  A    between atoms: C_1  and  C_2
REMARK    2  A    between atoms: N_4  and  C_5
REMARK    3  A    between atoms: C_9  and  C_10
REMARK    4  A    between atoms: C_10  and  N_11
REMARK    5  A    between atoms: C_15  and  C_16
REMARK                            x       y       z     vdW  Elec       q    Type
REMARK                         _______ _______ _______ _____ _____    ______ ____
ROOT
ATOM      1  C   UNL     1      48.890   6.750  16.953  0.00  0.00    +0.000 A 
ATOM      2  C   UNL     1      48.651   8.058  17.402  0.00  0.00    +0.000 A 
ATOM      3  C   UNL     1      48.353   9.102  16.519  0.00  0.00    +0.000 A 
ATOM      4  C   UNL     1      48.313   8.870  15.147  0.00  0.00    +0.000 A 
ATOM      5  C   UNL     1      48.569   7.591  14.651  0.00  0.00    +0.000 A 
ATOM      6  C   UNL     1      48.816   6.545  15.565  0.00  0.00    +0.000 A 
ENDROOT
BRANCH   1  10
ATOM      7  C   UNL     1      47.887   3.093  16.729  0.00  0.00    +0.000 C 
ATOM      8  C   UNL     1      48.327   3.411  18.161  0.00  0.00    +0.000 C 
ATOM      9  C   UNL     1      48.162   4.918  18.498  0.00  0.00    +0.000 C 
ATOM     10  N   UNL     1      49.192   5.732  17.836  0.00  0.00    +0.000 N 
ATOM     11  C   UNL     1      50.574   5.272  18.041  0.00  0.00    +0.000 C 
ATOM     12  C   UNL     1      50.698   3.757  17.741  0.00  0.00    +0.000 C 
ATOM     13  N   UNL     1      49.699   2.907  18.425  0.00  0.00    +0.000 NA
ATOM     14  H   UNL     1      49.867   2.992  19.429  0.00  0.00    +0.000 HD
ENDBRANCH   1  10
BRANCH   5  15
ATOM     15  C   UNL     1      48.638   7.332  13.163  0.00  0.00    +0.000 C 
BRANCH  15  16
ATOM     16  N   UNL     1      47.337   7.481  12.547  0.00  0.00    +0.000 N 
ATOM     17  C   UNL     1      46.584   6.353  12.264  0.00  0.00    +0.000 A 
ATOM     18  C   UNL     1      46.547   5.203  13.064  0.00  0.00    +0.000 A 
ATOM     19  N   UNL     1      45.760   4.120  12.824  0.00  0.00    +0.000 NA
ATOM     20  C   UNL     1      44.960   4.242  11.731  0.00  0.00    +0.000 A 
ATOM     21  C   UNL     1      44.974   5.371  10.930  0.00  0.00    +0.000 A 
ATOM     22  N   UNL     1      45.787   6.437  11.176  0.00  0.00    +0.000 NA
ATOM     23  H   UNL     1      47.302   8.106  11.744  0.00  0.00    +0.000 HD
BRANCH  20  24
ATOM     24  C   UNL     1      44.042   3.111  11.416  0.00  0.00    +0.000 C 
ATOM     25  N   UNL     1      43.727   2.290  12.465  0.00  0.00    +0.000 N 
ATOM     26  O   UNL     1      43.599   2.924  10.290  0.00  0.00    +0.000 OA
ATOM     27  H   UNL     1      44.102   2.474  13.389  0.00  0.00    +0.000 HD
ATOM     28  H   UNL     1      43.101   1.512  12.315  0.00  0.00    +0.000 HD
ENDBRANCH  20  24
ENDBRANCH  15  16
ENDBRANCH   5  15
TORSDOF 4
ENDMDL
MODEL 4
REMARK VINA RESULT:    -6.533      4.825      8.636
REMARK INTER + INTRA:          -8.725
REMARK INTER:                  -8.148
REMARK INTRA:                  -0.577
REMARK UNBOUND:                -0.664
REMARK  Name = 
REMARK  5 active torsions:
REMARK  status: ('A' for Active; 'I' for Inactive)
REMARK    1  A    between atoms: C_1  and  C_2
REMARK    2  A    between atoms: N_4  and  C_5
REMARK    3  A    between atoms: C_9  and  C_10
REMARK    4  A    between atoms: C_10  and  N_11
REMARK    5  A    between atoms: C_15  and  C_16
REMARK                            x       y       z     vdW  Elec       q    Type
REMARK                         _______ _______ _______ _____ _____    ______ ____
ROOT
ATOM      1  C   UNL     1      45.112   6.508  12.307  0.00  0.00    +0.000 A 
ATOM      2  C   UNL     1      45.185   7.829  11.840  0.00  0.00    +0.000 A 
ATOM      3  C   UNL     1      46.251   8.674  12.169  0.00  0.00    +0.000 A 
ATOM      4  C   UNL     1      47.270   8.224  13.003  0.00  0.00    +0.000 A 
ATOM      5  C   UNL     1      47.228   6.926  13.513  0.00  0.00    +0.000 A 
ATOM      6  C   UNL     1      46.169   6.078  13.126  0.00  0.00    +0.000 A 
ENDROOT
BRANCH   1  10
ATOM      7  C   UNL     1      45.175   3.293  10.285  0.00  0.00    +0.000 C 
ATOM      8  C   UNL     1      43.738   3.820  10.354  0.00  0.00    +0.000 C 
ATOM      9  C   UNL     1      43.694   5.354  10.595  0.00  0.00    +0.000 C 
ATOM     10  N   UNL     1      44.048   5.689  11.982  0.00  0.00    +0.000 N 
ATOM     11  C   UNL     1      43.301   4.949  13.011  0.00  0.00    +0.000 C 
ATOM     12  C   UNL     1      43.325   3.428  12.719  0.00  0.00    +0.000 C 
ATOM     13  N   UNL     1      42.933   3.056  11.341  0.00  0.00    +0.000 NA
ATOM     14  H   UNL     1      41.958   3.333  11.219  0.00  0.00    +0.000 HD
ENDBRANCH   1  10
BRANCH   5  15
ATOM     15  C   UNL     1      48.261   6.445  14.506  0.00  0.00    +0.000 C 
BRANCH  15  16
ATOM     16  N   UNL     1      47.742   5.365  15.318  0.00  0.00    +0.000 N 
ATOM     17  C   UNL     1      48.194   5.213  16.619  0.00  0.00    +0.000 A 
ATOM     18  C   UNL     1      48.515   6.273  17.477  0.00  0.00    +0.000 A 
ATOM     19  N   UNL     1      48.897   6.129  18.774  0.00  0.00    +0.000 NA
ATOM     20  C   UNL     1      48.920   4.841  19.210  0.00  0.00    +0.000 A 
ATOM     21  C   UNL     1      48.600   3.778  18.383  0.00  0.00    +0.000 A 
ATOM     22  N   UNL     1      48.241   3.943  17.079  0.00  0.00    +0.000 NA
ATOM     23  H   UNL     1      47.723   4.451  14.871  0.00  0.00    +0.000 HD
BRANCH  20  24
ATOM     24  C   UNL     1      49.298   4.599  20.631  0.00  0.00    +0.000 C 
ATOM     25  N   UNL     1      50.640   4.588  20.898  0.00  0.00    +0.000 N 
ATOM     26  O   UNL     1      48.460   4.418  21.507  0.00  0.00    +0.000 OA
ATOM     27  H   UNL     1      51.310   4.750  20.155  0.00  0.00    +0.000 HD
ATOM     28  H   UNL     1      50.956   4.439  21.845  0.00  0.00    +0.000 HD
ENDBRANCH  20  24
ENDBRANCH  15  16
ENDBRANCH   5  15
TORSDOF 4
ENDMDL
MODEL 5
REMARK VINA RESULT:    -6.519      3.900      6.283
REMARK INTER + INTRA:          -8.708
REMARK INTER:                  -8.077
REMARK INTRA:                  -0.631
REMARK UNBOUND:                -0.664
REMARK  Name = 
REMARK  5 active torsions:
REMARK  status: ('A' for Active; 'I' for Inactive)
REMARK    1  A    between atoms: C_1  and  C_2
REMARK    2  A    between atoms: N_4  and  C_5
REMARK    3  A    between atoms: C_9  and  C_10
REMARK    4  A    between atoms: C_10  and  N_11
REMARK    5  A    between atoms: C_15  and  C_16
REMARK                            x       y       z     vdW  Elec       q    Type
REMARK                         _______ _______ _______ _____ _____    ______ ____
ROOT
ATOM      1  C   UNL     1      48.784   6.624  17.144  0.00  0.00    +0.000 A 
ATOM      2  C   UNL     1      49.549   7.744  17.504  0.00  0.00    +0.000 A 
ATOM      3  C   UNL     1      50.087   8.613  16.547  0.00  0.00    +0.000 A 
ATOM      4  C   UNL     1      49.894   8.368  15.191  0.00  0.00    +0.000 A 
ATOM      5  C   UNL     1      49.162   7.252  14.783  0.00  0.00    +0.000 A 
ATOM      6  C   UNL     1      48.587   6.420  15.768  0.00  0.00    +0.000 A 
ENDROOT
BRANCH   1  10
ATOM      7  C   UNL     1      49.552   2.937  17.641  0.00  0.00    +0.000 C 
ATOM      8  C   UNL     1      48.256   3.288  18.378  0.00  0.00    +0.000 C 
ATOM      9  C   UNL     1      47.556   4.530  17.760  0.00  0.00    +0.000 C 
ATOM     10  N   UNL     1      48.267   5.771  18.099  0.00  0.00    +0.000 N 
ATOM     11  C   UNL     1      48.548   5.955  19.532  0.00  0.00    +0.000 C 
ATOM     12  C   UNL     1      49.204   4.685  20.129  0.00  0.00    +0.000 C 
ATOM     13  N   UNL     1      48.488   3.423  19.839  0.00  0.00    +0.000 NA
ATOM     14  H   UNL     1      47.574   3.484  20.288  0.00  0.00    +0.000 HD
ENDBRANCH   1  10
BRANCH   5  15
ATOM     15  C   UNL     1      49.027   6.900  13.320  0.00  0.00    +0.000 C 
BRANCH  15  16
ATOM     16  N   UNL     1      47.694   7.188  12.834  0.00  0.00    +0.000 N 
ATOM     17  C   UNL     1      46.847   6.141  12.510  0.00  0.00    +0.000 A 
ATOM     18  C   UNL     1      46.796   4.919  13.196  0.00  0.00    +0.000 A 
ATOM     19  N   UNL     1      45.922   3.914  12.922  0.00  0.00    +0.000 NA
ATOM     20  C   UNL     1      45.047   4.194  11.918  0.00  0.00    +0.000 A 
ATOM     21  C   UNL     1      45.073   5.396  11.231  0.00  0.00    +0.000 A 
ATOM     22  N   UNL     1      45.973   6.381  11.508  0.00  0.00    +0.000 NA
ATOM     23  H   UNL     1      47.637   7.891  12.101  0.00  0.00    +0.000 HD
BRANCH  20  24
ATOM     24  C   UNL     1      44.033   3.157  11.576  0.00  0.00    +0.000 C 
ATOM     25  N   UNL     1      43.642   2.344  12.605  0.00  0.00    +0.000 N 
ATOM     26  O   UNL     1      43.579   3.035  10.445  0.00  0.00    +0.000 OA
ATOM     27  H   UNL     1      44.028   2.473  13.534  0.00  0.00    +0.000 HD
ATOM     28  H   UNL     1      42.949   1.628  12.437  0.00  0.00    +0.000 HD
ENDBRANCH  20  24
ENDBRANCH  15  16
ENDBRANCH   5  15
TORSDOF 4
ENDMDL
MODEL 6
REMARK VINA RESULT:    -6.499      5.333      8.160
REMARK INTER + INTRA:          -8.683
REMARK INTER:                  -8.046
REMARK INTRA:                  -0.636
REMARK UNBOUND:                -0.664
REMARK  Name = 
REMARK  5 active torsions:
REMARK  status: ('A' for Active; 'I' for Inactive)
REMARK    1  A    between atoms: C_1  and  C_2
REMARK    2  A    between atoms: N_4  and  C_5
REMARK    3  A    between atoms: C_9  and  C_10
REMARK    4  A    between atoms: C_10  and  N_11
REMARK    5  A    between atoms: C_15  and  C_16
REMARK                            x       y       z     vdW  Elec       q    Type
REMARK                         _______ _______ _______ _____ _____    ______ ____
ROOT
ATOM      1  C   UNL     1      46.762   5.322  13.260  0.00  0.00    +0.000 A 
ATOM      2  C   UNL     1      47.731   6.337  13.239  0.00  0.00    +0.000 A 
ATOM      3  C   UNL     1      48.533   6.618  14.351  0.00  0.00    +0.000 A 
ATOM      4  C   UNL     1      48.368   5.904  15.533  0.00  0.00    +0.000 A 
ATOM      5  C   UNL     1      47.399   4.902  15.610  0.00  0.00    +0.000 A 
ATOM      6  C   UNL     1      46.639   4.603  14.461  0.00  0.00    +0.000 A 
ENDROOT
BRANCH   1  10
ATOM      7  C   UNL     1      42.988   4.905  13.139  0.00  0.00    +0.000 C 
ATOM      8  C   UNL     1      43.603   4.326  11.862  0.00  0.00    +0.000 C 
ATOM      9  C   UNL     1      45.080   3.896  12.072  0.00  0.00    +0.000 C 
ATOM     10  N   UNL     1      45.971   5.061  12.157  0.00  0.00    +0.000 N 
ATOM     11  C   UNL     1      45.833   6.032  11.060  0.00  0.00    +0.000 C 
ATOM     12  C   UNL     1      44.346   6.407  10.845  0.00  0.00    +0.000 C 
ATOM     13  N   UNL     1      43.429   5.253  10.714  0.00  0.00    +0.000 NA
ATOM     14  H   UNL     1      43.698   4.747   9.870  0.00  0.00    +0.000 HD
ENDBRANCH   1  10
BRANCH   5  15
ATOM     15  C   UNL     1      47.124   4.184  16.911  0.00  0.00    +0.000 C 
BRANCH  15  16
ATOM     16  N   UNL     1      47.791   2.900  16.950  0.00  0.00    +0.000 N 
ATOM     17  C   UNL     1      49.149   2.846  17.219  0.00  0.00    +0.000 A 
ATOM     18  C   UNL     1      49.817   3.701  18.107  0.00  0.00    +0.000 A 
ATOM     19  N   UNL     1      51.137   3.610  18.422  0.00  0.00    +0.000 NA
ATOM     20  C   UNL     1      51.786   2.579  17.817  0.00  0.00    +0.000 A 
ATOM     21  C   UNL     1      51.147   1.718  16.941  0.00  0.00    +0.000 A 
ATOM     22  N   UNL     1      49.827   1.841  16.622  0.00  0.00    +0.000 NA
ATOM     23  H   UNL     1      47.589   2.277  16.171  0.00  0.00    +0.000 HD
BRANCH  20  24
ATOM     24  C   UNL     1      53.230   2.390  18.134  0.00  0.00    +0.000 C 
ATOM     25  N   UNL     1      53.561   1.195  18.713  0.00  0.00    +0.000 N 
ATOM     26  O   UNL     1      54.069   3.250  17.895  0.00  0.00    +0.000 OA
ATOM     27  H   UNL     1      52.847   0.498  18.890  0.00  0.00    +0.000 HD
ATOM     28  H   UNL     1      54.526   1.005  18.941  0.00  0.00    +0.000 HD
ENDBRANCH  20  24
ENDBRANCH  15  16
ENDBRANCH   5  15
TORSDOF 4
ENDMDL
MODEL 7
REMARK VINA RESULT:    -6.465      4.612      8.550
REMARK INTER + INTRA:          -8.642
REMARK INTER:                  -7.920
REMARK INTRA:                  -0.722
REMARK UNBOUND:                -0.664
REMARK  Name = 
REMARK  5 active torsions:
REMARK  status: ('A' for Active; 'I' for Inactive)
REMARK    1  A    between atoms: C_1  and  C_2
REMARK    2  A    between atoms: N_4  and  C_5
REMARK    3  A    between atoms: C_9  and  C_10
REMARK    4  A    between atoms: C_10  and  N_11
REMARK    5  A    between atoms: C_15  and  C_16
REMARK                            x       y       z     vdW  Elec       q    Type
REMARK                         _______ _______ _______ _____ _____    ______ ____
ROOT
ATOM      1  C   UNL     1      46.234   6.254  12.369  0.00  0.00    +0.000 A 
ATOM      2  C   UNL     1      45.482   7.433  12.482  0.00  0.00    +0.000 A 
ATOM      3  C   UNL     1      45.995   8.584  13.094  0.00  0.00    +0.000 A 
ATOM      4  C   UNL     1      47.275   8.576  13.638  0.00  0.00    +0.000 A 
ATOM      5  C   UNL     1      48.052   7.418  13.572  0.00  0.00    +0.000 A 
ATOM      6  C   UNL     1      47.532   6.289  12.905  0.00  0.00    +0.000 A 
ENDROOT
BRANCH   1  10
ATOM      7  C   UNL     1      43.007   4.440  13.222  0.00  0.00    +0.000 C 
ATOM      8  C   UNL     1      43.902   3.517  12.388  0.00  0.00    +0.000 C 
ATOM      9  C   UNL     1      45.403   3.896  12.515  0.00  0.00    +0.000 C 
ATOM     10  N   UNL     1      45.711   5.124  11.769  0.00  0.00    +0.000 N 
ATOM     11  C   UNL     1      45.259   5.132  10.369  0.00  0.00    +0.000 C 
ATOM     12  C   UNL     1      43.772   4.708  10.271  0.00  0.00    +0.000 C 
ATOM     13  N   UNL     1      43.440   3.452  10.978  0.00  0.00    +0.000 NA
ATOM     14  H   UNL     1      43.959   2.701  10.522  0.00  0.00    +0.000 HD
ENDBRANCH   1  10
BRANCH   5  15
ATOM     15  C   UNL     1      49.402   7.346  14.248  0.00  0.00    +0.000 C 
BRANCH  15  16
ATOM     16  N   UNL     1      49.336   7.858  15.601  0.00  0.00    +0.000 N 
ATOM     17  C   UNL     1      49.130   6.979  16.652  0.00  0.00    +0.000 A 
ATOM     18  C   UNL     1      49.649   5.679  16.713  0.00  0.00    +0.000 A 
ATOM     19  N   UNL     1      49.503   4.837  17.771  0.00  0.00    +0.000 NA
ATOM     20  C   UNL     1      48.816   5.369  18.817  0.00  0.00    +0.000 A 
ATOM     21  C   UNL     1      48.299   6.653  18.783  0.00  0.00    +0.000 A 
ATOM     22  N   UNL     1      48.439   7.473  17.703  0.00  0.00    +0.000 NA
ATOM     23  H   UNL     1      48.737   8.670  15.733  0.00  0.00    +0.000 HD
BRANCH  20  24
ATOM     24  C   UNL     1      48.639   4.522  20.031  0.00  0.00    +0.000 C 
ATOM     25  N   UNL     1      48.421   3.191  19.802  0.00  0.00    +0.000 N 
ATOM     26  O   UNL     1      48.683   4.987  21.163  0.00  0.00    +0.000 OA
ATOM     27  H   UNL     1      48.399   2.832  18.853  0.00  0.00    +0.000 HD
ATOM     28  H   UNL     1      48.304   2.565  20.585  0.00  0.00    +0.000 HD
ENDBRANCH  20  24
ENDBRANCH  15  16
ENDBRANCH   5  15
TORSDOF 4
ENDMDL
MODEL 8
REMARK VINA RESULT:    -6.295      4.232      6.745
REMARK INTER + INTRA:          -8.432
REMARK INTER:                  -7.698
REMARK INTRA:                  -0.734
REMARK UNBOUND:                -0.664
REMARK  Name = 
REMARK  5 active torsions:
REMARK  status: ('A' for Active; 'I' for Inactive)
REMARK    1  A    between atoms: C_1  and  C_2
REMARK    2  A    between atoms: N_4  and  C_5
REMARK    3  A    between atoms: C_9  and  C_10
REMARK    4  A    between atoms: C_10  and  N_11
REMARK    5  A    between atoms: C_15  and  C_16
REMARK                            x       y       z     vdW  Elec       q    Type
REMARK                         _______ _______ _______ _____ _____    ______ ____
ROOT
ATOM      1  C   UNL     1      49.537   6.629  17.362  0.00  0.00    +0.000 A 
ATOM      2  C   UNL     1      49.929   7.900  17.808  0.00  0.00    +0.000 A 
ATOM      3  C   UNL     1      49.789   9.042  17.010  0.00  0.00    +0.000 A 
ATOM      4  C   UNL     1      49.273   8.937  15.722  0.00  0.00    +0.000 A 
ATOM      5  C   UNL     1      48.893   7.690  15.225  0.00  0.00    +0.000 A 
ATOM      6  C   UNL     1      48.996   6.563  16.067  0.00  0.00    +0.000 A 
ENDROOT
BRANCH   1  10
ATOM      7  C   UNL     1      47.594   5.710  20.495  0.00  0.00    +0.000 C 
ATOM      8  C   UNL     1      48.884   4.887  20.439  0.00  0.00    +0.000 C 
ATOM      9  C   UNL     1      49.984   5.588  19.596  0.00  0.00    +0.000 C 
ATOM     10  N   UNL     1      49.689   5.510  18.158  0.00  0.00    +0.000 N 
ATOM     11  C   UNL     1      49.390   4.160  17.656  0.00  0.00    +0.000 C 
ATOM     12  C   UNL     1      48.324   3.469  18.543  0.00  0.00    +0.000 C 
ATOM     13  N   UNL     1      48.614   3.496  19.993  0.00  0.00    +0.000 NA
ATOM     14  H   UNL     1      49.468   2.957  20.141  0.00  0.00    +0.000 HD
ENDBRANCH   1  10
BRANCH   5  15
ATOM     15  C   UNL     1      48.431   7.529  13.794  0.00  0.00    +0.000 C 
BRANCH  15  16
ATOM     16  N   UNL     1      46.996   7.688  13.689  0.00  0.00    +0.000 N 
ATOM     17  C   UNL     1      46.225   6.628  13.240  0.00  0.00    +0.000 A 
ATOM     18  C   UNL     1      46.484   5.281  13.526  0.00  0.00    +0.000 A 
ATOM     19  N   UNL     1      45.694   4.243  13.141  0.00  0.00    +0.000 NA
ATOM     20  C   UNL     1      44.578   4.614  12.459  0.00  0.00    +0.000 A 
ATOM     21  C   UNL     1      44.296   5.939  12.171  0.00  0.00    +0.000 A 
ATOM     22  N   UNL     1      45.114   6.962  12.547  0.00  0.00    +0.000 NA
ATOM     23  H   UNL     1      46.682   8.538  13.225  0.00  0.00    +0.000 HD
BRANCH  20  24
ATOM     24  C   UNL     1      43.640   3.538  12.029  0.00  0.00    +0.000 C 
ATOM     25  N   UNL     1      43.858   2.304  12.578  0.00  0.00    +0.000 N 
ATOM     26  O   UNL     1      42.733   3.743  11.231  0.00  0.00    +0.000 OA
ATOM     27  H   UNL     1      44.611   2.166  13.243  0.00  0.00    +0.000 HD
ATOM     28  H   UNL     1      43.249   1.537  12.333  0.00  0.00    +0.000 HD
ENDBRANCH  20  24
ENDBRANCH  15  16
ENDBRANCH   5  15
TORSDOF 4
ENDMDL
