MODEL 1
REMARK VINA RESULT:    -6.822      0.000      0.000
REMARK INTER + INTRA:          -9.987
REMARK INTER:                  -8.816
REMARK INTRA:                  -1.171
REMARK UNBOUND:                -1.171
REMARK  Name = 
REMARK  6 active torsions:
REMARK  status: ('A' for Active; 'I' for Inactive)
REMARK    1  A    between atoms: C_1  and  C_2
REMARK    2  A    between atoms: C_2  and  N_3
REMARK    3  A    between atoms: C_2  and  C_16
REMARK    4  A    between atoms: C_4  and  C_6
REMARK    5  A    between atoms: C_19  and  C_20
REMARK    6  A    between atoms: C_20  and  N_21
REMARK                            x       y       z     vdW  Elec       q    Type
REMARK                         _______ _______ _______ _____ _____    ______ ____
ROOT
ATOM      1  C   UNL     1      48.393   6.933  18.607  0.00  0.00    +0.000 C 
ATOM      2  C   UNL     1      49.295   6.458  17.462  0.00  0.00    +0.000 C 
ENDROOT
BRANCH   2   3
ATOM      3  C   UNL     1      48.431   5.917  16.329  0.00  0.00    +0.000 A 
ATOM      4  C   UNL     1      47.699   4.745  16.554  0.00  0.00    +0.000 A 
ATOM      5  C   UNL     1      46.953   4.150  15.533  0.00  0.00    +0.000 A 
ATOM      6  C   UNL     1      46.906   4.716  14.254  0.00  0.00    +0.000 A 
ATOM      7  C   UNL     1      47.628   5.898  14.024  0.00  0.00    +0.000 A 
ATOM      8  C   UNL     1      48.390   6.488  15.047  0.00  0.00    +0.000 A 
BRANCH   6   9
ATOM      9  C   UNL     1      46.197   3.987  13.132  0.00  0.00    +0.000 C 
BRANCH   9  10
ATOM     10  N   UNL     1      44.740   4.026  13.041  0.00  0.00    +0.000 NA
ATOM     11  C   UNL     1      44.107   3.089  12.114  0.00  0.00    +0.000 C 
ATOM     12  C   UNL     1      43.882   3.647  10.701  0.00  0.00    +0.000 C 
ATOM     13  O   UNL     1      43.185   4.899  10.723  0.00  0.00    +0.000 OA
ATOM     14  C   UNL     1      43.859   5.864  11.539  0.00  0.00    +0.000 C 
ATOM     15  C   UNL     1      44.105   5.344  12.964  0.00  0.00    +0.000 C 
ENDBRANCH   9  10
ENDBRANCH   6   9
ENDBRANCH   2   3
BRANCH   2  16
ATOM     16  N   UNL     1      50.294   5.497  17.888  0.00  0.00    +0.000 N 
ATOM     17  C   UNL     1      51.528   5.426  17.281  0.00  0.00    +0.000 C 
ATOM     18  O   UNL     1      51.884   6.205  16.407  0.00  0.00    +0.000 OA
ATOM     19  H   UNL     1      49.933   4.633  18.282  0.00  0.00    +0.000 HD
BRANCH  17  20
ATOM     20  C   UNL     1      52.435   4.391  17.780  0.00  0.00    +0.000 A 
ATOM     21  C   UNL     1      53.674   4.759  18.297  0.00  0.00    +0.000 A 
ATOM     22  S   UNL     1      54.603   3.440  18.840  0.00  0.00    +0.000 S 
ATOM     23  C   UNL     1      53.404   2.330  18.372  0.00  0.00    +0.000 A 
ATOM     24  N   UNL     1      53.588   0.989  18.530  0.00  0.00    +0.000 NA
ATOM     25  C   UNL     1      52.609   0.265  18.104  0.00  0.00    +0.000 A 
ATOM     26  N   UNL     1      51.456   0.757  17.543  0.00  0.00    +0.000 N 
ATOM     27  C   UNL     1      51.212   2.096  17.394  0.00  0.00    +0.000 A 
ATOM     28  O   UNL     1      50.150   2.511  16.945  0.00  0.00    +0.000 OA
ATOM     29  C   UNL     1      52.295   2.958  17.836  0.00  0.00    +0.000 A 
ATOM     30  H   UNL     1      50.724   0.130  17.234  0.00  0.00    +0.000 HD
ENDBRANCH  17  20
ENDBRANCH   2  16
TORSDOF 5
ENDMDL
MODEL 2
REMARK VINA RESULT:    -6.638      4.345      8.675
REMARK INTER + INTRA:          -9.750
REMARK INTER:                  -8.705
REMARK INTRA:                  -1.045
REMARK UNBOUND:                -1.171
REMARK  Name = 
REMARK  6 active torsions:
REMARK  status: ('A' for Active; 'I' for Inactive)
REMARK    1  A    between atoms: C_1  and  C_2
REMARK    2  A    between atoms: C_2  and  N_3
REMARK    3  A    between atoms: C_2  and  C_16
REMARK    4  A    between atoms: C_4  and  C_6
REMARK    5  A    between atoms: C_19  and  C_20
REMARK    6  A    between atoms: C_20  and  N_21
REMARK                            x       y       z     vdW  Elec       q    Type
REMARK                         _______ _______ _______ _____ _____    ______ ____
ROOT
ATOM      1  C   UNL     1      47.740   3.178  16.899  0.00  0.00    +0.000 C 
ATOM      2  C   UNL     1      48.008   4.538  16.243  0.00  0.00    +0.000 C 
ENDROOT
BRANCH   2   3
ATOM      3  C   UNL     1      48.087   5.612  17.321  0.00  0.00    +0.000 A 
ATOM      4  C   UNL     1      47.295   5.463  18.466  0.00  0.00    +0.000 A 
ATOM      5  C   UNL     1      47.258   6.451  19.453  0.00  0.00    +0.000 A 
ATOM      6  C   UNL     1      48.022   7.618  19.333  0.00  0.00    +0.000 A 
ATOM      7  C   UNL     1      48.827   7.769  18.193  0.00  0.00    +0.000 A 
ATOM      8  C   UNL     1      48.854   6.782  17.193  0.00  0.00    +0.000 A 
BRANCH   6   9
ATOM      9  C   UNL     1      47.867   8.729  20.349  0.00  0.00    +0.000 C 
BRANCH   9  10
ATOM     10  N   UNL     1      46.822   9.735  20.177  0.00  0.00    +0.000 NA
ATOM     11  C   UNL     1      47.115  10.850  19.277  0.00  0.00    +0.000 C 
ATOM     12  C   UNL     1      47.728  12.079  19.965  0.00  0.00    +0.000 C 
ATOM     13  O   UNL     1      46.945  12.513  21.084  0.00  0.00    +0.000 OA
ATOM     14  C   UNL     1      46.747  11.457  22.031  0.00  0.00    +0.000 C 
ATOM     15  C   UNL     1      46.135  10.206  21.382  0.00  0.00    +0.000 C 
ENDBRANCH   9  10
ENDBRANCH   6   9
ENDBRANCH   2   3
BRANCH   2  16
ATOM     16  N   UNL     1      47.041   4.872  15.215  0.00  0.00    +0.000 N 
ATOM     17  C   UNL     1      47.408   5.551  14.075  0.00  0.00    +0.000 C 
ATOM     18  O   UNL     1      48.569   5.846  13.823  0.00  0.00    +0.000 OA
ATOM     19  H   UNL     1      46.087   5.012  15.537  0.00  0.00    +0.000 HD
BRANCH  17  20
ATOM     20  C   UNL     1      46.334   5.857  13.130  0.00  0.00    +0.000 A 
ATOM     21  C   UNL     1      46.061   7.184  12.810  0.00  0.00    +0.000 A 
ATOM     22  S   UNL     1      44.788   7.368  11.694  0.00  0.00    +0.000 S 
ATOM     23  C   UNL     1      44.531   5.689  11.627  0.00  0.00    +0.000 A 
ATOM     24  N   UNL     1      43.535   5.161  10.862  0.00  0.00    +0.000 NA
ATOM     25  C   UNL     1      43.437   3.878  10.929  0.00  0.00    +0.000 A 
ATOM     26  N   UNL     1      44.249   3.066  11.684  0.00  0.00    +0.000 N 
ATOM     27  C   UNL     1      45.283   3.547  12.441  0.00  0.00    +0.000 A 
ATOM     28  O   UNL     1      46.032   2.799  13.059  0.00  0.00    +0.000 OA
ATOM     29  C   UNL     1      45.424   4.993  12.421  0.00  0.00    +0.000 A 
ATOM     30  H   UNL     1      44.119   2.064  11.686  0.00  0.00    +0.000 HD
ENDBRANCH  17  20
ENDBRANCH   2  16
TORSDOF 5
ENDMDL
MODEL 3
REMARK VINA RESULT:    -6.579      3.416      4.454
REMARK INTER + INTRA:          -9.673
REMARK INTER:                  -9.049
REMARK INTRA:                  -0.624
REMARK UNBOUND:                -1.171
REMARK  Name = 
REMARK  6 active torsions:
REMARK  status: ('A' for Active; 'I' for Inactive)
REMARK    1  A    between atoms: C_1  and  C_2
REMARK    2  A    between atoms: C_2  and  N_3
REMARK    3  A    between atoms: C_2  and  C_16
REMARK    4  A    between atoms: C_4  and  C_6
REMARK    5  A    between atoms: C_19  and  C_20
REMARK    6  A    between atoms: C_20  and  N_21
REMARK                            x       y       z     vdW  Elec       q    Type
REMARK                         _______ _______ _______ _____ _____    ______ ____
ROOT
ATOM      1  C   UNL     1      48.350   7.423  13.167  0.00  0.00    +0.000 C 
ATOM      2  C   UNL     1      48.072   6.187  14.032  0.00  0.00    +0.000 C 
ENDROOT
BRANCH   2   3
ATOM      3  C   UNL     1      46.862   5.444  13.478  0.00  0.00    +0.000 A 
ATOM      4  C   UNL     1      46.965   4.062  13.279  0.00  0.00    +0.000 A 
ATOM      5  C   UNL     1      45.924   3.335  12.698  0.00  0.00    +0.000 A 
ATOM      6  C   UNL     1      44.737   3.966  12.306  0.00  0.00    +0.000 A 
ATOM      7  C   UNL     1      44.622   5.350  12.513  0.00  0.00    +0.000 A 
ATOM      8  C   UNL     1      45.675   6.084  13.084  0.00  0.00    +0.000 A 
BRANCH   6   9
ATOM      9  C   UNL     1      43.676   3.183  11.562  0.00  0.00    +0.000 C 
BRANCH   9  10
ATOM     10  N   UNL     1      43.638   3.210  10.102  0.00  0.00    +0.000 NA
ATOM     11  C   UNL     1      44.248   2.082   9.401  0.00  0.00    +0.000 C 
ATOM     12  C   UNL     1      45.727   2.282   9.039  0.00  0.00    +0.000 C 
ATOM     13  O   UNL     1      45.944   3.508   8.328  0.00  0.00    +0.000 OA
ATOM     14  C   UNL     1      45.451   4.636   9.059  0.00  0.00    +0.000 C 
ATOM     15  C   UNL     1      43.971   4.475   9.442  0.00  0.00    +0.000 C 
ENDBRANCH   9  10
ENDBRANCH   6   9
ENDBRANCH   2   3
BRANCH   2  16
ATOM     16  N   UNL     1      47.916   6.504  15.439  0.00  0.00    +0.000 N 
ATOM     17  C   UNL     1      48.955   6.354  16.330  0.00  0.00    +0.000 C 
ATOM     18  O   UNL     1      50.081   6.021  15.986  0.00  0.00    +0.000 OA
ATOM     19  H   UNL     1      46.979   6.389  15.814  0.00  0.00    +0.000 HD
BRANCH  17  20
ATOM     20  C   UNL     1      48.661   6.676  17.726  0.00  0.00    +0.000 A 
ATOM     21  C   UNL     1      48.420   7.998  18.089  0.00  0.00    +0.000 A 
ATOM     22  S   UNL     1      48.087   8.200  19.746  0.00  0.00    +0.000 S 
ATOM     23  C   UNL     1      48.289   6.540  20.047  0.00  0.00    +0.000 A 
ATOM     24  N   UNL     1      48.174   6.035  21.307  0.00  0.00    +0.000 NA
ATOM     25  C   UNL     1      48.381   4.765  21.391  0.00  0.00    +0.000 A 
ATOM     26  N   UNL     1      48.684   3.947  20.330  0.00  0.00    +0.000 N 
ATOM     27  C   UNL     1      48.777   4.402  19.042  0.00  0.00    +0.000 A 
ATOM     28  O   UNL     1      48.989   3.642  18.104  0.00  0.00    +0.000 OA
ATOM     29  C   UNL     1      48.576   5.834  18.893  0.00  0.00    +0.000 A 
ATOM     30  H   UNL     1      48.829   2.955  20.467  0.00  0.00    +0.000 HD
ENDBRANCH  17  20
ENDBRANCH   2  16
TORSDOF 5
ENDMDL
MODEL 4
REMARK VINA RESULT:    -6.459      4.318      8.604
REMARK INTER + INTRA:          -9.518
REMARK INTER:                  -8.590
REMARK INTRA:                  -0.928
REMARK UNBOUND:                -1.171
REMARK  Name = 
REMARK  6 active torsions:
REMARK  status: ('A' for Active; 'I' for Inactive)
REMARK    1  A    between atoms: C_1  and  C_2
REMARK    2  A    between atoms: C_2  and  N_3
REMARK    3  A    between atoms: C_2  and  C_16
REMARK    4  A    between atoms: C_4  and  C_6
REMARK    5  A    between atoms: C_19  and  C_20
REMARK    6  A    between atoms: C_20  and  N_21
REMARK                            x       y       z     vdW  Elec       q    Type
REMARK                         _______ _______ _______ _____ _____    ______ ____
ROOT
ATOM      1  C   UNL     1      49.868   7.936  11.699  0.00  0.00    +0.000 C 
ATOM      2  C   UNL     1      48.577   7.573  12.443  0.00  0.00    +0.000 C 
ENDROOT
BRANCH   2   3
ATOM      3  C   UNL     1      48.918   7.147  13.866  0.00  0.00    +0.000 A 
ATOM      4  C   UNL     1      48.107   6.188  14.486  0.00  0.00    +0.000 A 
ATOM      5  C   UNL     1      48.315   5.815  15.816  0.00  0.00    +0.000 A 
ATOM      6  C   UNL     1      49.349   6.382  16.569  0.00  0.00    +0.000 A 
ATOM      7  C   UNL     1      50.173   7.337  15.952  0.00  0.00    +0.000 A 
ATOM      8  C   UNL     1      49.956   7.722  14.618  0.00  0.00    +0.000 A 
BRANCH   6   9
ATOM      9  C   UNL     1      49.474   6.060  18.043  0.00  0.00    +0.000 C 
BRANCH   9  10
ATOM     10  N   UNL     1      48.398   5.347  18.728  0.00  0.00    +0.000 NA
ATOM     11  C   UNL     1      47.319   6.157  19.292  0.00  0.00    +0.000 C 
ATOM     12  C   UNL     1      47.533   6.571  20.756  0.00  0.00    +0.000 C 
ATOM     13  O   UNL     1      47.824   5.446  21.594  0.00  0.00    +0.000 OA
ATOM     14  C   UNL     1      48.954   4.709  21.114  0.00  0.00    +0.000 C 
ATOM     15  C   UNL     1      48.780   4.275  19.650  0.00  0.00    +0.000 C 
ENDBRANCH   9  10
ENDBRANCH   6   9
ENDBRANCH   2   3
BRANCH   2  16
ATOM     16  N   UNL     1      47.787   6.571  11.753  0.00  0.00    +0.000 N 
ATOM     17  C   UNL     1      46.442   6.752  11.519  0.00  0.00    +0.000 C 
ATOM     18  O   UNL     1      45.851   7.785  11.807  0.00  0.00    +0.000 OA
ATOM     19  H   UNL     1      48.102   5.611  11.861  0.00  0.00    +0.000 HD
BRANCH  17  20
ATOM     20  C   UNL     1      45.750   5.654  10.843  0.00  0.00    +0.000 A 
ATOM     21  C   UNL     1      45.812   5.556   9.456  0.00  0.00    +0.000 A 
ATOM     22  S   UNL     1      44.962   4.221   8.829  0.00  0.00    +0.000 S 
ATOM     23  C   UNL     1      44.449   3.748  10.379  0.00  0.00    +0.000 A 
ATOM     24  N   UNL     1      43.637   2.668  10.551  0.00  0.00    +0.000 NA
ATOM     25  C   UNL     1      43.305   2.443  11.776  0.00  0.00    +0.000 A 
ATOM     26  N   UNL     1      43.716   3.193  12.852  0.00  0.00    +0.000 N 
ATOM     27  C   UNL     1      44.558   4.266  12.732  0.00  0.00    +0.000 A 
ATOM     28  O   UNL     1      44.959   4.882  13.712  0.00  0.00    +0.000 OA
ATOM     29  C   UNL     1      44.946   4.579  11.367  0.00  0.00    +0.000 A 
ATOM     30  H   UNL     1      43.420   2.957  13.790  0.00  0.00    +0.000 HD
ENDBRANCH  17  20
ENDBRANCH   2  16
TORSDOF 5
ENDMDL
MODEL 5
REMARK VINA RESULT:    -6.427      4.337      8.960
REMARK INTER + INTRA:          -9.477
REMARK INTER:                  -8.388
REMARK INTRA:                  -1.089
REMARK UNBOUND:                -1.171
REMARK  Name = 
REMARK  6 active torsions:
REMARK  status: ('A' for Active; 'I' for Inactive)
REMARK    1  A    between atoms: C_1  and  C_2
REMARK    2  A    between atoms: C_2  and  N_3
REMARK    3  A    between atoms: C_2  and  C_16
REMARK    4  A    between atoms: C_4  and  C_6
REMARK    5  A    between atoms: C_19  and  C_20
REMARK    6  A    between atoms: C_20  and  N_21
REMARK                            x       y       z     vdW  Elec       q    Type
REMARK                         _______ _______ _______ _____ _____    ______ ____
ROOT
ATOM      1  C   UNL     1      48.829   8.030  11.492  0.00  0.00    +0.000 C 
ATOM      2  C   UNL     1      47.628   7.758  12.407  0.00  0.00    +0.000 C 
ENDROOT
BRANCH   2   3
ATOM      3  C   UNL     1      48.092   7.744  13.858  0.00  0.00    +0.000 A 
ATOM      4  C   UNL     1      48.481   6.521  14.420  0.00  0.00    +0.000 A 
ATOM      5  C   UNL     1      48.837   6.425  15.767  0.00  0.00    +0.000 A 
ATOM      6  C   UNL     1      48.828   7.552  16.597  0.00  0.00    +0.000 A 
ATOM      7  C   UNL     1      48.450   8.784  16.038  0.00  0.00    +0.000 A 
ATOM      8  C   UNL     1      48.078   8.879  14.686  0.00  0.00    +0.000 A 
BRANCH   6   9
ATOM      9  C   UNL     1      49.092   7.401  18.080  0.00  0.00    +0.000 C 
BRANCH   9  10
ATOM     10  N   UNL     1      48.816   6.129  18.744  0.00  0.00    +0.000 NA
ATOM     11  C   UNL     1      47.476   5.948  19.299  0.00  0.00    +0.000 C 
ATOM     12  C   UNL     1      47.333   6.371  20.769  0.00  0.00    +0.000 C 
ATOM     13  O   UNL     1      48.323   5.756  21.603  0.00  0.00    +0.000 OA
ATOM     14  C   UNL     1      49.649   6.023  21.132  0.00  0.00    +0.000 C 
ATOM     15  C   UNL     1      49.834   5.614  19.663  0.00  0.00    +0.000 C 
ENDBRANCH   9  10
ENDBRANCH   6   9
ENDBRANCH   2   3
BRANCH   2  16
ATOM     16  N   UNL     1      46.911   6.548  12.056  0.00  0.00    +0.000 N 
ATOM     17  C   UNL     1      45.536   6.485  12.110  0.00  0.00    +0.000 C 
ATOM     18  O   UNL     1      44.838   7.453  12.382  0.00  0.00    +0.000 OA
ATOM     19  H   UNL     1      47.410   5.678  12.218  0.00  0.00    +0.000 HD
BRANCH  17  20
ATOM     20  C   UNL     1      44.934   5.197  11.763  0.00  0.00    +0.000 A 
ATOM     21  C   UNL     1      44.210   4.499  12.725  0.00  0.00    +0.000 A 
ATOM     22  S   UNL     1      43.571   3.026  12.160  0.00  0.00    +0.000 S 
ATOM     23  C   UNL     1      44.267   3.248  10.625  0.00  0.00    +0.000 A 
ATOM     24  N   UNL     1      44.130   2.308   9.649  0.00  0.00    +0.000 NA
ATOM     25  C   UNL     1      44.733   2.595   8.547  0.00  0.00    +0.000 A 
ATOM     26  N   UNL     1      45.457   3.742   8.323  0.00  0.00    +0.000 N 
ATOM     27  C   UNL     1      45.595   4.729   9.261  0.00  0.00    +0.000 A 
ATOM     28  O   UNL     1      46.195   5.770   9.018  0.00  0.00    +0.000 OA
ATOM     29  C   UNL     1      44.953   4.446  10.534  0.00  0.00    +0.000 A 
ATOM     30  H   UNL     1      45.902   3.906   7.430  0.00  0.00    +0.000 HD
ENDBRANCH  17  20
ENDBRANCH   2  16
TORSDOF 5
ENDMDL
MODEL 6
REMARK VINA RESULT:    -6.411      3.431      9.209
REMARK INTER + INTRA:          -9.456
REMARK INTER:                  -8.670
REMARK INTRA:                  -0.787
REMARK UNBOUND:                -1.171
REMARK  Name = 
REMARK  6 active torsions:
REMARK  status: ('A' for Active; 'I' for Inactive)
REMARK    1  A    between atoms: C_1  and  C_2
REMARK    2  A    between atoms: C_2  and  N_3
REMARK    3  A    between atoms: C_2  and  C_16
REMARK    4  A    between atoms: C_4  and  C_6
REMARK    5  A    between atoms: C_19  and  C_20
REMARK    6  A    between atoms: C_20  and  N_21
REMARK                            x       y       z     vdW  Elec       q    Type
REMARK                         _______ _______ _______ _____ _____    ______ ____
ROOT
ATOM      1  C   UNL     1      46.891   3.068  17.626  0.00  0.00    +0.000 C 
ATOM      2  C   UNL     1      47.775   3.521  16.457  0.00  0.00    +0.000 C 
ENDROOT
BRANCH   2   3
ATOM      3  C   UNL     1      49.094   4.060  17.000  0.00  0.00    +0.000 A 
ATOM      4  C   UNL     1      49.290   5.446  17.013  0.00  0.00    +0.000 A 
ATOM      5  C   UNL     1      50.506   6.001  17.420  0.00  0.00    +0.000 A 
ATOM      6  C   UNL     1      51.564   5.186  17.840  0.00  0.00    +0.000 A 
ATOM      7  C   UNL     1      51.370   3.795  17.841  0.00  0.00    +0.000 A 
ATOM      8  C   UNL     1      50.152   3.236  17.418  0.00  0.00    +0.000 A 
BRANCH   6   9
ATOM      9  C   UNL     1      52.912   5.800  18.153  0.00  0.00    +0.000 C 
BRANCH   9  10
ATOM     10  N   UNL     1      53.345   5.941  19.541  0.00  0.00    +0.000 NA
ATOM     11  C   UNL     1      54.257   4.921  20.058  0.00  0.00    +0.000 C 
ATOM     12  C   UNL     1      53.562   3.733  20.740  0.00  0.00    +0.000 C 
ATOM     13  O   UNL     1      52.640   4.159  21.751  0.00  0.00    +0.000 OA
ATOM     14  C   UNL     1      51.669   5.073  21.227  0.00  0.00    +0.000 C 
ATOM     15  C   UNL     1      52.324   6.278  20.535  0.00  0.00    +0.000 C 
ENDBRANCH   9  10
ENDBRANCH   6   9
ENDBRANCH   2   3
BRANCH   2  16
ATOM     16  N   UNL     1      47.118   4.477  15.586  0.00  0.00    +0.000 N 
ATOM     17  C   UNL     1      46.877   4.193  14.260  0.00  0.00    +0.000 C 
ATOM     18  O   UNL     1      47.130   3.107  13.756  0.00  0.00    +0.000 OA
ATOM     19  H   UNL     1      47.257   5.455  15.821  0.00  0.00    +0.000 HD
BRANCH  17  20
ATOM     20  C   UNL     1      46.237   5.252  13.479  0.00  0.00    +0.000 A 
ATOM     21  C   UNL     1      46.893   6.468  13.306  0.00  0.00    +0.000 A 
ATOM     22  S   UNL     1      46.018   7.587  12.369  0.00  0.00    +0.000 S 
ATOM     23  C   UNL     1      44.718   6.507  12.191  0.00  0.00    +0.000 A 
ATOM     24  N   UNL     1      43.595   6.865  11.508  0.00  0.00    +0.000 NA
ATOM     25  C   UNL     1      42.679   5.958  11.478  0.00  0.00    +0.000 A 
ATOM     26  N   UNL     1      42.783   4.718  12.060  0.00  0.00    +0.000 N 
ATOM     27  C   UNL     1      43.904   4.301  12.727  0.00  0.00    +0.000 A 
ATOM     28  O   UNL     1      43.996   3.168  13.186  0.00  0.00    +0.000 OA
ATOM     29  C   UNL     1      44.960   5.295  12.812  0.00  0.00    +0.000 A 
ATOM     30  H   UNL     1      42.026   4.050  11.993  0.00  0.00    +0.000 HD
ENDBRANCH  17  20
ENDBRANCH   2  16
TORSDOF 5
ENDMDL
MODEL 7
REMARK VINA RESULT:    -6.277      3.382      9.208
REMARK INTER + INTRA:          -9.284
REMARK INTER:                  -8.274
REMARK INTRA:                  -1.010
REMARK UNBOUND:                -1.171
REMARK  Name = 
REMARK  6 active torsions:
REMARK  status: ('A' for Active; 'I' for Inactive)
REMARK    1  A    between atoms: C_1  and  C_2
REMARK    2  A    between atoms: C_2  and  N_3
REMARK    3  A    between atoms: C_2  and  C_16
REMARK    4  A    between atoms: C_4  and  C_6
REMARK    5  A    between atoms: C_19  and  C_20
REMARK    6  A    between atoms: C_20  and  N_21
REMARK                            x       y       z     vdW  Elec       q    Type
REMARK                         _______ _______ _______ _____ _____    ______ ____
ROOT
ATOM      1  C   UNL     1      48.692   7.984  11.663  0.00  0.00    +0.000 C 
ATOM      2  C   UNL     1      47.773   7.442  12.764  0.00  0.00    +0.000 C 
ENDROOT
BRANCH   2   3
ATOM      3  C   UNL     1      48.595   7.166  14.017  0.00  0.00    +0.000 A 
ATOM      4  C   UNL     1      49.906   7.654  14.073  0.00  0.00    +0.000 A 
ATOM      5  C   UNL     1      50.740   7.365  15.156  0.00  0.00    +0.000 A 
ATOM      6  C   UNL     1      50.286   6.587  16.227  0.00  0.00    +0.000 A 
ATOM      7  C   UNL     1      48.968   6.103  16.183  0.00  0.00    +0.000 A 
ATOM      8  C   UNL     1      48.134   6.382  15.088  0.00  0.00    +0.000 A 
BRANCH   6   9
ATOM      9  C   UNL     1      51.246   6.180  17.325  0.00  0.00    +0.000 C 
BRANCH   9  10
ATOM     10  N   UNL     1      50.942   5.027  18.169  0.00  0.00    +0.000 NA
ATOM     11  C   UNL     1      51.143   5.187  19.609  0.00  0.00    +0.000 C 
ATOM     12  C   UNL     1      52.536   4.771  20.107  0.00  0.00    +0.000 C 
ATOM     13  O   UNL     1      52.884   3.447  19.682  0.00  0.00    +0.000 OA
ATOM     14  C   UNL     1      52.800   3.310  18.259  0.00  0.00    +0.000 C 
ATOM     15  C   UNL     1      51.421   3.718  17.719  0.00  0.00    +0.000 C 
ENDBRANCH   9  10
ENDBRANCH   6   9
ENDBRANCH   2   3
BRANCH   2  16
ATOM     16  N   UNL     1      47.013   6.279  12.348  0.00  0.00    +0.000 N 
ATOM     17  C   UNL     1      45.636   6.285  12.339  0.00  0.00    +0.000 C 
ATOM     18  O   UNL     1      44.975   7.280  12.606  0.00  0.00    +0.000 OA
ATOM     19  H   UNL     1      47.460   5.381  12.507  0.00  0.00    +0.000 HD
BRANCH  17  20
ATOM     20  C   UNL     1      44.987   5.039  11.929  0.00  0.00    +0.000 A 
ATOM     21  C   UNL     1      44.296   4.285  12.873  0.00  0.00    +0.000 A 
ATOM     22  S   UNL     1      43.595   2.871  12.234  0.00  0.00    +0.000 S 
ATOM     23  C   UNL     1      44.219   3.194  10.686  0.00  0.00    +0.000 A 
ATOM     24  N   UNL     1      44.011   2.333   9.651  0.00  0.00    +0.000 NA
ATOM     25  C   UNL     1      44.566   2.690   8.544  0.00  0.00    +0.000 A 
ATOM     26  N   UNL     1      45.304   3.836   8.369  0.00  0.00    +0.000 N 
ATOM     27  C   UNL     1      45.511   4.747   9.369  0.00  0.00    +0.000 A 
ATOM     28  O   UNL     1      46.123   5.791   9.173  0.00  0.00    +0.000 OA
ATOM     29  C   UNL     1      44.927   4.382  10.649  0.00  0.00    +0.000 A 
ATOM     30  H   UNL     1      45.708   4.057   7.468  0.00  0.00    +0.000 HD
ENDBRANCH  17  20
ENDBRANCH   2  16
TORSDOF 5
ENDMDL
MODEL 8
REMARK VINA RESULT:    -6.269      2.913      3.926
REMARK INTER + INTRA:          -9.273
REMARK INTER:                  -8.129
REMARK INTRA:                  -1.143
REMARK UNBOUND:                -1.171
REMARK  Name = 
REMARK  6 active torsions:
REMARK  status: ('A' for Active; 'I' for Inactive)
REMARK    1  A    between atoms: C_1  and  C_2
REMARK    2  A    between atoms: C_2  and  N_3
REMARK    3  A    between atoms: C_2  and  C_16
REMARK    4  A    between atoms: C_4  and  C_6
REMARK    5  A    between atoms: C_19  and  C_20
REMARK    6  A    between atoms: C_20  and  N_21
REMARK                            x       y       z     vdW  Elec       q    Type
REMARK                         _______ _______ _______ _____ _____    ______ ____
ROOT
ATOM      1  C   UNL     1      48.597   9.909  14.192  0.00  0.00    +0.000 C 
ATOM      2  C   UNL     1      48.692   8.401  13.934  0.00  0.00    +0.000 C 
ENDROOT
BRANCH   2   3
ATOM      3  C   UNL     1      47.528   7.965  13.051  0.00  0.00    +0.000 A 
ATOM      4  C   UNL     1      46.292   8.600  13.220  0.00  0.00    +0.000 A 
ATOM      5  C   UNL     1      45.165   8.193  12.502  0.00  0.00    +0.000 A 
ATOM      6  C   UNL     1      45.240   7.142  11.581  0.00  0.00    +0.000 A 
ATOM      7  C   UNL     1      46.479   6.507  11.398  0.00  0.00    +0.000 A 
ATOM      8  C   UNL     1      47.609   6.908  12.130  0.00  0.00    +0.000 A 
BRANCH   6   9
ATOM      9  C   UNL     1      43.981   6.634  10.911  0.00  0.00    +0.000 C 
BRANCH   9  10
ATOM     10  N   UNL     1      43.342   5.410  11.390  0.00  0.00    +0.000 NA
ATOM     11  C   UNL     1      43.351   5.178  12.833  0.00  0.00    +0.000 C 
ATOM     12  C   UNL     1      44.549   4.359  13.339  0.00  0.00    +0.000 C 
ATOM     13  O   UNL     1      44.700   3.130  12.618  0.00  0.00    +0.000 OA
ATOM     14  C   UNL     1      44.807   3.354  11.208  0.00  0.00    +0.000 C 
ATOM     15  C   UNL     1      43.626   4.172  10.662  0.00  0.00    +0.000 C 
ENDBRANCH   9  10
ENDBRANCH   6   9
ENDBRANCH   2   3
BRANCH   2  16
ATOM     16  N   UNL     1      48.767   7.620  15.154  0.00  0.00    +0.000 N 
ATOM     17  C   UNL     1      49.962   7.102  15.603  0.00  0.00    +0.000 C 
ATOM     18  O   UNL     1      51.032   7.326  15.052  0.00  0.00    +0.000 OA
ATOM     19  H   UNL     1      47.929   7.100  15.396  0.00  0.00    +0.000 HD
BRANCH  17  20
ATOM     20  C   UNL     1      49.900   6.305  16.829  0.00  0.00    +0.000 A 
ATOM     21  C   UNL     1      50.742   6.619  17.892  0.00  0.00    +0.000 A 
ATOM     22  S   UNL     1      50.540   5.601  19.243  0.00  0.00    +0.000 S 
ATOM     23  C   UNL     1      49.352   4.684  18.445  0.00  0.00    +0.000 A 
ATOM     24  N   UNL     1      48.775   3.607  19.046  0.00  0.00    +0.000 NA
ATOM     25  C   UNL     1      47.912   2.989  18.314  0.00  0.00    +0.000 A 
ATOM     26  N   UNL     1      47.564   3.352  17.036  0.00  0.00    +0.000 N 
ATOM     27  C   UNL     1      48.091   4.445  16.403  0.00  0.00    +0.000 A 
ATOM     28  O   UNL     1      47.720   4.783  15.285  0.00  0.00    +0.000 OA
ATOM     29  C   UNL     1      49.089   5.166  17.175  0.00  0.00    +0.000 A 
ATOM     30  H   UNL     1      46.874   2.823  16.519  0.00  0.00    +0.000 HD
ENDBRANCH  17  20
ENDBRANCH   2  16
TORSDOF 5
ENDMDL
MODEL 9
REMARK VINA RESULT:    -6.186      3.563      4.891
REMARK INTER + INTRA:          -9.165
REMARK INTER:                  -8.161
REMARK INTRA:                  -1.005
REMARK UNBOUND:                -1.171
REMARK  Name = 
REMARK  6 active torsions:
REMARK  status: ('A' for Active; 'I' for Inactive)
REMARK    1  A    between atoms: C_1  and  C_2
REMARK    2  A    between atoms: C_2  and  N_3
REMARK    3  A    between atoms: C_2  and  C_16
REMARK    4  A    between atoms: C_4  and  C_6
REMARK    5  A    between atoms: C_19  and  C_20
REMARK    6  A    between atoms: C_20  and  N_21
REMARK                            x       y       z     vdW  Elec       q    Type
REMARK                         _______ _______ _______ _____ _____    ______ ____
ROOT
ATOM      1  C   UNL     1      48.469   9.554  14.558  0.00  0.00    +0.000 C 
ATOM      2  C   UNL     1      48.431   8.021  14.539  0.00  0.00    +0.000 C 
ENDROOT
BRANCH   2   3
ATOM      3  C   UNL     1      47.343   7.555  13.579  0.00  0.00    +0.000 A 
ATOM      4  C   UNL     1      47.442   6.267  13.037  0.00  0.00    +0.000 A 
ATOM      5  C   UNL     1      46.525   5.809  12.088  0.00  0.00    +0.000 A 
ATOM      6  C   UNL     1      45.470   6.621  11.657  0.00  0.00    +0.000 A 
ATOM      7  C   UNL     1      45.357   7.909  12.204  0.00  0.00    +0.000 A 
ATOM      8  C   UNL     1      46.288   8.376  13.148  0.00  0.00    +0.000 A 
BRANCH   6   9
ATOM      9  C   UNL     1      44.566   6.153  10.536  0.00  0.00    +0.000 C 
BRANCH   9  10
ATOM     10  N   UNL     1      43.507   5.183  10.808  0.00  0.00    +0.000 NA
ATOM     11  C   UNL     1      42.709   5.395  12.014  0.00  0.00    +0.000 C 
ATOM     12  C   UNL     1      43.238   4.673  13.263  0.00  0.00    +0.000 C 
ATOM     13  O   UNL     1      43.452   3.277  13.025  0.00  0.00    +0.000 OA
ATOM     14  C   UNL     1      44.327   3.059  11.912  0.00  0.00    +0.000 C 
ATOM     15  C   UNL     1      43.833   3.765  10.641  0.00  0.00    +0.000 C 
ENDBRANCH   9  10
ENDBRANCH   6   9
ENDBRANCH   2   3
BRANCH   2  16
ATOM     16  N   UNL     1      48.272   7.442  15.859  0.00  0.00    +0.000 N 
ATOM     17  C   UNL     1      49.222   6.601  16.395  0.00  0.00    +0.000 C 
ATOM     18  O   UNL     1      50.280   6.351  15.832  0.00  0.00    +0.000 OA
ATOM     19  H   UNL     1      47.314   7.292  16.162  0.00  0.00    +0.000 HD
BRANCH  17  20
ATOM     20  C   UNL     1      48.929   6.056  17.721  0.00  0.00    +0.000 A 
ATOM     21  C   UNL     1      49.125   4.699  17.962  0.00  0.00    +0.000 A 
ATOM     22  S   UNL     1      48.745   4.229  19.553  0.00  0.00    +0.000 S 
ATOM     23  C   UNL     1      48.270   5.807  19.967  0.00  0.00    +0.000 A 
ATOM     24  N   UNL     1      47.791   6.094  21.209  0.00  0.00    +0.000 NA
ATOM     25  C   UNL     1      47.442   7.325  21.373  0.00  0.00    +0.000 A 
ATOM     26  N   UNL     1      47.536   8.302  20.412  0.00  0.00    +0.000 N 
ATOM     27  C   UNL     1      48.042   8.069  19.161  0.00  0.00    +0.000 A 
ATOM     28  O   UNL     1      48.171   8.970  18.341  0.00  0.00    +0.000 OA
ATOM     29  C   UNL     1      48.429   6.690  18.914  0.00  0.00    +0.000 A 
ATOM     30  H   UNL     1      47.248   9.251  20.610  0.00  0.00    +0.000 HD
ENDBRANCH  17  20
ENDBRANCH   2  16
TORSDOF 5
ENDMDL
