MODEL 1
REMARK VINA RESULT:    -6.044      0.000      0.000
REMARK INTER + INTRA:          -9.277
REMARK INTER:                  -8.164
REMARK INTRA:                  -1.113
REMARK UNBOUND:                -1.113
REMARK  Name = 
REMARK  8 active torsions:
REMARK  status: ('A' for Active; 'I' for Inactive)
REMARK    1  A    between atoms: C_1  and  O_2
REMARK    2  A    between atoms: O_2  and  C_3
REMARK    3  A    between atoms: C_5  and  C_6
REMARK    4  A    between atoms: C_9  and  O_10
REMARK    5  A    between atoms: O_10  and  C_11
REMARK    6  A    between atoms: C_12  and  C_13
REMARK    7  A    between atoms: C_14  and  C_15
REMARK    8  A    between atoms: C_19  and  C_20
REMARK                            x       y       z     vdW  Elec       q    Type
REMARK                         _______ _______ _______ _____ _____    ______ ____
ROOT
ATOM      1  C   UNL     1      49.225   7.414  14.646  0.00  0.00    +0.000 C 
ATOM      2  C   UNL     1      48.821   7.633  13.276  0.00  0.00    +0.000 C 
ATOM      3  C   UNL     1      49.686   7.295  12.083  0.00  0.00    +0.000 C 
ATOM      4  C   UNL     1      49.590   8.716  12.545  0.00  0.00    +0.000 C 
ENDROOT
BRANCH   1  10
ATOM      5  C   UNL     1      48.418   5.905  16.410  0.00  0.00    +0.000 A 
ATOM      6  C   UNL     1      48.251   5.620  17.767  0.00  0.00    +0.000 A 
ATOM      7  C   UNL     1      48.496   6.609  18.726  0.00  0.00    +0.000 A 
ATOM      8  C   UNL     1      48.915   7.886  18.334  0.00  0.00    +0.000 A 
ATOM      9  C   UNL     1      49.088   8.190  16.979  0.00  0.00    +0.000 A 
ATOM     10  C   UNL     1      48.811   7.205  16.012  0.00  0.00    +0.000 A 
BRANCH   5  12
ATOM     11  C   UNL     1      47.255   4.061  15.394  0.00  0.00    +0.000 C 
ATOM     12  O   UNL     1      48.359   4.954  15.418  0.00  0.00    +0.000 OA
ENDBRANCH   5  12
BRANCH   7  13
ATOM     13  C   UNL     1      48.371   6.300  20.120  0.00  0.00    +0.000 C 
ATOM     14  N   UNL     1      48.267   6.038  21.249  0.00  0.00    +0.000 NA
ENDBRANCH   7  13
BRANCH   9  15
ATOM     15  O   UNL     1      49.576   9.382  16.511  0.00  0.00    +0.000 OA
ATOM     16  C   UNL     1      48.786  10.548  16.699  0.00  0.00    +0.000 C 
ENDBRANCH   9  15
ENDBRANCH   1  10
BRANCH   2  17
ATOM     17  C   UNL     1      47.314   7.406  13.121  0.00  0.00    +0.000 A 
ATOM     18  N   UNL     1      46.515   8.483  13.345  0.00  0.00    +0.000 NA
ATOM     19  C   UNL     1      45.377   8.579  12.638  0.00  0.00    +0.000 A 
ATOM     20  C   UNL     1      44.944   7.613  11.749  0.00  0.00    +0.000 A 
ATOM     21  C   UNL     1      45.689   6.439  11.599  0.00  0.00    +0.000 A 
ATOM     22  C   UNL     1      46.879   6.338  12.333  0.00  0.00    +0.000 A 
BRANCH  21  23
ATOM     23  C   UNL     1      45.309   5.394  10.638  0.00  0.00    +0.000 A 
ATOM     24  C   UNL     1      44.417   4.373  10.927  0.00  0.00    +0.000 A 
ATOM     25  N   UNL     1      44.039   3.409  10.059  0.00  0.00    +0.000 NA
ATOM     26  C   UNL     1      44.584   3.484   8.837  0.00  0.00    +0.000 A 
ATOM     27  N   UNL     1      45.452   4.414   8.423  0.00  0.00    +0.000 NA
ATOM     28  C   UNL     1      45.787   5.350   9.337  0.00  0.00    +0.000 A 
ENDBRANCH  21  23
ENDBRANCH   2  17
TORSDOF 6
ENDMDL
MODEL 2
REMARK VINA RESULT:    -6.031      0.944      2.761
REMARK INTER + INTRA:          -9.259
REMARK INTER:                  -8.051
REMARK INTRA:                  -1.209
REMARK UNBOUND:                -1.113
REMARK  Name = 
REMARK  8 active torsions:
REMARK  status: ('A' for Active; 'I' for Inactive)
REMARK    1  A    between atoms: C_1  and  O_2
REMARK    2  A    between atoms: O_2  and  C_3
REMARK    3  A    between atoms: C_5  and  C_6
REMARK    4  A    between atoms: C_9  and  O_10
REMARK    5  A    between atoms: O_10  and  C_11
REMARK    6  A    between atoms: C_12  and  C_13
REMARK    7  A    between atoms: C_14  and  C_15
REMARK    8  A    between atoms: C_19  and  C_20
REMARK                            x       y       z     vdW  Elec       q    Type
REMARK                         _______ _______ _______ _____ _____    ______ ____
ROOT
ATOM      1  C   UNL     1      49.508   7.170  14.851  0.00  0.00    +0.000 C 
ATOM      2  C   UNL     1      48.973   7.468  13.541  0.00  0.00    +0.000 C 
ATOM      3  C   UNL     1      49.604   6.998  12.252  0.00  0.00    +0.000 C 
ATOM      4  C   UNL     1      49.814   8.409  12.703  0.00  0.00    +0.000 C 
ENDROOT
BRANCH   1  10
ATOM      5  C   UNL     1      49.307   8.170  17.086  0.00  0.00    +0.000 A 
ATOM      6  C   UNL     1      48.823   8.106  18.395  0.00  0.00    +0.000 A 
ATOM      7  C   UNL     1      48.259   6.918  18.876  0.00  0.00    +0.000 A 
ATOM      8  C   UNL     1      48.171   5.792  18.050  0.00  0.00    +0.000 A 
ATOM      9  C   UNL     1      48.649   5.838  16.736  0.00  0.00    +0.000 A 
ATOM     10  C   UNL     1      49.246   7.022  16.261  0.00  0.00    +0.000 A 
BRANCH   5  12
ATOM     11  C   UNL     1      48.785  10.387  16.313  0.00  0.00    +0.000 C 
ATOM     12  O   UNL     1      49.723   9.335  16.484  0.00  0.00    +0.000 OA
ENDBRANCH   5  12
BRANCH   7  13
ATOM     13  C   UNL     1      47.720   6.870  20.203  0.00  0.00    +0.000 C 
ATOM     14  N   UNL     1      47.291   6.825  21.284  0.00  0.00    +0.000 NA
ENDBRANCH   7  13
BRANCH   9  15
ATOM     15  O   UNL     1      48.527   4.815  15.832  0.00  0.00    +0.000 OA
ATOM     16  C   UNL     1      47.432   3.922  15.978  0.00  0.00    +0.000 C 
ENDBRANCH   9  15
ENDBRANCH   1  10
BRANCH   2  17
ATOM     17  C   UNL     1      47.442   7.504  13.586  0.00  0.00    +0.000 A 
ATOM     18  N   UNL     1      46.863   8.727  13.460  0.00  0.00    +0.000 NA
ATOM     19  C   UNL     1      45.669   8.797  12.849  0.00  0.00    +0.000 A 
ATOM     20  C   UNL     1      44.970   7.689  12.405  0.00  0.00    +0.000 A 
ATOM     21  C   UNL     1      45.491   6.413  12.639  0.00  0.00    +0.000 A 
ATOM     22  C   UNL     1      46.740   6.338  13.273  0.00  0.00    +0.000 A 
BRANCH  21  23
ATOM     23  C   UNL     1      44.823   5.198  12.152  0.00  0.00    +0.000 A 
ATOM     24  C   UNL     1      44.589   4.936  10.811  0.00  0.00    +0.000 A 
ATOM     25  N   UNL     1      43.991   3.822  10.335  0.00  0.00    +0.000 NA
ATOM     26  C   UNL     1      43.617   2.925  11.258  0.00  0.00    +0.000 A 
ATOM     27  N   UNL     1      43.784   3.047  12.580  0.00  0.00    +0.000 NA
ATOM     28  C   UNL     1      44.390   4.182  12.991  0.00  0.00    +0.000 A 
ENDBRANCH  21  23
ENDBRANCH   2  17
TORSDOF 6
ENDMDL
MODEL 3
REMARK VINA RESULT:    -5.545      2.734      4.274
REMARK INTER + INTRA:          -8.603
REMARK INTER:                  -7.132
REMARK INTRA:                  -1.471
REMARK UNBOUND:                -1.113
REMARK  Name = 
REMARK  8 active torsions:
REMARK  status: ('A' for Active; 'I' for Inactive)
REMARK    1  A    between atoms: C_1  and  O_2
REMARK    2  A    between atoms: O_2  and  C_3
REMARK    3  A    between atoms: C_5  and  C_6
REMARK    4  A    between atoms: C_9  and  O_10
REMARK    5  A    between atoms: O_10  and  C_11
REMARK    6  A    between atoms: C_12  and  C_13
REMARK    7  A    between atoms: C_14  and  C_15
REMARK    8  A    between atoms: C_19  and  C_20
REMARK                            x       y       z     vdW  Elec       q    Type
REMARK                         _______ _______ _______ _____ _____    ______ ____
ROOT
ATOM      1  C   UNL     1      49.539   7.354  17.323  0.00  0.00    +0.000 C 
ATOM      2  C   UNL     1      48.972   8.534  16.709  0.00  0.00    +0.000 C 
ATOM      3  C   UNL     1      49.229   9.940  17.199  0.00  0.00    +0.000 C 
ATOM      4  C   UNL     1      47.940   9.262  17.546  0.00  0.00    +0.000 C 
ENDROOT
BRANCH   1  10
ATOM      5  C   UNL     1      51.311   5.659  17.179  0.00  0.00    +0.000 A 
ATOM      6  C   UNL     1      51.711   4.324  17.275  0.00  0.00    +0.000 A 
ATOM      7  C   UNL     1      50.751   3.311  17.380  0.00  0.00    +0.000 A 
ATOM      8  C   UNL     1      49.387   3.628  17.397  0.00  0.00    +0.000 A 
ATOM      9  C   UNL     1      48.968   4.959  17.303  0.00  0.00    +0.000 A 
ATOM     10  C   UNL     1      49.932   5.976  17.164  0.00  0.00    +0.000 A 
BRANCH   5  12
ATOM     11  C   UNL     1      53.018   6.980  16.118  0.00  0.00    +0.000 C 
ATOM     12  O   UNL     1      52.183   6.721  17.237  0.00  0.00    +0.000 OA
ENDBRANCH   5  12
BRANCH   7  13
ATOM     13  C   UNL     1      51.165   1.947  17.527  0.00  0.00    +0.000 C 
ATOM     14  N   UNL     1      51.493   0.838  17.654  0.00  0.00    +0.000 NA
ENDBRANCH   7  13
BRANCH   9  15
ATOM     15  O   UNL     1      47.663   5.367  17.397  0.00  0.00    +0.000 OA
ATOM     16  C   UNL     1      47.045   5.339  18.676  0.00  0.00    +0.000 C 
ENDBRANCH   9  15
ENDBRANCH   1  10
BRANCH   2  17
ATOM     17  C   UNL     1      48.859   8.343  15.193  0.00  0.00    +0.000 A 
ATOM     18  N   UNL     1      49.973   8.620  14.464  0.00  0.00    +0.000 NA
ATOM     19  C   UNL     1      50.188   7.903  13.349  0.00  0.00    +0.000 A 
ATOM     20  C   UNL     1      49.308   6.951  12.869  0.00  0.00    +0.000 A 
ATOM     21  C   UNL     1      48.096   6.742  13.535  0.00  0.00    +0.000 A 
ATOM     22  C   UNL     1      47.871   7.486  14.702  0.00  0.00    +0.000 A 
BRANCH  21  23
ATOM     23  C   UNL     1      47.139   5.714  13.105  0.00  0.00    +0.000 A 
ATOM     24  C   UNL     1      46.998   4.485  13.732  0.00  0.00    +0.000 A 
ATOM     25  N   UNL     1      46.116   3.529  13.368  0.00  0.00    +0.000 NA
ATOM     26  C   UNL     1      45.333   3.830  12.323  0.00  0.00    +0.000 A 
ATOM     27  N   UNL     1      45.359   4.975  11.629  0.00  0.00    +0.000 NA
ATOM     28  C   UNL     1      46.261   5.890  12.046  0.00  0.00    +0.000 A 
ENDBRANCH  21  23
ENDBRANCH   2  17
TORSDOF 6
ENDMDL
MODEL 4
REMARK VINA RESULT:    -5.302      2.805      4.593
REMARK INTER + INTRA:          -8.275
REMARK INTER:                  -6.357
REMARK INTRA:                  -1.917
REMARK UNBOUND:                -1.113
REMARK  Name = 
REMARK  8 active torsions:
REMARK  status: ('A' for Active; 'I' for Inactive)
REMARK    1  A    between atoms: C_1  and  O_2
REMARK    2  A    between atoms: O_2  and  C_3
REMARK    3  A    between atoms: C_5  and  C_6
REMARK    4  A    between atoms: C_9  and  O_10
REMARK    5  A    between atoms: O_10  and  C_11
REMARK    6  A    between atoms: C_12  and  C_13
REMARK    7  A    between atoms: C_14  and  C_15
REMARK    8  A    between atoms: C_19  and  C_20
REMARK                            x       y       z     vdW  Elec       q    Type
REMARK                         _______ _______ _______ _____ _____    ______ ____
ROOT
ATOM      1  C   UNL     1      49.829   8.014  18.225  0.00  0.00    +0.000 C 
ATOM      2  C   UNL     1      49.417   9.198  17.505  0.00  0.00    +0.000 C 
ATOM      3  C   UNL     1      49.784  10.603  17.922  0.00  0.00    +0.000 C 
ATOM      4  C   UNL     1      48.417  10.076  18.230  0.00  0.00    +0.000 C 
ENDROOT
BRANCH   1  10
ATOM      5  C   UNL     1      49.011   5.701  18.355  0.00  0.00    +0.000 A 
ATOM      6  C   UNL     1      49.185   4.344  18.072  0.00  0.00    +0.000 A 
ATOM      7  C   UNL     1      50.416   3.882  17.591  0.00  0.00    +0.000 A 
ATOM      8  C   UNL     1      51.475   4.774  17.386  0.00  0.00    +0.000 A 
ATOM      9  C   UNL     1      51.319   6.136  17.663  0.00  0.00    +0.000 A 
ATOM     10  C   UNL     1      50.092   6.597  18.177  0.00  0.00    +0.000 A 
BRANCH   5  12
ATOM     11  C   UNL     1      47.303   6.121  19.996  0.00  0.00    +0.000 C 
ATOM     12  O   UNL     1      47.796   6.263  18.672  0.00  0.00    +0.000 OA
ENDBRANCH   5  12
BRANCH   7  13
ATOM     13  C   UNL     1      50.578   2.498  17.256  0.00  0.00    +0.000 C 
ATOM     14  N   UNL     1      50.699   1.374  16.978  0.00  0.00    +0.000 NA
ENDBRANCH   7  13
BRANCH   9  15
ATOM     15  O   UNL     1      52.269   7.090  17.411  0.00  0.00    +0.000 OA
ATOM     16  C   UNL     1      53.323   6.765  16.516  0.00  0.00    +0.000 C 
ENDBRANCH   9  15
ENDBRANCH   1  10
BRANCH   2  17
ATOM     17  C   UNL     1      49.369   8.916  16.000  0.00  0.00    +0.000 A 
ATOM     18  N   UNL     1      50.521   9.122  15.309  0.00  0.00    +0.000 NA
ATOM     19  C   UNL     1      50.769   8.333  14.251  0.00  0.00    +0.000 A 
ATOM     20  C   UNL     1      49.889   7.373  13.788  0.00  0.00    +0.000 A 
ATOM     21  C   UNL     1      48.643   7.233  14.408  0.00  0.00    +0.000 A 
ATOM     22  C   UNL     1      48.383   8.052  15.516  0.00  0.00    +0.000 A 
BRANCH  21  23
ATOM     23  C   UNL     1      47.681   6.202  13.996  0.00  0.00    +0.000 A 
ATOM     24  C   UNL     1      46.995   6.229  12.791  0.00  0.00    +0.000 A 
ATOM     25  N   UNL     1      46.117   5.288  12.381  0.00  0.00    +0.000 NA
ATOM     26  C   UNL     1      45.927   4.265  13.226  0.00  0.00    +0.000 A 
ATOM     27  N   UNL     1      46.522   4.111  14.414  0.00  0.00    +0.000 NA
ATOM     28  C   UNL     1      47.390   5.084  14.764  0.00  0.00    +0.000 A 
ENDBRANCH  21  23
ENDBRANCH   2  17
TORSDOF 6
ENDMDL
MODEL 5
REMARK VINA RESULT:    -5.172      3.294      5.573
REMARK INTER + INTRA:          -8.099
REMARK INTER:                  -7.703
REMARK INTRA:                  -0.397
REMARK UNBOUND:                -1.113
REMARK  Name = 
REMARK  8 active torsions:
REMARK  status: ('A' for Active; 'I' for Inactive)
REMARK    1  A    between atoms: C_1  and  O_2
REMARK    2  A    between atoms: O_2  and  C_3
REMARK    3  A    between atoms: C_5  and  C_6
REMARK    4  A    between atoms: C_9  and  O_10
REMARK    5  A    between atoms: O_10  and  C_11
REMARK    6  A    between atoms: C_12  and  C_13
REMARK    7  A    between atoms: C_14  and  C_15
REMARK    8  A    between atoms: C_19  and  C_20
REMARK                            x       y       z     vdW  Elec       q    Type
REMARK                         _______ _______ _______ _____ _____    ______ ____
ROOT
ATOM      1  C   UNL     1      44.813   6.500  12.352  0.00  0.00    +0.000 C 
ATOM      2  C   UNL     1      43.740   5.572  12.077  0.00  0.00    +0.000 C 
ATOM      3  C   UNL     1      42.437   5.967  11.421  0.00  0.00    +0.000 C 
ATOM      4  C   UNL     1      42.487   5.774  12.905  0.00  0.00    +0.000 C 
ENDROOT
BRANCH   1  10
ATOM      5  C   UNL     1      46.825   7.897  12.157  0.00  0.00    +0.000 A 
ATOM      6  C   UNL     1      48.120   8.208  12.579  0.00  0.00    +0.000 A 
ATOM      7  C   UNL     1      48.807   7.338  13.433  0.00  0.00    +0.000 A 
ATOM      8  C   UNL     1      48.201   6.156  13.875  0.00  0.00    +0.000 A 
ATOM      9  C   UNL     1      46.904   5.828  13.464  0.00  0.00    +0.000 A 
ATOM     10  C   UNL     1      46.225   6.687  12.579  0.00  0.00    +0.000 A 
BRANCH   5  12
ATOM     11  C   UNL     1      45.847  10.085  11.954  0.00  0.00    +0.000 C 
ATOM     12  O   UNL     1      46.022   8.766  11.457  0.00  0.00    +0.000 OA
ENDBRANCH   5  12
BRANCH   7  13
ATOM     13  C   UNL     1      50.116   7.683  13.902  0.00  0.00    +0.000 C 
ATOM     14  N   UNL     1      51.177   7.960  14.293  0.00  0.00    +0.000 NA
ENDBRANCH   7  13
BRANCH   9  15
ATOM     15  O   UNL     1      46.203   4.739  13.913  0.00  0.00    +0.000 OA
ATOM     16  C   UNL     1      46.898   3.509  14.056  0.00  0.00    +0.000 C 
ENDBRANCH   9  15
ENDBRANCH   1  10
BRANCH   2  17
ATOM     17  C   UNL     1      44.306   4.196  11.711  0.00  0.00    +0.000 A 
ATOM     18  N   UNL     1      43.652   3.119  12.220  0.00  0.00    +0.000 NA
ATOM     19  C   UNL     1      43.628   1.993  11.487  0.00  0.00    +0.000 A 
ATOM     20  C   UNL     1      44.288   1.852  10.280  0.00  0.00    +0.000 A 
ATOM     21  C   UNL     1      45.070   2.907   9.801  0.00  0.00    +0.000 A 
ATOM     22  C   UNL     1      45.093   4.084  10.562  0.00  0.00    +0.000 A 
BRANCH  21  23
ATOM     23  C   UNL     1      45.758   2.839   8.504  0.00  0.00    +0.000 A 
ATOM     24  C   UNL     1      45.931   3.932   7.669  0.00  0.00    +0.000 A 
ATOM     25  N   UNL     1      46.571   3.902   6.480  0.00  0.00    +0.000 NA
ATOM     26  C   UNL     1      47.069   2.710   6.120  0.00  0.00    +0.000 A 
ATOM     27  N   UNL     1      46.979   1.578   6.828  0.00  0.00    +0.000 NA
ATOM     28  C   UNL     1      46.329   1.677   8.008  0.00  0.00    +0.000 A 
ENDBRANCH  21  23
ENDBRANCH   2  17
TORSDOF 6
ENDMDL
MODEL 6
REMARK VINA RESULT:    -5.079      3.248      6.464
REMARK INTER + INTRA:          -7.973
REMARK INTER:                  -7.297
REMARK INTRA:                  -0.677
REMARK UNBOUND:                -1.113
REMARK  Name = 
REMARK  8 active torsions:
REMARK  status: ('A' for Active; 'I' for Inactive)
REMARK    1  A    between atoms: C_1  and  O_2
REMARK    2  A    between atoms: O_2  and  C_3
REMARK    3  A    between atoms: C_5  and  C_6
REMARK    4  A    between atoms: C_9  and  O_10
REMARK    5  A    between atoms: O_10  and  C_11
REMARK    6  A    between atoms: C_12  and  C_13
REMARK    7  A    between atoms: C_14  and  C_15
REMARK    8  A    between atoms: C_19  and  C_20
REMARK                            x       y       z     vdW  Elec       q    Type
REMARK                         _______ _______ _______ _____ _____    ______ ____
ROOT
ATOM      1  C   UNL     1      47.868   7.368  13.936  0.00  0.00    +0.000 C 
ATOM      2  C   UNL     1      48.820   8.456  13.920  0.00  0.00    +0.000 C 
ATOM      3  C   UNL     1      49.800   8.728  15.037  0.00  0.00    +0.000 C 
ATOM      4  C   UNL     1      48.556   9.555  14.930  0.00  0.00    +0.000 C 
ENDROOT
BRANCH   1  10
ATOM      5  C   UNL     1      46.979   5.110  13.548  0.00  0.00    +0.000 A 
ATOM      6  C   UNL     1      46.008   4.279  12.986  0.00  0.00    +0.000 A 
ATOM      7  C   UNL     1      45.086   4.799  12.069  0.00  0.00    +0.000 A 
ATOM      8  C   UNL     1      45.127   6.153  11.717  0.00  0.00    +0.000 A 
ATOM      9  C   UNL     1      46.091   7.001  12.271  0.00  0.00    +0.000 A 
ATOM     10  C   UNL     1      47.039   6.472  13.168  0.00  0.00    +0.000 A 
BRANCH   5  12
ATOM     11  C   UNL     1      47.236   4.233  15.773  0.00  0.00    +0.000 C 
ATOM     12  O   UNL     1      47.813   4.724  14.572  0.00  0.00    +0.000 OA
ENDBRANCH   5  12
BRANCH   7  13
ATOM     13  C   UNL     1      44.061   3.955  11.530  0.00  0.00    +0.000 C 
ATOM     14  N   UNL     1      43.224   3.278  11.088  0.00  0.00    +0.000 NA
ENDBRANCH   7  13
BRANCH   9  15
ATOM     15  O   UNL     1      46.152   8.352  12.050  0.00  0.00    +0.000 OA
ATOM     16  C   UNL     1      45.102   9.161  12.561  0.00  0.00    +0.000 C 
ENDBRANCH   9  15
ENDBRANCH   1  10
BRANCH   2  17
ATOM     17  C   UNL     1      49.313   8.711  12.493  0.00  0.00    +0.000 A 
ATOM     18  N   UNL     1      49.080   9.950  11.985  0.00  0.00    +0.000 NA
ATOM     19  C   UNL     1      49.977  10.456  11.123  0.00  0.00    +0.000 A 
ATOM     20  C   UNL     1      51.084   9.760  10.674  0.00  0.00    +0.000 A 
ATOM     21  C   UNL     1      51.273   8.437  11.087  0.00  0.00    +0.000 A 
ATOM     22  C   UNL     1      50.340   7.908  11.990  0.00  0.00    +0.000 A 
BRANCH  21  23
ATOM     23  C   UNL     1      52.452   7.658  10.684  0.00  0.00    +0.000 A 
ATOM     24  C   UNL     1      53.656   7.676  11.372  0.00  0.00    +0.000 A 
ATOM     25  N   UNL     1      54.750   6.959  11.035  0.00  0.00    +0.000 NA
ATOM     26  C   UNL     1      54.620   6.179   9.952  0.00  0.00    +0.000 A 
ATOM     27  N   UNL     1      53.520   6.063   9.199  0.00  0.00    +0.000 NA
ATOM     28  C   UNL     1      52.461   6.803   9.592  0.00  0.00    +0.000 A 
ENDBRANCH  21  23
ENDBRANCH   2  17
TORSDOF 6
ENDMDL
MODEL 7
REMARK VINA RESULT:    -4.960      2.712      7.562
REMARK INTER + INTRA:          -7.813
REMARK INTER:                  -6.770
REMARK INTRA:                  -1.044
REMARK UNBOUND:                -1.113
REMARK  Name = 
REMARK  8 active torsions:
REMARK  status: ('A' for Active; 'I' for Inactive)
REMARK    1  A    between atoms: C_1  and  O_2
REMARK    2  A    between atoms: O_2  and  C_3
REMARK    3  A    between atoms: C_5  and  C_6
REMARK    4  A    between atoms: C_9  and  O_10
REMARK    5  A    between atoms: O_10  and  C_11
REMARK    6  A    between atoms: C_12  and  C_13
REMARK    7  A    between atoms: C_14  and  C_15
REMARK    8  A    between atoms: C_19  and  C_20
REMARK                            x       y       z     vdW  Elec       q    Type
REMARK                         _______ _______ _______ _____ _____    ______ ____
ROOT
ATOM      1  C   UNL     1      49.103   6.846  14.777  0.00  0.00    +0.000 C 
ATOM      2  C   UNL     1      49.704   7.212  16.039  0.00  0.00    +0.000 C 
ATOM      3  C   UNL     1      50.914   8.108  16.164  0.00  0.00    +0.000 C 
ATOM      4  C   UNL     1      51.079   6.626  16.290  0.00  0.00    +0.000 C 
ENDROOT
BRANCH   1  10
ATOM      5  C   UNL     1      47.372   5.141  14.411  0.00  0.00    +0.000 A 
ATOM      6  C   UNL     1      46.103   4.795  13.940  0.00  0.00    +0.000 A 
ATOM      7  C   UNL     1      45.371   5.704  13.166  0.00  0.00    +0.000 A 
ATOM      8  C   UNL     1      45.901   6.965  12.867  0.00  0.00    +0.000 A 
ATOM      9  C   UNL     1      47.169   7.329  13.331  0.00  0.00    +0.000 A 
ATOM     10  C   UNL     1      47.920   6.404  14.081  0.00  0.00    +0.000 A 
BRANCH   5  12
ATOM     11  C   UNL     1      47.375   3.596  16.254  0.00  0.00    +0.000 C 
ATOM     12  O   UNL     1      48.085   4.380  15.307  0.00  0.00    +0.000 OA
ENDBRANCH   5  12
BRANCH   7  13
ATOM     13  C   UNL     1      44.051   5.365  12.725  0.00  0.00    +0.000 C 
ATOM     14  N   UNL     1      42.982   5.080  12.363  0.00  0.00    +0.000 NA
ENDBRANCH   7  13
BRANCH   9  15
ATOM     15  O   UNL     1      47.729   8.569  13.159  0.00  0.00    +0.000 OA
ATOM     16  C   UNL     1      48.337   8.860  11.909  0.00  0.00    +0.000 C 
ENDBRANCH   9  15
ENDBRANCH   1  10
BRANCH   2  17
ATOM     17  C   UNL     1      48.628   7.352  17.121  0.00  0.00    +0.000 A 
ATOM     18  N   UNL     1      48.592   6.378  18.067  0.00  0.00    +0.000 NA
ATOM     19  C   UNL     1      48.208   6.720  19.309  0.00  0.00    +0.000 A 
ATOM     20  C   UNL     1      47.785   7.990  19.656  0.00  0.00    +0.000 A 
ATOM     21  C   UNL     1      47.694   8.974  18.667  0.00  0.00    +0.000 A 
ATOM     22  C   UNL     1      48.098   8.620  17.372  0.00  0.00    +0.000 A 
BRANCH  21  23
ATOM     23  C   UNL     1      47.297  10.355  18.977  0.00  0.00    +0.000 A 
ATOM     24  C   UNL     1      47.548  11.432  18.142  0.00  0.00    +0.000 A 
ATOM     25  N   UNL     1      47.182  12.707  18.394  0.00  0.00    +0.000 NA
ATOM     26  C   UNL     1      46.522  12.904  19.545  0.00  0.00    +0.000 A 
ATOM     27  N   UNL     1      46.210  11.958  20.439  0.00  0.00    +0.000 NA
ATOM     28  C   UNL     1      46.603  10.705  20.126  0.00  0.00    +0.000 A 
ENDBRANCH  21  23
ENDBRANCH   2  17
TORSDOF 6
ENDMDL
MODEL 8
REMARK VINA RESULT:    -4.877      2.916      4.555
REMARK INTER + INTRA:          -7.701
REMARK INTER:                  -7.086
REMARK INTRA:                  -0.615
REMARK UNBOUND:                -1.113
REMARK  Name = 
REMARK  8 active torsions:
REMARK  status: ('A' for Active; 'I' for Inactive)
REMARK    1  A    between atoms: C_1  and  O_2
REMARK    2  A    between atoms: O_2  and  C_3
REMARK    3  A    between atoms: C_5  and  C_6
REMARK    4  A    between atoms: C_9  and  O_10
REMARK    5  A    between atoms: O_10  and  C_11
REMARK    6  A    between atoms: C_12  and  C_13
REMARK    7  A    between atoms: C_14  and  C_15
REMARK    8  A    between atoms: C_19  and  C_20
REMARK                            x       y       z     vdW  Elec       q    Type
REMARK                         _______ _______ _______ _____ _____    ______ ____
ROOT
ATOM      1  C   UNL     1      49.398   4.405  17.930  0.00  0.00    +0.000 C 
ATOM      2  C   UNL     1      48.414   3.850  17.028  0.00  0.00    +0.000 C 
ATOM      3  C   UNL     1      47.441   2.761  17.416  0.00  0.00    +0.000 C 
ATOM      4  C   UNL     1      48.657   2.412  16.616  0.00  0.00    +0.000 C 
ENDROOT
BRANCH   1  10
ATOM      5  C   UNL     1      49.707   6.568  19.054  0.00  0.00    +0.000 A 
ATOM      6  C   UNL     1      50.560   7.535  19.591  0.00  0.00    +0.000 A 
ATOM      7  C   UNL     1      51.939   7.456  19.364  0.00  0.00    +0.000 A 
ATOM      8  C   UNL     1      52.472   6.408  18.604  0.00  0.00    +0.000 A 
ATOM      9  C   UNL     1      51.633   5.430  18.059  0.00  0.00    +0.000 A 
ATOM     10  C   UNL     1      50.243   5.526  18.260  0.00  0.00    +0.000 A 
BRANCH   5  12
ATOM     11  C   UNL     1      47.505   7.531  18.964  0.00  0.00    +0.000 C 
ATOM     12  O   UNL     1      48.370   6.476  19.361  0.00  0.00    +0.000 OA
ENDBRANCH   5  12
BRANCH   7  13
ATOM     13  C   UNL     1      52.817   8.422  19.956  0.00  0.00    +0.000 C 
ATOM     14  N   UNL     1      53.521   9.213  20.438  0.00  0.00    +0.000 NA
ENDBRANCH   7  13
BRANCH   9  15
ATOM     15  O   UNL     1      52.074   4.325  17.378  0.00  0.00    +0.000 OA
ATOM     16  C   UNL     1      52.933   3.420  18.057  0.00  0.00    +0.000 C 
ENDBRANCH   9  15
ENDBRANCH   1  10
BRANCH   2  17
ATOM     17  C   UNL     1      47.893   4.933  16.077  0.00  0.00    +0.000 A 
ATOM     18  N   UNL     1      48.791   5.874  15.684  0.00  0.00    +0.000 NA
ATOM     19  C   UNL     1      48.658   6.394  14.452  0.00  0.00    +0.000 A 
ATOM     20  C   UNL     1      47.622   6.075  13.594  0.00  0.00    +0.000 A 
ATOM     21  C   UNL     1      46.618   5.203  14.029  0.00  0.00    +0.000 A 
ATOM     22  C   UNL     1      46.757   4.656  15.312  0.00  0.00    +0.000 A 
BRANCH  21  23
ATOM     23  C   UNL     1      45.516   4.786  13.151  0.00  0.00    +0.000 A 
ATOM     24  C   UNL     1      44.425   5.589  12.854  0.00  0.00    +0.000 A 
ATOM     25  N   UNL     1      43.407   5.237  12.039  0.00  0.00    +0.000 NA
ATOM     26  C   UNL     1      43.497   4.017  11.492  0.00  0.00    +0.000 A 
ATOM     27  N   UNL     1      44.492   3.144  11.687  0.00  0.00    +0.000 NA
ATOM     28  C   UNL     1      45.480   3.557  12.510  0.00  0.00    +0.000 A 
ENDBRANCH  21  23
ENDBRANCH   2  17
TORSDOF 6
ENDMDL
MODEL 9
REMARK VINA RESULT:    -4.834      2.666      7.938
REMARK INTER + INTRA:          -7.643
REMARK INTER:                  -6.668
REMARK INTRA:                  -0.975
REMARK UNBOUND:                -1.113
REMARK  Name = 
REMARK  8 active torsions:
REMARK  status: ('A' for Active; 'I' for Inactive)
REMARK    1  A    between atoms: C_1  and  O_2
REMARK    2  A    between atoms: O_2  and  C_3
REMARK    3  A    between atoms: C_5  and  C_6
REMARK    4  A    between atoms: C_9  and  O_10
REMARK    5  A    between atoms: O_10  and  C_11
REMARK    6  A    between atoms: C_12  and  C_13
REMARK    7  A    between atoms: C_14  and  C_15
REMARK    8  A    between atoms: C_19  and  C_20
REMARK                            x       y       z     vdW  Elec       q    Type
REMARK                         _______ _______ _______ _____ _____    ______ ____
ROOT
ATOM      1  C   UNL     1      49.201   6.903  15.114  0.00  0.00    +0.000 C 
ATOM      2  C   UNL     1      49.796   7.250  16.385  0.00  0.00    +0.000 C 
ATOM      3  C   UNL     1      50.983   8.172  16.530  0.00  0.00    +0.000 C 
ATOM      4  C   UNL     1      51.185   6.692  16.619  0.00  0.00    +0.000 C 
ENDROOT
BRANCH   1  10
ATOM      5  C   UNL     1      47.577   7.195  13.293  0.00  0.00    +0.000 A 
ATOM      6  C   UNL     1      46.603   6.654  12.450  0.00  0.00    +0.000 A 
ATOM      7  C   UNL     1      46.097   5.372  12.696  0.00  0.00    +0.000 A 
ATOM      8  C   UNL     1      46.566   4.623  13.782  0.00  0.00    +0.000 A 
ATOM      9  C   UNL     1      47.541   5.148  14.636  0.00  0.00    +0.000 A 
ATOM     10  C   UNL     1      48.028   6.449  14.409  0.00  0.00    +0.000 A 
BRANCH   5  12
ATOM     11  C   UNL     1      48.819   8.557  11.749  0.00  0.00    +0.000 C 
ATOM     12  O   UNL     1      48.243   8.370  13.033  0.00  0.00    +0.000 OA
ENDBRANCH   5  12
BRANCH   7  13
ATOM     13  C   UNL     1      45.134   4.801  11.802  0.00  0.00    +0.000 C 
ATOM     14  N   UNL     1      44.352   4.347  11.069  0.00  0.00    +0.000 NA
ENDBRANCH   7  13
BRANCH   9  15
ATOM     15  O   UNL     1      48.118   4.455  15.668  0.00  0.00    +0.000 OA
ATOM     16  C   UNL     1      47.263   3.797  16.593  0.00  0.00    +0.000 C 
ENDBRANCH   9  15
ENDBRANCH   1  10
BRANCH   2  17
ATOM     17  C   UNL     1      48.718   7.337  17.471  0.00  0.00    +0.000 A 
ATOM     18  N   UNL     1      48.779   6.404  18.457  0.00  0.00    +0.000 NA
ATOM     19  C   UNL     1      48.373   6.761  19.687  0.00  0.00    +0.000 A 
ATOM     20  C   UNL     1      47.837   8.000  19.986  0.00  0.00    +0.000 A 
ATOM     21  C   UNL     1      47.650   8.930  18.958  0.00  0.00    +0.000 A 
ATOM     22  C   UNL     1      48.076   8.561  17.675  0.00  0.00    +0.000 A 
BRANCH  21  23
ATOM     23  C   UNL     1      47.129  10.280  19.216  0.00  0.00    +0.000 A 
ATOM     24  C   UNL     1      47.411  11.377  18.416  0.00  0.00    +0.000 A 
ATOM     25  N   UNL     1      46.935  12.624  18.620  0.00  0.00    +0.000 NA
ATOM     26  C   UNL     1      46.129  12.771  19.680  0.00  0.00    +0.000 A 
ATOM     27  N   UNL     1      45.771  11.801  20.531  0.00  0.00    +0.000 NA
ATOM     28  C   UNL     1      46.279  10.577  20.270  0.00  0.00    +0.000 A 
ENDBRANCH  21  23
ENDBRANCH   2  17
TORSDOF 6
ENDMDL
