MODEL 1
REMARK VINA RESULT:    -8.173      0.000      0.000
REMARK INTER + INTRA:         -12.243
REMARK INTER:                 -11.518
REMARK INTRA:                  -0.725
REMARK UNBOUND:                -0.725
REMARK  Name = 
REMARK  7 active torsions:
REMARK  status: ('A' for Active; 'I' for Inactive)
REMARK    1  A    between atoms: C_2  and  C_4
REMARK    2  A    between atoms: C_7  and  N_8
REMARK    3  A    between atoms: N_8  and  C_9
REMARK    4  A    between atoms: C_9  and  C_10
REMARK    5  A    between atoms: C_10  and  C_11
REMARK    6  A    between atoms: C_15  and  N_16
REMARK    7  A    between atoms: N_16  and  C_17
REMARK                            x       y       z     vdW  Elec       q    Type
REMARK                         _______ _______ _______ _____ _____    ______ ____
ROOT
ATOM      1  C   UNL     1      43.390   4.210  11.164  0.00  0.00    +0.000 C 
ENDROOT
BRANCH   1   2
ATOM      2  N   UNL     1      43.671   4.759   9.832  0.00  0.00    +0.000 N 
ATOM      3  H   UNL     1      43.968   5.731   9.872  0.00  0.00    +0.000 HD
BRANCH   2   7
ATOM      4  C   UNL     1      46.399   2.474   7.766  0.00  0.00    +0.000 A 
ATOM      5  C   UNL     1      46.362   3.849   7.601  0.00  0.00    +0.000 A 
ATOM      6  N   UNL     1      45.469   4.639   8.255  0.00  0.00    +0.000 NA
ATOM      7  C   UNL     1      44.602   4.019   9.083  0.00  0.00    +0.000 A 
ATOM      8  C   UNL     1      44.657   2.625   9.235  0.00  0.00    +0.000 A 
ATOM      9  N   UNL     1      45.537   1.815   8.586  0.00  0.00    +0.000 NA
BRANCH   4  11
ATOM     10  N   UNL     1      48.436   2.380   6.465  0.00  0.00    +0.000 N 
ATOM     11  C   UNL     1      47.418   1.668   7.041  0.00  0.00    +0.000 C 
ATOM     12  O   UNL     1      47.353   0.449   6.956  0.00  0.00    +0.000 OA
ATOM     13  H   UNL     1      49.147   1.896   5.936  0.00  0.00    +0.000 HD
ATOM     14  H   UNL     1      48.451   3.391   6.539  0.00  0.00    +0.000 HD
ENDBRANCH   4  11
ENDBRANCH   2   7
ENDBRANCH   1   2
BRANCH   1  15
ATOM     15  C   UNL     1      43.555   5.312  12.217  0.00  0.00    +0.000 C 
BRANCH  15  16
ATOM     16  C   UNL     1      44.983   5.456  12.678  0.00  0.00    +0.000 A 
ATOM     17  C   UNL     1      45.839   6.379  12.073  0.00  0.00    +0.000 A 
ATOM     18  C   UNL     1      47.165   6.488  12.491  0.00  0.00    +0.000 A 
ATOM     19  C   UNL     1      47.652   5.671  13.515  0.00  0.00    +0.000 A 
ATOM     20  C   UNL     1      46.810   4.754  14.145  0.00  0.00    +0.000 A 
ATOM     21  C   UNL     1      45.474   4.663  13.727  0.00  0.00    +0.000 A 
BRANCH  20  22
ATOM     22  N   UNL     1      47.237   3.911  15.194  0.00  0.00    +0.000 N 
ATOM     23  H   UNL     1      46.882   2.970  15.030  0.00  0.00    +0.000 HD
BRANCH  22  24
ATOM     24  C   UNL     1      47.260   4.254  16.585  0.00  0.00    +0.000 C 
ATOM     25  C   UNL     1      48.686   4.578  17.086  0.00  0.00    +0.000 C 
ATOM     26  C   UNL     1      48.473   3.587  18.240  0.00  0.00    +0.000 C 
ATOM     27  C   UNL     1      47.285   2.990  17.470  0.00  0.00    +0.000 C 
ENDBRANCH  22  24
ENDBRANCH  20  22
ENDBRANCH  15  16
ENDBRANCH   1  15
TORSDOF 7
ENDMDL
MODEL 2
REMARK VINA RESULT:    -7.334      2.927      7.941
REMARK INTER + INTRA:         -11.060
REMARK INTER:                 -10.331
REMARK INTRA:                  -0.729
REMARK UNBOUND:                -0.725
REMARK  Name = 
REMARK  7 active torsions:
REMARK  status: ('A' for Active; 'I' for Inactive)
REMARK    1  A    between atoms: C_2  and  C_4
REMARK    2  A    between atoms: C_7  and  N_8
REMARK    3  A    between atoms: N_8  and  C_9
REMARK    4  A    between atoms: C_9  and  C_10
REMARK    5  A    between atoms: C_10  and  C_11
REMARK    6  A    between atoms: C_15  and  N_16
REMARK    7  A    between atoms: N_16  and  C_17
REMARK                            x       y       z     vdW  Elec       q    Type
REMARK                         _______ _______ _______ _____ _____    ______ ____
ROOT
ATOM      1  C   UNL     1      45.836   6.698  12.660  0.00  0.00    +0.000 C 
ENDROOT
BRANCH   1   2
ATOM      2  N   UNL     1      47.143   6.037  12.750  0.00  0.00    +0.000 N 
ATOM      3  H   UNL     1      47.906   6.659  12.495  0.00  0.00    +0.000 HD
BRANCH   2   7
ATOM      4  C   UNL     1      47.784   4.257  16.404  0.00  0.00    +0.000 A 
ATOM      5  C   UNL     1      48.391   5.463  16.091  0.00  0.00    +0.000 A 
ATOM      6  N   UNL     1      48.216   6.078  14.890  0.00  0.00    +0.000 NA
ATOM      7  C   UNL     1      47.416   5.455  14.000  0.00  0.00    +0.000 A 
ATOM      8  C   UNL     1      46.811   4.235  14.338  0.00  0.00    +0.000 A 
ATOM      9  N   UNL     1      46.978   3.597  15.528  0.00  0.00    +0.000 NA
BRANCH   4  11
ATOM     10  N   UNL     1      47.090   2.685  18.106  0.00  0.00    +0.000 N 
ATOM     11  C   UNL     1      47.995   3.647  17.744  0.00  0.00    +0.000 C 
ATOM     12  O   UNL     1      48.912   3.984  18.482  0.00  0.00    +0.000 OA
ATOM     13  H   UNL     1      47.162   2.250  19.015  0.00  0.00    +0.000 HD
ATOM     14  H   UNL     1      46.332   2.442  17.479  0.00  0.00    +0.000 HD
ENDBRANCH   4  11
ENDBRANCH   2   7
ENDBRANCH   1   2
BRANCH   1  15
ATOM     15  C   UNL     1      45.365   6.706  11.202  0.00  0.00    +0.000 C 
BRANCH  15  16
ATOM     16  C   UNL     1      45.002   5.328  10.709  0.00  0.00    +0.000 A 
ATOM     17  C   UNL     1      44.332   4.426  11.540  0.00  0.00    +0.000 A 
ATOM     18  C   UNL     1      44.022   3.145  11.084  0.00  0.00    +0.000 A 
ATOM     19  C   UNL     1      44.382   2.750   9.793  0.00  0.00    +0.000 A 
ATOM     20  C   UNL     1      45.034   3.640   8.939  0.00  0.00    +0.000 A 
ATOM     21  C   UNL     1      45.329   4.931   9.404  0.00  0.00    +0.000 A 
BRANCH  20  22
ATOM     22  N   UNL     1      45.411   3.306   7.621  0.00  0.00    +0.000 N 
ATOM     23  H   UNL     1      44.865   2.504   7.311  0.00  0.00    +0.000 HD
BRANCH  22  24
ATOM     24  C   UNL     1      46.752   3.286   7.115  0.00  0.00    +0.000 C 
ATOM     25  C   UNL     1      46.798   3.101   5.582  0.00  0.00    +0.000 C 
ATOM     26  C   UNL     1      47.796   1.950   5.780  0.00  0.00    +0.000 C 
ATOM     27  C   UNL     1      47.380   1.883   7.258  0.00  0.00    +0.000 C 
ENDBRANCH  22  24
ENDBRANCH  20  22
ENDBRANCH  15  16
ENDBRANCH   1  15
TORSDOF 7
ENDMDL
MODEL 3
REMARK VINA RESULT:    -7.302      2.087      4.004
REMARK INTER + INTRA:         -11.015
REMARK INTER:                 -10.141
REMARK INTRA:                  -0.874
REMARK UNBOUND:                -0.725
REMARK  Name = 
REMARK  7 active torsions:
REMARK  status: ('A' for Active; 'I' for Inactive)
REMARK    1  A    between atoms: C_2  and  C_4
REMARK    2  A    between atoms: C_7  and  N_8
REMARK    3  A    between atoms: N_8  and  C_9
REMARK    4  A    between atoms: C_9  and  C_10
REMARK    5  A    between atoms: C_10  and  C_11
REMARK    6  A    between atoms: C_15  and  N_16
REMARK    7  A    between atoms: N_16  and  C_17
REMARK                            x       y       z     vdW  Elec       q    Type
REMARK                         _______ _______ _______ _____ _____    ______ ____
ROOT
ATOM      1  C   UNL     1      43.444   5.127  10.637  0.00  0.00    +0.000 C 
ENDROOT
BRANCH   1   2
ATOM      2  N   UNL     1      43.659   3.681  10.508  0.00  0.00    +0.000 N 
ATOM      3  H   UNL     1      42.792   3.179  10.337  0.00  0.00    +0.000 HD
BRANCH   2   7
ATOM      4  C   UNL     1      46.372   2.746   7.560  0.00  0.00    +0.000 A 
ATOM      5  C   UNL     1      45.896   1.767   8.416  0.00  0.00    +0.000 A 
ATOM      6  N   UNL     1      45.009   2.035   9.411  0.00  0.00    +0.000 NA
ATOM      7  C   UNL     1      44.606   3.318   9.535  0.00  0.00    +0.000 A 
ATOM      8  C   UNL     1      45.101   4.293   8.657  0.00  0.00    +0.000 A 
ATOM      9  N   UNL     1      45.994   4.049   7.660  0.00  0.00    +0.000 NA
BRANCH   4  11
ATOM     10  N   UNL     1      47.342   3.228   5.398  0.00  0.00    +0.000 N 
ATOM     11  C   UNL     1      47.323   2.383   6.475  0.00  0.00    +0.000 C 
ATOM     12  O   UNL     1      48.038   1.392   6.532  0.00  0.00    +0.000 OA
ATOM     13  H   UNL     1      47.947   3.025   4.614  0.00  0.00    +0.000 HD
ATOM     14  H   UNL     1      46.724   4.031   5.374  0.00  0.00    +0.000 HD
ENDBRANCH   4  11
ENDBRANCH   2   7
ENDBRANCH   1   2
BRANCH   1  15
ATOM     15  C   UNL     1      43.595   5.539  12.106  0.00  0.00    +0.000 C 
BRANCH  15  16
ATOM     16  C   UNL     1      45.038   5.625  12.532  0.00  0.00    +0.000 A 
ATOM     17  C   UNL     1      45.549   4.759  13.502  0.00  0.00    +0.000 A 
ATOM     18  C   UNL     1      46.879   4.863  13.907  0.00  0.00    +0.000 A 
ATOM     19  C   UNL     1      47.713   5.837  13.352  0.00  0.00    +0.000 A 
ATOM     20  C   UNL     1      47.228   6.701  12.369  0.00  0.00    +0.000 A 
ATOM     21  C   UNL     1      45.893   6.579  11.958  0.00  0.00    +0.000 A 
BRANCH  20  22
ATOM     22  N   UNL     1      48.023   7.696  11.759  0.00  0.00    +0.000 N 
ATOM     23  H   UNL     1      48.839   7.258  11.335  0.00  0.00    +0.000 HD
BRANCH  22  24
ATOM     24  C   UNL     1      48.318   8.985  12.313  0.00  0.00    +0.000 C 
ATOM     25  C   UNL     1      47.187  10.006  12.058  0.00  0.00    +0.000 C 
ATOM     26  C   UNL     1      48.235  10.984  11.503  0.00  0.00    +0.000 C 
ATOM     27  C   UNL     1      49.214   9.808  11.362  0.00  0.00    +0.000 C 
ENDBRANCH  22  24
ENDBRANCH  20  22
ENDBRANCH  15  16
ENDBRANCH   1  15
TORSDOF 7
ENDMDL
MODEL 4
REMARK VINA RESULT:    -7.282      3.325      8.106
REMARK INTER + INTRA:         -10.988
REMARK INTER:                 -10.399
REMARK INTRA:                  -0.589
REMARK UNBOUND:                -0.725
REMARK  Name = 
REMARK  7 active torsions:
REMARK  status: ('A' for Active; 'I' for Inactive)
REMARK    1  A    between atoms: C_2  and  C_4
REMARK    2  A    between atoms: C_7  and  N_8
REMARK    3  A    between atoms: N_8  and  C_9
REMARK    4  A    between atoms: C_9  and  C_10
REMARK    5  A    between atoms: C_10  and  C_11
REMARK    6  A    between atoms: C_15  and  N_16
REMARK    7  A    between atoms: N_16  and  C_17
REMARK                            x       y       z     vdW  Elec       q    Type
REMARK                         _______ _______ _______ _____ _____    ______ ____
ROOT
ATOM      1  C   UNL     1      46.771   4.078  14.682  0.00  0.00    +0.000 C 
ENDROOT
BRANCH   1   2
ATOM      2  N   UNL     1      47.285   4.474  15.998  0.00  0.00    +0.000 N 
ATOM      3  H   UNL     1      46.579   4.394  16.725  0.00  0.00    +0.000 HD
BRANCH   2   7
ATOM      4  C   UNL     1      50.592   2.322  17.162  0.00  0.00    +0.000 A 
ATOM      5  C   UNL     1      50.417   3.629  17.586  0.00  0.00    +0.000 A 
ATOM      6  N   UNL     1      49.345   4.379  17.215  0.00  0.00    +0.000 NA
ATOM      7  C   UNL     1      48.445   3.790  16.399  0.00  0.00    +0.000 A 
ATOM      8  C   UNL     1      48.643   2.465  15.982  0.00  0.00    +0.000 A 
ATOM      9  N   UNL     1      49.710   1.699  16.335  0.00  0.00    +0.000 NA
BRANCH   4  11
ATOM     10  N   UNL     1      51.504   0.301  18.129  0.00  0.00    +0.000 N 
ATOM     11  C   UNL     1      51.774   1.545  17.625  0.00  0.00    +0.000 C 
ATOM     12  O   UNL     1      52.914   1.987  17.567  0.00  0.00    +0.000 OA
ATOM     13  H   UNL     1      52.259  -0.268  18.484  0.00  0.00    +0.000 HD
ATOM     14  H   UNL     1      50.547  -0.028  18.178  0.00  0.00    +0.000 HD
ENDBRANCH   4  11
ENDBRANCH   2   7
ENDBRANCH   1   2
BRANCH   1  15
ATOM     15  C   UNL     1      46.273   5.319  13.932  0.00  0.00    +0.000 C 
BRANCH  15  16
ATOM     16  C   UNL     1      45.185   4.991  12.941  0.00  0.00    +0.000 A 
ATOM     17  C   UNL     1      44.020   5.761  12.878  0.00  0.00    +0.000 A 
ATOM     18  C   UNL     1      43.009   5.436  11.975  0.00  0.00    +0.000 A 
ATOM     19  C   UNL     1      43.148   4.334  11.127  0.00  0.00    +0.000 A 
ATOM     20  C   UNL     1      44.311   3.562  11.159  0.00  0.00    +0.000 A 
ATOM     21  C   UNL     1      45.327   3.907  12.061  0.00  0.00    +0.000 A 
BRANCH  20  22
ATOM     22  N   UNL     1      44.518   2.447  10.319  0.00  0.00    +0.000 N 
ATOM     23  H   UNL     1      45.230   1.847  10.732  0.00  0.00    +0.000 HD
BRANCH  22  24
ATOM     24  C   UNL     1      44.590   2.481   8.888  0.00  0.00    +0.000 C 
ATOM     25  C   UNL     1      45.836   1.745   8.346  0.00  0.00    +0.000 C 
ATOM     26  C   UNL     1      46.172   2.989   7.511  0.00  0.00    +0.000 C 
ATOM     27  C   UNL     1      45.213   3.804   8.393  0.00  0.00    +0.000 C 
ENDBRANCH  22  24
ENDBRANCH  20  22
ENDBRANCH  15  16
ENDBRANCH   1  15
TORSDOF 7
ENDMDL
MODEL 5
REMARK VINA RESULT:    -6.995      1.625      2.070
REMARK INTER + INTRA:         -10.583
REMARK INTER:                  -9.980
REMARK INTRA:                  -0.603
REMARK UNBOUND:                -0.725
REMARK  Name = 
REMARK  7 active torsions:
REMARK  status: ('A' for Active; 'I' for Inactive)
REMARK    1  A    between atoms: C_2  and  C_4
REMARK    2  A    between atoms: C_7  and  N_8
REMARK    3  A    between atoms: N_8  and  C_9
REMARK    4  A    between atoms: C_9  and  C_10
REMARK    5  A    between atoms: C_10  and  C_11
REMARK    6  A    between atoms: C_15  and  N_16
REMARK    7  A    between atoms: N_16  and  C_17
REMARK                            x       y       z     vdW  Elec       q    Type
REMARK                         _______ _______ _______ _____ _____    ______ ____
ROOT
ATOM      1  C   UNL     1      44.360   4.944  11.369  0.00  0.00    +0.000 C 
ENDROOT
BRANCH   1   2
ATOM      2  N   UNL     1      43.895   4.778   9.986  0.00  0.00    +0.000 N 
ATOM      3  H   UNL     1      43.693   5.669   9.541  0.00  0.00    +0.000 HD
BRANCH   2   7
ATOM      4  C   UNL     1      46.446   2.483   7.716  0.00  0.00    +0.000 A 
ATOM      5  C   UNL     1      46.382   3.855   7.535  0.00  0.00    +0.000 A 
ATOM      6  N   UNL     1      45.544   4.648   8.255  0.00  0.00    +0.000 NA
ATOM      7  C   UNL     1      44.761   4.034   9.167  0.00  0.00    +0.000 A 
ATOM      8  C   UNL     1      44.843   2.644   9.334  0.00  0.00    +0.000 A 
ATOM      9  N   UNL     1      45.667   1.830   8.620  0.00  0.00    +0.000 NA
BRANCH   4  11
ATOM     10  N   UNL     1      48.493   2.350   6.435  0.00  0.00    +0.000 N 
ATOM     11  C   UNL     1      47.402   1.674   6.913  0.00  0.00    +0.000 C 
ATOM     12  O   UNL     1      47.228   0.484   6.687  0.00  0.00    +0.000 OA
ATOM     13  H   UNL     1      49.168   1.865   5.861  0.00  0.00    +0.000 HD
ATOM     14  H   UNL     1      48.599   3.340   6.626  0.00  0.00    +0.000 HD
ENDBRANCH   4  11
ENDBRANCH   2   7
ENDBRANCH   1   2
BRANCH   1  15
ATOM     15  C   UNL     1      43.950   6.327  11.885  0.00  0.00    +0.000 C 
BRANCH  15  16
ATOM     16  C   UNL     1      45.139   7.176  12.257  0.00  0.00    +0.000 A 
ATOM     17  C   UNL     1      45.200   8.522  11.885  0.00  0.00    +0.000 A 
ATOM     18  C   UNL     1      46.315   9.292  12.212  0.00  0.00    +0.000 A 
ATOM     19  C   UNL     1      47.384   8.725  12.912  0.00  0.00    +0.000 A 
ATOM     20  C   UNL     1      47.337   7.389  13.309  0.00  0.00    +0.000 A 
ATOM     21  C   UNL     1      46.204   6.627  12.987  0.00  0.00    +0.000 A 
BRANCH  20  22
ATOM     22  N   UNL     1      48.377   6.762  14.029  0.00  0.00    +0.000 N 
ATOM     23  H   UNL     1      48.345   5.758  13.854  0.00  0.00    +0.000 HD
BRANCH  22  24
ATOM     24  C   UNL     1      48.769   7.073  15.371  0.00  0.00    +0.000 C 
ATOM     25  C   UNL     1      50.302   7.028  15.560  0.00  0.00    +0.000 C 
ATOM     26  C   UNL     1      50.096   6.107  16.773  0.00  0.00    +0.000 C 
ATOM     27  C   UNL     1      48.666   5.831  16.284  0.00  0.00    +0.000 C 
ENDBRANCH  22  24
ENDBRANCH  20  22
ENDBRANCH  15  16
ENDBRANCH   1  15
TORSDOF 7
ENDMDL
MODEL 6
REMARK VINA RESULT:    -6.694      3.070      7.553
REMARK INTER + INTRA:         -10.159
REMARK INTER:                  -9.856
REMARK INTRA:                  -0.303
REMARK UNBOUND:                -0.725
REMARK  Name = 
REMARK  7 active torsions:
REMARK  status: ('A' for Active; 'I' for Inactive)
REMARK    1  A    between atoms: C_2  and  C_4
REMARK    2  A    between atoms: C_7  and  N_8
REMARK    3  A    between atoms: N_8  and  C_9
REMARK    4  A    between atoms: C_9  and  C_10
REMARK    5  A    between atoms: C_10  and  C_11
REMARK    6  A    between atoms: C_15  and  N_16
REMARK    7  A    between atoms: N_16  and  C_17
REMARK                            x       y       z     vdW  Elec       q    Type
REMARK                         _______ _______ _______ _____ _____    ______ ____
ROOT
ATOM      1  C   UNL     1      46.331   7.452  12.770  0.00  0.00    +0.000 C 
ENDROOT
BRANCH   1   2
ATOM      2  N   UNL     1      47.360   6.405  12.757  0.00  0.00    +0.000 N 
ATOM      3  H   UNL     1      48.249   6.746  12.398  0.00  0.00    +0.000 HD
BRANCH   2   7
ATOM      4  C   UNL     1      48.125   4.646  16.396  0.00  0.00    +0.000 A 
ATOM      5  C   UNL     1      47.313   4.018  15.466  0.00  0.00    +0.000 A 
ATOM      6  N   UNL     1      47.024   4.570  14.257  0.00  0.00    +0.000 NA
ATOM      7  C   UNL     1      47.568   5.778  13.996  0.00  0.00    +0.000 A 
ATOM      8  C   UNL     1      48.389   6.395  14.952  0.00  0.00    +0.000 A 
ATOM      9  N   UNL     1      48.684   5.865  16.170  0.00  0.00    +0.000 NA
BRANCH   4  11
ATOM     10  N   UNL     1      47.458   3.121  18.151  0.00  0.00    +0.000 N 
ATOM     11  C   UNL     1      48.423   3.977  17.691  0.00  0.00    +0.000 C 
ATOM     12  O   UNL     1      49.458   4.179  18.312  0.00  0.00    +0.000 OA
ATOM     13  H   UNL     1      47.585   2.655  19.037  0.00  0.00    +0.000 HD
ATOM     14  H   UNL     1      46.604   2.990  17.621  0.00  0.00    +0.000 HD
ENDBRANCH   4  11
ENDBRANCH   2   7
ENDBRANCH   1   2
BRANCH   1  15
ATOM     15  C   UNL     1      45.283   7.155  11.692  0.00  0.00    +0.000 C 
BRANCH  15  16
ATOM     16  C   UNL     1      44.695   5.774  11.829  0.00  0.00    +0.000 A 
ATOM     17  C   UNL     1      43.730   5.502  12.803  0.00  0.00    +0.000 A 
ATOM     18  C   UNL     1      43.209   4.216  12.939  0.00  0.00    +0.000 A 
ATOM     19  C   UNL     1      43.650   3.185  12.105  0.00  0.00    +0.000 A 
ATOM     20  C   UNL     1      44.599   3.437  11.113  0.00  0.00    +0.000 A 
ATOM     21  C   UNL     1      45.106   4.737  10.977  0.00  0.00    +0.000 A 
BRANCH  20  22
ATOM     22  N   UNL     1      45.074   2.442  10.232  0.00  0.00    +0.000 N 
ATOM     23  H   UNL     1      46.012   2.165  10.518  0.00  0.00    +0.000 HD
BRANCH  22  24
ATOM     24  C   UNL     1      44.910   2.440   8.808  0.00  0.00    +0.000 C 
ATOM     25  C   UNL     1      46.120   1.815   8.079  0.00  0.00    +0.000 C 
ATOM     26  C   UNL     1      46.188   3.061   7.184  0.00  0.00    +0.000 C 
ATOM     27  C   UNL     1      45.306   3.803   8.200  0.00  0.00    +0.000 C 
ENDBRANCH  22  24
ENDBRANCH  20  22
ENDBRANCH  15  16
ENDBRANCH   1  15
TORSDOF 7
ENDMDL
MODEL 7
REMARK VINA RESULT:    -6.509      3.681      7.237
REMARK INTER + INTRA:          -9.898
REMARK INTER:                  -9.138
REMARK INTRA:                  -0.760
REMARK UNBOUND:                -0.725
REMARK  Name = 
REMARK  7 active torsions:
REMARK  status: ('A' for Active; 'I' for Inactive)
REMARK    1  A    between atoms: C_2  and  C_4
REMARK    2  A    between atoms: C_7  and  N_8
REMARK    3  A    between atoms: N_8  and  C_9
REMARK    4  A    between atoms: C_9  and  C_10
REMARK    5  A    between atoms: C_10  and  C_11
REMARK    6  A    between atoms: C_15  and  N_16
REMARK    7  A    between atoms: N_16  and  C_17
REMARK                            x       y       z     vdW  Elec       q    Type
REMARK                         _______ _______ _______ _____ _____    ______ ____
ROOT
ATOM      1  C   UNL     1      47.112   5.892  13.803  0.00  0.00    +0.000 C 
ENDROOT
BRANCH   1   2
ATOM      2  N   UNL     1      47.226   6.463  12.456  0.00  0.00    +0.000 N 
ATOM      3  H   UNL     1      47.109   5.759  11.730  0.00  0.00    +0.000 HD
BRANCH   2   7
ATOM      4  C   UNL     1      44.635   9.534  11.572  0.00  0.00    +0.000 A 
ATOM      5  C   UNL     1      45.785   9.771  12.307  0.00  0.00    +0.000 A 
ATOM      6  N   UNL     1      46.661   8.783  12.632  0.00  0.00    +0.000 NA
ATOM      7  C   UNL     1      46.358   7.539  12.204  0.00  0.00    +0.000 A 
ATOM      8  C   UNL     1      45.188   7.322  11.460  0.00  0.00    +0.000 A 
ATOM      9  N   UNL     1      44.295   8.293  11.131  0.00  0.00    +0.000 NA
BRANCH   4  11
ATOM     10  N   UNL     1      42.743  10.930  12.139  0.00  0.00    +0.000 N 
ATOM     11  C   UNL     1      43.730  10.664  11.228  0.00  0.00    +0.000 C 
ATOM     12  O   UNL     1      43.850  11.312  10.197  0.00  0.00    +0.000 OA
ATOM     13  H   UNL     1      42.079  11.667  11.954  0.00  0.00    +0.000 HD
ATOM     14  H   UNL     1      42.660  10.363  12.975  0.00  0.00    +0.000 HD
ENDBRANCH   4  11
ENDBRANCH   2   7
ENDBRANCH   1   2
BRANCH   1  15
ATOM     15  C   UNL     1      46.797   4.396  13.702  0.00  0.00    +0.000 C 
BRANCH  15  16
ATOM     16  C   UNL     1      45.511   4.129  12.961  0.00  0.00    +0.000 A 
ATOM     17  C   UNL     1      44.308   4.696  13.392  0.00  0.00    +0.000 A 
ATOM     18  C   UNL     1      43.120   4.425  12.715  0.00  0.00    +0.000 A 
ATOM     19  C   UNL     1      43.119   3.579  11.602  0.00  0.00    +0.000 A 
ATOM     20  C   UNL     1      44.311   3.017  11.143  0.00  0.00    +0.000 A 
ATOM     21  C   UNL     1      45.503   3.308  11.823  0.00  0.00    +0.000 A 
BRANCH  20  22
ATOM     22  N   UNL     1      44.379   2.167  10.019  0.00  0.00    +0.000 N 
ATOM     23  H   UNL     1      44.951   1.355  10.248  0.00  0.00    +0.000 HD
BRANCH  22  24
ATOM     24  C   UNL     1      44.548   2.591   8.660  0.00  0.00    +0.000 C 
ATOM     25  C   UNL     1      45.970   2.306   8.129  0.00  0.00    +0.000 C 
ATOM     26  C   UNL     1      46.060   3.769   7.668  0.00  0.00    +0.000 C 
ATOM     27  C   UNL     1      44.870   4.099   8.584  0.00  0.00    +0.000 C 
ENDBRANCH  22  24
ENDBRANCH  20  22
ENDBRANCH  15  16
ENDBRANCH   1  15
TORSDOF 7
ENDMDL
MODEL 8
REMARK VINA RESULT:    -6.160      2.906      5.447
REMARK INTER + INTRA:          -9.406
REMARK INTER:                  -8.669
REMARK INTRA:                  -0.737
REMARK UNBOUND:                -0.725
REMARK  Name = 
REMARK  7 active torsions:
REMARK  status: ('A' for Active; 'I' for Inactive)
REMARK    1  A    between atoms: C_2  and  C_4
REMARK    2  A    between atoms: C_7  and  N_8
REMARK    3  A    between atoms: N_8  and  C_9
REMARK    4  A    between atoms: C_9  and  C_10
REMARK    5  A    between atoms: C_10  and  C_11
REMARK    6  A    between atoms: C_15  and  N_16
REMARK    7  A    between atoms: N_16  and  C_17
REMARK                            x       y       z     vdW  Elec       q    Type
REMARK                         _______ _______ _______ _____ _____    ______ ____
ROOT
ATOM      1  C   UNL     1      48.365   6.585  14.374  0.00  0.00    +0.000 C 
ENDROOT
BRANCH   1   2
ATOM      2  N   UNL     1      47.079   7.168  13.974  0.00  0.00    +0.000 N 
ATOM      3  H   UNL     1      47.190   8.086  13.551  0.00  0.00    +0.000 HD
BRANCH   2   7
ATOM      4  C   UNL     1      44.712   4.915  11.475  0.00  0.00    +0.000 A 
ATOM      5  C   UNL     1      45.504   4.306  12.434  0.00  0.00    +0.000 A 
ATOM      6  N   UNL     1      46.310   5.012  13.271  0.00  0.00    +0.000 NA
ATOM      7  C   UNL     1      46.310   6.354  13.125  0.00  0.00    +0.000 A 
ATOM      8  C   UNL     1      45.499   6.950  12.147  0.00  0.00    +0.000 A 
ATOM      9  N   UNL     1      44.692   6.263  11.295  0.00  0.00    +0.000 NA
BRANCH   4  11
ATOM     10  N   UNL     1      43.855   4.399   9.272  0.00  0.00    +0.000 N 
ATOM     11  C   UNL     1      43.832   4.087  10.606  0.00  0.00    +0.000 C 
ATOM     12  O   UNL     1      43.127   3.190  11.049  0.00  0.00    +0.000 OA
ATOM     13  H   UNL     1      43.262   3.893   8.631  0.00  0.00    +0.000 HD
ATOM     14  H   UNL     1      44.437   5.160   8.941  0.00  0.00    +0.000 HD
ENDBRANCH   4  11
ENDBRANCH   2   7
ENDBRANCH   1   2
BRANCH   1  15
ATOM     15  C   UNL     1      48.539   6.719  15.891  0.00  0.00    +0.000 C 
BRANCH  15  16
ATOM     16  C   UNL     1      48.509   5.384  16.592  0.00  0.00    +0.000 A 
ATOM     17  C   UNL     1      47.320   4.658  16.695  0.00  0.00    +0.000 A 
ATOM     18  C   UNL     1      47.298   3.436  17.367  0.00  0.00    +0.000 A 
ATOM     19  C   UNL     1      48.464   2.928  17.946  0.00  0.00    +0.000 A 
ATOM     20  C   UNL     1      49.667   3.627  17.839  0.00  0.00    +0.000 A 
ATOM     21  C   UNL     1      49.680   4.848  17.149  0.00  0.00    +0.000 A 
BRANCH  20  22
ATOM     22  N   UNL     1      50.879   3.161  18.390  0.00  0.00    +0.000 N 
ATOM     23  H   UNL     1      51.179   3.800  19.125  0.00  0.00    +0.000 HD
BRANCH  22  24
ATOM     24  C   UNL     1      51.981   2.622  17.649  0.00  0.00    +0.000 C 
ATOM     25  C   UNL     1      51.857   1.096  17.438  0.00  0.00    +0.000 C 
ATOM     26  C   UNL     1      53.286   0.934  17.979  0.00  0.00    +0.000 C 
ATOM     27  C   UNL     1      53.191   2.350  18.568  0.00  0.00    +0.000 C 
ENDBRANCH  22  24
ENDBRANCH  20  22
ENDBRANCH  15  16
ENDBRANCH   1  15
TORSDOF 7
ENDMDL
MODEL 9
REMARK VINA RESULT:    -5.968      3.489      7.469
REMARK INTER + INTRA:          -9.136
REMARK INTER:                  -8.375
REMARK INTRA:                  -0.761
REMARK UNBOUND:                -0.725
REMARK  Name = 
REMARK  7 active torsions:
REMARK  status: ('A' for Active; 'I' for Inactive)
REMARK    1  A    between atoms: C_2  and  C_4
REMARK    2  A    between atoms: C_7  and  N_8
REMARK    3  A    between atoms: N_8  and  C_9
REMARK    4  A    between atoms: C_9  and  C_10
REMARK    5  A    between atoms: C_10  and  C_11
REMARK    6  A    between atoms: C_15  and  N_16
REMARK    7  A    between atoms: N_16  and  C_17
REMARK                            x       y       z     vdW  Elec       q    Type
REMARK                         _______ _______ _______ _____ _____    ______ ____
ROOT
ATOM      1  C   UNL     1      49.702   7.289  13.199  0.00  0.00    +0.000 C 
ENDROOT
BRANCH   1   2
ATOM      2  N   UNL     1      48.894   7.669  14.364  0.00  0.00    +0.000 N 
ATOM      3  H   UNL     1      48.073   8.208  14.102  0.00  0.00    +0.000 HD
BRANCH   2   7
ATOM      4  C   UNL     1      47.891   4.543  16.844  0.00  0.00    +0.000 A 
ATOM      5  C   UNL     1      47.514   4.534  15.511  0.00  0.00    +0.000 A 
ATOM      6  N   UNL     1      47.814   5.552  14.661  0.00  0.00    +0.000 NA
ATOM      7  C   UNL     1      48.503   6.592  15.178  0.00  0.00    +0.000 A 
ATOM      8  C   UNL     1      48.874   6.580  16.530  0.00  0.00    +0.000 A 
ATOM      9  N   UNL     1      48.578   5.577  17.401  0.00  0.00    +0.000 NA
BRANCH   4  11
ATOM     10  N   UNL     1      48.436   3.135  18.733  0.00  0.00    +0.000 N 
ATOM     11  C   UNL     1      47.553   3.386  17.717  0.00  0.00    +0.000 C 
ATOM     12  O   UNL     1      46.558   2.697  17.539  0.00  0.00    +0.000 OA
ATOM     13  H   UNL     1      48.280   2.348  19.347  0.00  0.00    +0.000 HD
ATOM     14  H   UNL     1      49.261   3.715  18.842  0.00  0.00    +0.000 HD
ENDBRANCH   4  11
ENDBRANCH   2   7
ENDBRANCH   1   2
BRANCH   1  15
ATOM     15  C   UNL     1      49.161   7.991  11.949  0.00  0.00    +0.000 C 
BRANCH  15  16
ATOM     16  C   UNL     1      47.655   7.982  11.892  0.00  0.00    +0.000 A 
ATOM     17  C   UNL     1      46.919   9.111  12.260  0.00  0.00    +0.000 A 
ATOM     18  C   UNL     1      45.525   9.085  12.227  0.00  0.00    +0.000 A 
ATOM     19  C   UNL     1      44.850   7.927  11.830  0.00  0.00    +0.000 A 
ATOM     20  C   UNL     1      45.565   6.793  11.441  0.00  0.00    +0.000 A 
ATOM     21  C   UNL     1      46.967   6.836  11.464  0.00  0.00    +0.000 A 
BRANCH  20  22
ATOM     22  N   UNL     1      44.943   5.599  11.017  0.00  0.00    +0.000 N 
ATOM     23  H   UNL     1      44.170   5.829  10.395  0.00  0.00    +0.000 HD
BRANCH  22  24
ATOM     24  C   UNL     1      44.662   4.464  11.846  0.00  0.00    +0.000 C 
ATOM     25  C   UNL     1      44.738   3.134  11.065  0.00  0.00    +0.000 C 
ATOM     26  C   UNL     1      43.350   2.766  11.613  0.00  0.00    +0.000 C 
ATOM     27  C   UNL     1      43.141   4.242  11.988  0.00  0.00    +0.000 C 
ENDBRANCH  22  24
ENDBRANCH  20  22
ENDBRANCH  15  16
ENDBRANCH   1  15
TORSDOF 7
ENDMDL
