MODEL 1
REMARK VINA RESULT:    -8.533      0.000      0.000
REMARK INTER + INTRA:         -12.081
REMARK INTER:                 -11.027
REMARK INTRA:                  -1.054
REMARK UNBOUND:                -1.054
REMARK  Name = 
REMARK  6 active torsions:
REMARK  status: ('A' for Active; 'I' for Inactive)
REMARK    1  A    between atoms: C_1  and  C_2
REMARK    2  A    between atoms: C_6  and  C_7
REMARK    3  A    between atoms: C_7  and  N_8
REMARK    4  A    between atoms: C_12  and  C_13
REMARK    5  A    between atoms: C_13  and  N_14
REMARK    6  A    between atoms: C_15  and  C_17
REMARK                            x       y       z     vdW  Elec       q    Type
REMARK                         _______ _______ _______ _____ _____    ______ ____
ROOT
ATOM      1  N   UNL     1      44.080   4.063   9.999  0.00  0.00    +0.000 N 
ATOM      2  C   UNL     1      44.721   5.044  10.777  0.00  0.00    +0.000 A 
ATOM      3  C   UNL     1      44.230   5.288  12.058  0.00  0.00    +0.000 A 
ATOM      4  C   UNL     1      44.872   6.217  12.875  0.00  0.00    +0.000 A 
ATOM      5  C   UNL     1      46.033   6.838  12.425  0.00  0.00    +0.000 A 
ATOM      6  C   UNL     1      46.457   6.528  11.140  0.00  0.00    +0.000 A 
ATOM      7  N   UNL     1      45.828   5.658  10.318  0.00  0.00    +0.000 NA
ATOM      8  H   UNL     1      44.443   3.162  10.312  0.00  0.00    +0.000 HD
ENDROOT
BRANCH   1   9
ATOM      9  C   UNL     1      44.323   4.230   8.563  0.00  0.00    +0.000 C 
BRANCH   9  15
ATOM     10  C   UNL     1      47.554   2.926   5.148  0.00  0.00    +0.000 C 
ATOM     11  C   UNL     1      46.839   2.560   6.411  0.00  0.00    +0.000 A 
ATOM     12  C   UNL     1      47.035   1.321   7.014  0.00  0.00    +0.000 A 
ATOM     13  C   UNL     1      46.326   1.021   8.171  0.00  0.00    +0.000 A 
ATOM     14  C   UNL     1      45.439   1.962   8.696  0.00  0.00    +0.000 A 
ATOM     15  C   UNL     1      45.297   3.185   8.044  0.00  0.00    +0.000 A 
ATOM     16  N   UNL     1      45.987   3.487   6.915  0.00  0.00    +0.000 NA
ENDBRANCH   9  15
ENDBRANCH   1   9
BRANCH   5  17
ATOM     17  C   UNL     1      46.779   7.822  13.272  0.00  0.00    +0.000 C 
BRANCH  17  18
ATOM     18  N   UNL     1      47.325   7.197  14.447  0.00  0.00    +0.000 N 
ATOM     19  C   UNL     1      48.606   6.717  14.523  0.00  0.00    +0.000 C 
ATOM     20  O   UNL     1      49.396   6.794  13.586  0.00  0.00    +0.000 OA
ATOM     21  H   UNL     1      46.656   6.922  15.157  0.00  0.00    +0.000 HD
BRANCH  19  22
ATOM     22  C   UNL     1      49.007   6.184  15.832  0.00  0.00    +0.000 A 
ATOM     23  C   UNL     1      50.018   6.806  16.552  0.00  0.00    +0.000 A 
ATOM     24  S   UNL     1      50.287   6.114  18.088  0.00  0.00    +0.000 S 
ATOM     25  C   UNL     1      49.099   4.925  17.824  0.00  0.00    +0.000 A 
ATOM     26  N   UNL     1      48.822   3.988  18.769  0.00  0.00    +0.000 NA
ATOM     27  C   UNL     1      47.925   3.126  18.422  0.00  0.00    +0.000 A 
ATOM     28  N   UNL     1      47.280   3.117  17.215  0.00  0.00    +0.000 N 
ATOM     29  C   UNL     1      47.484   4.076  16.251  0.00  0.00    +0.000 A 
ATOM     30  O   UNL     1      46.815   4.095  15.225  0.00  0.00    +0.000 OA
ATOM     31  C   UNL     1      48.500   5.058  16.584  0.00  0.00    +0.000 A 
ATOM     32  H   UNL     1      46.575   2.424  17.007  0.00  0.00    +0.000 HD
ENDBRANCH  19  22
ENDBRANCH  17  18
ENDBRANCH   5  17
TORSDOF 5
ENDMDL
MODEL 2
REMARK VINA RESULT:    -7.774      1.810      2.355
REMARK INTER + INTRA:         -11.100
REMARK INTER:                 -10.310
REMARK INTRA:                  -0.789
REMARK UNBOUND:                -1.054
REMARK  Name = 
REMARK  6 active torsions:
REMARK  status: ('A' for Active; 'I' for Inactive)
REMARK    1  A    between atoms: C_1  and  C_2
REMARK    2  A    between atoms: C_6  and  C_7
REMARK    3  A    between atoms: C_7  and  N_8
REMARK    4  A    between atoms: C_12  and  C_13
REMARK    5  A    between atoms: C_13  and  N_14
REMARK    6  A    between atoms: C_15  and  C_17
REMARK                            x       y       z     vdW  Elec       q    Type
REMARK                         _______ _______ _______ _____ _____    ______ ____
ROOT
ATOM      1  N   UNL     1      44.979   3.089  11.061  0.00  0.00    +0.000 N 
ATOM      2  C   UNL     1      45.126   4.420  11.494  0.00  0.00    +0.000 A 
ATOM      3  C   UNL     1      45.293   4.652  12.857  0.00  0.00    +0.000 A 
ATOM      4  C   UNL     1      45.492   5.953  13.314  0.00  0.00    +0.000 A 
ATOM      5  C   UNL     1      45.587   6.994  12.396  0.00  0.00    +0.000 A 
ATOM      6  C   UNL     1      45.419   6.672  11.056  0.00  0.00    +0.000 A 
ATOM      7  N   UNL     1      45.188   5.421  10.596  0.00  0.00    +0.000 NA
ATOM      8  H   UNL     1      45.919   2.695  11.015  0.00  0.00    +0.000 HD
ENDROOT
BRANCH   1   9
ATOM      9  C   UNL     1      44.327   2.986   9.753  0.00  0.00    +0.000 C 
BRANCH   9  15
ATOM     10  C   UNL     1      46.893  -0.605   7.674  0.00  0.00    +0.000 C 
ATOM     11  C   UNL     1      46.543   0.851   7.684  0.00  0.00    +0.000 A 
ATOM     12  C   UNL     1      47.136   1.738   6.792  0.00  0.00    +0.000 A 
ATOM     13  C   UNL     1      46.795   3.083   6.861  0.00  0.00    +0.000 A 
ATOM     14  C   UNL     1      45.874   3.510   7.819  0.00  0.00    +0.000 A 
ATOM     15  C   UNL     1      45.314   2.565   8.677  0.00  0.00    +0.000 A 
ATOM     16  N   UNL     1      45.640   1.250   8.614  0.00  0.00    +0.000 NA
ENDBRANCH   9  15
ENDBRANCH   1   9
BRANCH   5  17
ATOM     17  C   UNL     1      45.829   8.407  12.829  0.00  0.00    +0.000 C 
BRANCH  17  18
ATOM     18  N   UNL     1      46.570   8.460  14.060  0.00  0.00    +0.000 N 
ATOM     19  C   UNL     1      47.939   8.450  14.120  0.00  0.00    +0.000 C 
ATOM     20  O   UNL     1      48.643   8.405  13.116  0.00  0.00    +0.000 OA
ATOM     21  H   UNL     1      46.042   8.284  14.907  0.00  0.00    +0.000 HD
BRANCH  19  22
ATOM     22  C   UNL     1      48.515   8.591  15.465  0.00  0.00    +0.000 A 
ATOM     23  C   UNL     1      48.745   9.856  15.990  0.00  0.00    +0.000 A 
ATOM     24  S   UNL     1      49.327   9.833  17.594  0.00  0.00    +0.000 S 
ATOM     25  C   UNL     1      49.343   8.132  17.625  0.00  0.00    +0.000 A 
ATOM     26  N   UNL     1      49.749   7.454  18.731  0.00  0.00    +0.000 NA
ATOM     27  C   UNL     1      49.745   6.169  18.603  0.00  0.00    +0.000 A 
ATOM     28  N   UNL     1      49.371   5.501  17.469  0.00  0.00    +0.000 N 
ATOM     29  C   UNL     1      48.901   6.139  16.346  0.00  0.00    +0.000 A 
ATOM     30  O   UNL     1      48.479   5.505  15.386  0.00  0.00    +0.000 OA
ATOM     31  C   UNL     1      48.904   7.588  16.431  0.00  0.00    +0.000 A 
ATOM     32  H   UNL     1      49.376   4.491  17.434  0.00  0.00    +0.000 HD
ENDBRANCH  19  22
ENDBRANCH  17  18
ENDBRANCH   5  17
TORSDOF 5
ENDMDL
MODEL 3
REMARK VINA RESULT:    -7.726      1.845      2.311
REMARK INTER + INTRA:         -11.039
REMARK INTER:                 -10.451
REMARK INTRA:                  -0.588
REMARK UNBOUND:                -1.054
REMARK  Name = 
REMARK  6 active torsions:
REMARK  status: ('A' for Active; 'I' for Inactive)
REMARK    1  A    between atoms: C_1  and  C_2
REMARK    2  A    between atoms: C_6  and  C_7
REMARK    3  A    between atoms: C_7  and  N_8
REMARK    4  A    between atoms: C_12  and  C_13
REMARK    5  A    between atoms: C_13  and  N_14
REMARK    6  A    between atoms: C_15  and  C_17
REMARK                            x       y       z     vdW  Elec       q    Type
REMARK                         _______ _______ _______ _____ _____    ______ ____
ROOT
ATOM      1  N   UNL     1      45.170   2.935  11.791  0.00  0.00    +0.000 N 
ATOM      2  C   UNL     1      45.810   4.052  12.358  0.00  0.00    +0.000 A 
ATOM      3  C   UNL     1      46.222   3.968  13.686  0.00  0.00    +0.000 A 
ATOM      4  C   UNL     1      46.905   5.037  14.264  0.00  0.00    +0.000 A 
ATOM      5  C   UNL     1      47.222   6.147  13.487  0.00  0.00    +0.000 A 
ATOM      6  C   UNL     1      46.782   6.142  12.170  0.00  0.00    +0.000 A 
ATOM      7  N   UNL     1      46.087   5.131  11.602  0.00  0.00    +0.000 NA
ATOM      8  H   UNL     1      45.908   2.284  11.523  0.00  0.00    +0.000 HD
ENDROOT
BRANCH   1   9
ATOM      9  C   UNL     1      44.356   3.281  10.623  0.00  0.00    +0.000 C 
BRANCH   9  15
ATOM     10  C   UNL     1      46.734   0.170   7.713  0.00  0.00    +0.000 C 
ATOM     11  C   UNL     1      46.263   1.572   7.941  0.00  0.00    +0.000 A 
ATOM     12  C   UNL     1      46.568   2.587   7.040  0.00  0.00    +0.000 A 
ATOM     13  C   UNL     1      46.128   3.877   7.312  0.00  0.00    +0.000 A 
ATOM     14  C   UNL     1      45.399   4.122   8.475  0.00  0.00    +0.000 A 
ATOM     15  C   UNL     1      45.124   3.057   9.331  0.00  0.00    +0.000 A 
ATOM     16  N   UNL     1      45.547   1.794   9.071  0.00  0.00    +0.000 NA
ENDBRANCH   9  15
ENDBRANCH   1   9
BRANCH   5  17
ATOM     17  C   UNL     1      47.979   7.311  14.048  0.00  0.00    +0.000 C 
BRANCH  17  18
ATOM     18  N   UNL     1      48.115   7.211  15.476  0.00  0.00    +0.000 N 
ATOM     19  C   UNL     1      49.286   6.875  16.103  0.00  0.00    +0.000 C 
ATOM     20  O   UNL     1      50.321   6.641  15.486  0.00  0.00    +0.000 OA
ATOM     21  H   UNL     1      47.251   7.185  16.005  0.00  0.00    +0.000 HD
BRANCH  19  22
ATOM     22  C   UNL     1      49.249   6.902  17.571  0.00  0.00    +0.000 A 
ATOM     23  C   UNL     1      49.448   8.099  18.247  0.00  0.00    +0.000 A 
ATOM     24  S   UNL     1      49.277   7.965  19.939  0.00  0.00    +0.000 S 
ATOM     25  C   UNL     1      48.984   6.292  19.834  0.00  0.00    +0.000 A 
ATOM     26  N   UNL     1      48.756   5.548  20.949  0.00  0.00    +0.000 NA
ATOM     27  C   UNL     1      48.586   4.287  20.726  0.00  0.00    +0.000 A 
ATOM     28  N   UNL     1      48.623   3.703  19.489  0.00  0.00    +0.000 N 
ATOM     29  C   UNL     1      48.793   4.421  18.328  0.00  0.00    +0.000 A 
ATOM     30  O   UNL     1      48.719   3.879  17.232  0.00  0.00    +0.000 OA
ATOM     31  C   UNL     1      49.010   5.843  18.526  0.00  0.00    +0.000 A 
ATOM     32  H   UNL     1      48.468   2.712  19.377  0.00  0.00    +0.000 HD
ENDBRANCH  19  22
ENDBRANCH  17  18
ENDBRANCH   5  17
TORSDOF 5
ENDMDL
MODEL 4
REMARK VINA RESULT:    -7.465      1.930      2.412
REMARK INTER + INTRA:         -10.701
REMARK INTER:                 -10.094
REMARK INTRA:                  -0.607
REMARK UNBOUND:                -1.054
REMARK  Name = 
REMARK  6 active torsions:
REMARK  status: ('A' for Active; 'I' for Inactive)
REMARK    1  A    between atoms: C_1  and  C_2
REMARK    2  A    between atoms: C_6  and  C_7
REMARK    3  A    between atoms: C_7  and  N_8
REMARK    4  A    between atoms: C_12  and  C_13
REMARK    5  A    between atoms: C_13  and  N_14
REMARK    6  A    between atoms: C_15  and  C_17
REMARK                            x       y       z     vdW  Elec       q    Type
REMARK                         _______ _______ _______ _____ _____    ______ ____
ROOT
ATOM      1  N   UNL     1      44.883   2.973  11.311  0.00  0.00    +0.000 N 
ATOM      2  C   UNL     1      45.475   4.100  11.910  0.00  0.00    +0.000 A 
ATOM      3  C   UNL     1      45.702   4.070  13.284  0.00  0.00    +0.000 A 
ATOM      4  C   UNL     1      46.333   5.148  13.901  0.00  0.00    +0.000 A 
ATOM      5  C   UNL     1      46.786   6.211  13.126  0.00  0.00    +0.000 A 
ATOM      6  C   UNL     1      46.527   6.154  11.763  0.00  0.00    +0.000 A 
ATOM      7  N   UNL     1      45.884   5.134  11.151  0.00  0.00    +0.000 NA
ATOM      8  H   UNL     1      45.630   2.292  11.175  0.00  0.00    +0.000 HD
ENDROOT
BRANCH   1   9
ATOM      9  C   UNL     1      44.244   3.282  10.029  0.00  0.00    +0.000 C 
BRANCH   9  15
ATOM     10  C   UNL     1      46.821  -0.130   7.680  0.00  0.00    +0.000 C 
ATOM     11  C   UNL     1      46.386   1.301   7.741  0.00  0.00    +0.000 A 
ATOM     12  C   UNL     1      46.841   2.229   6.810  0.00  0.00    +0.000 A 
ATOM     13  C   UNL     1      46.427   3.551   6.927  0.00  0.00    +0.000 A 
ATOM     14  C   UNL     1      45.574   3.913   7.969  0.00  0.00    +0.000 A 
ATOM     15  C   UNL     1      45.152   2.930   8.863  0.00  0.00    +0.000 A 
ATOM     16  N   UNL     1      45.549   1.637   8.754  0.00  0.00    +0.000 NA
ENDBRANCH   9  15
ENDBRANCH   1   9
BRANCH   5  17
ATOM     17  C   UNL     1      47.497   7.382  13.733  0.00  0.00    +0.000 C 
BRANCH  17  18
ATOM     18  N   UNL     1      48.749   6.990  14.321  0.00  0.00    +0.000 N 
ATOM     19  C   UNL     1      49.171   7.411  15.554  0.00  0.00    +0.000 C 
ATOM     20  O   UNL     1      48.499   8.156  16.262  0.00  0.00    +0.000 OA
ATOM     21  H   UNL     1      49.420   6.558  13.695  0.00  0.00    +0.000 HD
BRANCH  19  22
ATOM     22  C   UNL     1      50.442   6.840  16.019  0.00  0.00    +0.000 A 
ATOM     23  C   UNL     1      51.645   7.394  15.599  0.00  0.00    +0.000 A 
ATOM     24  S   UNL     1      53.015   6.669  16.310  0.00  0.00    +0.000 S 
ATOM     25  C   UNL     1      52.054   5.554  17.163  0.00  0.00    +0.000 A 
ATOM     26  N   UNL     1      52.616   4.623  17.978  0.00  0.00    +0.000 NA
ATOM     27  C   UNL     1      51.773   3.818  18.534  0.00  0.00    +0.000 A 
ATOM     28  N   UNL     1      50.417   3.861  18.348  0.00  0.00    +0.000 N 
ATOM     29  C   UNL     1      49.798   4.818  17.579  0.00  0.00    +0.000 A 
ATOM     30  O   UNL     1      48.577   4.888  17.517  0.00  0.00    +0.000 OA
ATOM     31  C   UNL     1      50.706   5.736  16.915  0.00  0.00    +0.000 A 
ATOM     32  H   UNL     1      49.806   3.212  18.823  0.00  0.00    +0.000 HD
ENDBRANCH  19  22
ENDBRANCH  17  18
ENDBRANCH   5  17
TORSDOF 5
ENDMDL
MODEL 5
REMARK VINA RESULT:    -7.153      3.512      5.696
REMARK INTER + INTRA:         -10.297
REMARK INTER:                  -9.428
REMARK INTRA:                  -0.869
REMARK UNBOUND:                -1.054
REMARK  Name = 
REMARK  6 active torsions:
REMARK  status: ('A' for Active; 'I' for Inactive)
REMARK    1  A    between atoms: C_1  and  C_2
REMARK    2  A    between atoms: C_6  and  C_7
REMARK    3  A    between atoms: C_7  and  N_8
REMARK    4  A    between atoms: C_12  and  C_13
REMARK    5  A    between atoms: C_13  and  N_14
REMARK    6  A    between atoms: C_15  and  C_17
REMARK                            x       y       z     vdW  Elec       q    Type
REMARK                         _______ _______ _______ _____ _____    ______ ____
ROOT
ATOM      1  N   UNL     1      44.523   3.003  10.766  0.00  0.00    +0.000 N 
ATOM      2  C   UNL     1      45.115   4.021  11.536  0.00  0.00    +0.000 A 
ATOM      3  C   UNL     1      45.054   3.915  12.923  0.00  0.00    +0.000 A 
ATOM      4  C   UNL     1      45.674   4.879  13.716  0.00  0.00    +0.000 A 
ATOM      5  C   UNL     1      46.402   5.898  13.110  0.00  0.00    +0.000 A 
ATOM      6  C   UNL     1      46.421   5.921  11.722  0.00  0.00    +0.000 A 
ATOM      7  N   UNL     1      45.794   5.017  10.936  0.00  0.00    +0.000 NA
ATOM      8  H   UNL     1      45.193   2.234  10.739  0.00  0.00    +0.000 HD
ENDROOT
BRANCH   1   9
ATOM      9  C   UNL     1      44.201   3.437   9.404  0.00  0.00    +0.000 C 
BRANCH   9  15
ATOM     10  C   UNL     1      46.860  -0.294   7.727  0.00  0.00    +0.000 C 
ATOM     11  C   UNL     1      46.508   1.156   7.608  0.00  0.00    +0.000 A 
ATOM     12  C   UNL     1      47.139   1.973   6.675  0.00  0.00    +0.000 A 
ATOM     13  C   UNL     1      46.793   3.318   6.624  0.00  0.00    +0.000 A 
ATOM     14  C   UNL     1      45.831   3.814   7.504  0.00  0.00    +0.000 A 
ATOM     15  C   UNL     1      45.235   2.937   8.408  0.00  0.00    +0.000 A 
ATOM     16  N   UNL     1      45.565   1.622   8.463  0.00  0.00    +0.000 NA
ENDBRANCH   9  15
ENDBRANCH   1   9
BRANCH   5  17
ATOM     17  C   UNL     1      47.113   6.943  13.913  0.00  0.00    +0.000 C 
BRANCH  17  18
ATOM     18  N   UNL     1      46.740   8.269  13.498  0.00  0.00    +0.000 N 
ATOM     19  C   UNL     1      47.504   9.045  12.668  0.00  0.00    +0.000 C 
ATOM     20  O   UNL     1      48.573   8.661  12.204  0.00  0.00    +0.000 OA
ATOM     21  H   UNL     1      45.986   8.703  14.018  0.00  0.00    +0.000 HD
BRANCH  19  22
ATOM     22  C   UNL     1      46.918  10.340  12.293  0.00  0.00    +0.000 A 
ATOM     23  C   UNL     1      47.665  11.502  12.426  0.00  0.00    +0.000 A 
ATOM     24  S   UNL     1      46.866  12.897  11.855  0.00  0.00    +0.000 S 
ATOM     25  C   UNL     1      45.472  12.005  11.458  0.00  0.00    +0.000 A 
ATOM     26  N   UNL     1      44.382  12.610  10.917  0.00  0.00    +0.000 NA
ATOM     27  C   UNL     1      43.383  11.821  10.700  0.00  0.00    +0.000 A 
ATOM     28  N   UNL     1      43.376  10.481  10.975  0.00  0.00    +0.000 N 
ATOM     29  C   UNL     1      44.472   9.813  11.470  0.00  0.00    +0.000 A 
ATOM     30  O   UNL     1      44.463   8.596  11.609  0.00  0.00    +0.000 OA
ATOM     31  C   UNL     1      45.617  10.661  11.751  0.00  0.00    +0.000 A 
ATOM     32  H   UNL     1      42.568   9.911  10.770  0.00  0.00    +0.000 HD
ENDBRANCH  19  22
ENDBRANCH  17  18
ENDBRANCH   5  17
TORSDOF 5
ENDMDL
MODEL 6
REMARK VINA RESULT:    -7.145      2.890      8.510
REMARK INTER + INTRA:         -10.288
REMARK INTER:                  -9.241
REMARK INTRA:                  -1.046
REMARK UNBOUND:                -1.054
REMARK  Name = 
REMARK  6 active torsions:
REMARK  status: ('A' for Active; 'I' for Inactive)
REMARK    1  A    between atoms: C_1  and  C_2
REMARK    2  A    between atoms: C_6  and  C_7
REMARK    3  A    between atoms: C_7  and  N_8
REMARK    4  A    between atoms: C_12  and  C_13
REMARK    5  A    between atoms: C_13  and  N_14
REMARK    6  A    between atoms: C_15  and  C_17
REMARK                            x       y       z     vdW  Elec       q    Type
REMARK                         _______ _______ _______ _____ _____    ______ ____
ROOT
ATOM      1  N   UNL     1      50.274   7.866  16.914  0.00  0.00    +0.000 N 
ATOM      2  C   UNL     1      49.537   7.797  15.718  0.00  0.00    +0.000 A 
ATOM      3  C   UNL     1      48.450   8.655  15.567  0.00  0.00    +0.000 A 
ATOM      4  C   UNL     1      47.728   8.649  14.374  0.00  0.00    +0.000 A 
ATOM      5  C   UNL     1      48.145   7.834  13.327  0.00  0.00    +0.000 A 
ATOM      6  C   UNL     1      49.245   7.019  13.560  0.00  0.00    +0.000 A 
ATOM      7  N   UNL     1      49.935   6.983  14.722  0.00  0.00    +0.000 NA
ATOM      8  H   UNL     1      50.909   8.658  16.817  0.00  0.00    +0.000 HD
ENDROOT
BRANCH   1   9
ATOM      9  C   UNL     1      51.034   6.642  17.183  0.00  0.00    +0.000 C 
BRANCH   9  15
ATOM     10  C   UNL     1      49.300   2.107  16.700  0.00  0.00    +0.000 C 
ATOM     11  C   UNL     1      49.303   3.377  17.493  0.00  0.00    +0.000 A 
ATOM     12  C   UNL     1      48.488   3.528  18.610  0.00  0.00    +0.000 A 
ATOM     13  C   UNL     1      48.509   4.736  19.295  0.00  0.00    +0.000 A 
ATOM     14  C   UNL     1      49.339   5.765  18.847  0.00  0.00    +0.000 A 
ATOM     15  C   UNL     1      50.134   5.543  17.724  0.00  0.00    +0.000 A 
ATOM     16  N   UNL     1      50.121   4.365  17.051  0.00  0.00    +0.000 NA
ENDBRANCH   9  15
ENDBRANCH   1   9
BRANCH   5  17
ATOM     17  C   UNL     1      47.426   7.808  12.013  0.00  0.00    +0.000 C 
BRANCH  17  18
ATOM     18  N   UNL     1      46.740   6.560  11.813  0.00  0.00    +0.000 N 
ATOM     19  C   UNL     1      45.383   6.416  11.928  0.00  0.00    +0.000 C 
ATOM     20  O   UNL     1      44.640   7.353  12.205  0.00  0.00    +0.000 OA
ATOM     21  H   UNL     1      47.321   5.730  11.796  0.00  0.00    +0.000 HD
BRANCH  19  22
ATOM     22  C   UNL     1      44.858   5.081  11.609  0.00  0.00    +0.000 A 
ATOM     23  C   UNL     1      44.146   4.370  12.566  0.00  0.00    +0.000 A 
ATOM     24  S   UNL     1      43.530   2.885  11.994  0.00  0.00    +0.000 S 
ATOM     25  C   UNL     1      44.237   3.115  10.464  0.00  0.00    +0.000 A 
ATOM     26  N   UNL     1      44.094   2.189   9.479  0.00  0.00    +0.000 NA
ATOM     27  C   UNL     1      44.713   2.474   8.382  0.00  0.00    +0.000 A 
ATOM     28  N   UNL     1      45.462   3.602   8.181  0.00  0.00    +0.000 N 
ATOM     29  C   UNL     1      45.590   4.593   9.126  0.00  0.00    +0.000 A 
ATOM     30  O   UNL     1      46.183   5.635   8.875  0.00  0.00    +0.000 OA
ATOM     31  C   UNL     1      44.928   4.311  10.387  0.00  0.00    +0.000 A 
ATOM     32  H   UNL     1      45.912   3.777   7.294  0.00  0.00    +0.000 HD
ENDBRANCH  19  22
ENDBRANCH  17  18
ENDBRANCH   5  17
TORSDOF 5
ENDMDL
MODEL 7
REMARK VINA RESULT:    -7.066      3.419      8.252
REMARK INTER + INTRA:         -10.185
REMARK INTER:                  -9.456
REMARK INTRA:                  -0.729
REMARK UNBOUND:                -1.054
REMARK  Name = 
REMARK  6 active torsions:
REMARK  status: ('A' for Active; 'I' for Inactive)
REMARK    1  A    between atoms: C_1  and  C_2
REMARK    2  A    between atoms: C_6  and  C_7
REMARK    3  A    between atoms: C_7  and  N_8
REMARK    4  A    between atoms: C_12  and  C_13
REMARK    5  A    between atoms: C_13  and  N_14
REMARK    6  A    between atoms: C_15  and  C_17
REMARK                            x       y       z     vdW  Elec       q    Type
REMARK                         _______ _______ _______ _____ _____    ______ ____
ROOT
ATOM      1  N   UNL     1      51.009   6.528  16.675  0.00  0.00    +0.000 N 
ATOM      2  C   UNL     1      50.284   6.950  15.545  0.00  0.00    +0.000 A 
ATOM      3  C   UNL     1      50.781   8.023  14.810  0.00  0.00    +0.000 A 
ATOM      4  C   UNL     1      50.116   8.434  13.656  0.00  0.00    +0.000 A 
ATOM      5  C   UNL     1      49.002   7.724  13.219  0.00  0.00    +0.000 A 
ATOM      6  C   UNL     1      48.581   6.661  14.007  0.00  0.00    +0.000 A 
ATOM      7  N   UNL     1      49.191   6.271  15.149  0.00  0.00    +0.000 NA
ATOM      8  H   UNL     1      51.769   5.942  16.329  0.00  0.00    +0.000 HD
ENDROOT
BRANCH   1   9
ATOM      9  C   UNL     1      50.188   5.776  17.627  0.00  0.00    +0.000 C 
BRANCH   9  15
ATOM     10  C   UNL     1      53.442   2.168  18.065  0.00  0.00    +0.000 C 
ATOM     11  C   UNL     1      52.032   2.561  17.754  0.00  0.00    +0.000 A 
ATOM     12  C   UNL     1      51.090   1.612  17.370  0.00  0.00    +0.000 A 
ATOM     13  C   UNL     1      49.801   2.035  17.067  0.00  0.00    +0.000 A 
ATOM     14  C   UNL     1      49.486   3.391  17.150  0.00  0.00    +0.000 A 
ATOM     15  C   UNL     1      50.477   4.286  17.547  0.00  0.00    +0.000 A 
ATOM     16  N   UNL     1      51.737   3.882  17.848  0.00  0.00    +0.000 NA
ENDBRANCH   9  15
ENDBRANCH   1   9
BRANCH   5  17
ATOM     17  C   UNL     1      48.266   8.104  11.971  0.00  0.00    +0.000 C 
BRANCH  17  18
ATOM     18  N   UNL     1      47.514   6.995  11.447  0.00  0.00    +0.000 N 
ATOM     19  C   UNL     1      46.146   6.938  11.453  0.00  0.00    +0.000 C 
ATOM     20  O   UNL     1      45.449   7.843  11.903  0.00  0.00    +0.000 OA
ATOM     21  H   UNL     1      48.039   6.147  11.265  0.00  0.00    +0.000 HD
BRANCH  19  22
ATOM     22  C   UNL     1      45.557   5.760  10.800  0.00  0.00    +0.000 A 
ATOM     23  C   UNL     1      45.748   5.554   9.440  0.00  0.00    +0.000 A 
ATOM     24  S   UNL     1      45.078   4.093   8.871  0.00  0.00    +0.000 S 
ATOM     25  C   UNL     1      44.462   3.708  10.410  0.00  0.00    +0.000 A 
ATOM     26  N   UNL     1      43.762   2.562  10.619  0.00  0.00    +0.000 NA
ATOM     27  C   UNL     1      43.322   2.416  11.824  0.00  0.00    +0.000 A 
ATOM     28  N   UNL     1      43.520   3.312  12.840  0.00  0.00    +0.000 N 
ATOM     29  C   UNL     1      44.268   4.456  12.692  0.00  0.00    +0.000 A 
ATOM     30  O   UNL     1      44.510   5.183  13.647  0.00  0.00    +0.000 OA
ATOM     31  C   UNL     1      44.769   4.678  11.347  0.00  0.00    +0.000 A 
ATOM     32  H   UNL     1      43.163   3.134  13.768  0.00  0.00    +0.000 HD
ENDBRANCH  19  22
ENDBRANCH  17  18
ENDBRANCH   5  17
TORSDOF 5
ENDMDL
MODEL 8
REMARK VINA RESULT:    -7.004      4.036      5.828
REMARK INTER + INTRA:         -10.106
REMARK INTER:                  -9.378
REMARK INTRA:                  -0.728
REMARK UNBOUND:                -1.054
REMARK  Name = 
REMARK  6 active torsions:
REMARK  status: ('A' for Active; 'I' for Inactive)
REMARK    1  A    between atoms: C_1  and  C_2
REMARK    2  A    between atoms: C_6  and  C_7
REMARK    3  A    between atoms: C_7  and  N_8
REMARK    4  A    between atoms: C_12  and  C_13
REMARK    5  A    between atoms: C_13  and  N_14
REMARK    6  A    between atoms: C_15  and  C_17
REMARK                            x       y       z     vdW  Elec       q    Type
REMARK                         _______ _______ _______ _____ _____    ______ ____
ROOT
ATOM      1  N   UNL     1      43.955   7.617  11.374  0.00  0.00    +0.000 N 
ATOM      2  C   UNL     1      44.709   6.753  12.189  0.00  0.00    +0.000 A 
ATOM      3  C   UNL     1      44.085   5.613  12.689  0.00  0.00    +0.000 A 
ATOM      4  C   UNL     1      44.816   4.709  13.457  0.00  0.00    +0.000 A 
ATOM      5  C   UNL     1      46.175   4.925  13.659  0.00  0.00    +0.000 A 
ATOM      6  C   UNL     1      46.718   6.082  13.116  0.00  0.00    +0.000 A 
ATOM      7  N   UNL     1      46.017   6.989  12.399  0.00  0.00    +0.000 NA
ATOM      8  H   UNL     1      43.954   7.207  10.440  0.00  0.00    +0.000 HD
ENDROOT
BRANCH   1   9
ATOM      9  C   UNL     1      44.506   8.975  11.325  0.00  0.00    +0.000 C 
BRANCH   9  15
ATOM     10  C   UNL     1      39.915  10.490  10.674  0.00  0.00    +0.000 C 
ATOM     11  C   UNL     1      41.359  10.655  10.315  0.00  0.00    +0.000 A 
ATOM     12  C   UNL     1      41.760  11.591   9.367  0.00  0.00    +0.000 A 
ATOM     13  C   UNL     1      43.110  11.685   9.051  0.00  0.00    +0.000 A 
ATOM     14  C   UNL     1      44.024  10.842   9.684  0.00  0.00    +0.000 A 
ATOM     15  C   UNL     1      43.552   9.931  10.628  0.00  0.00    +0.000 A 
ATOM     16  N   UNL     1      42.237   9.835  10.944  0.00  0.00    +0.000 NA
ENDBRANCH   9  15
ENDBRANCH   1   9
BRANCH   5  17
ATOM     17  C   UNL     1      47.016   3.972  14.452  0.00  0.00    +0.000 C 
BRANCH  17  18
ATOM     18  N   UNL     1      47.493   4.577  15.666  0.00  0.00    +0.000 N 
ATOM     19  C   UNL     1      47.146   4.140  16.917  0.00  0.00    +0.000 C 
ATOM     20  O   UNL     1      46.400   3.182  17.098  0.00  0.00    +0.000 OA
ATOM     21  H   UNL     1      47.930   5.487  15.569  0.00  0.00    +0.000 HD
BRANCH  19  22
ATOM     22  C   UNL     1      47.798   4.835  18.035  0.00  0.00    +0.000 A 
ATOM     23  C   UNL     1      47.083   5.756  18.790  0.00  0.00    +0.000 A 
ATOM     24  S   UNL     1      47.964   6.393  20.103  0.00  0.00    +0.000 S 
ATOM     25  C   UNL     1      49.351   5.501  19.681  0.00  0.00    +0.000 A 
ATOM     26  N   UNL     1      50.493   5.592  20.412  0.00  0.00    +0.000 NA
ATOM     27  C   UNL     1      51.477   4.891  19.957  0.00  0.00    +0.000 A 
ATOM     28  N   UNL     1      51.422   4.106  18.837  0.00  0.00    +0.000 N 
ATOM     29  C   UNL     1      50.274   3.938  18.098  0.00  0.00    +0.000 A 
ATOM     30  O   UNL     1      50.233   3.149  17.161  0.00  0.00    +0.000 OA
ATOM     31  C   UNL     1      49.143   4.723  18.557  0.00  0.00    +0.000 A 
ATOM     32  H   UNL     1      52.222   3.568  18.538  0.00  0.00    +0.000 HD
ENDBRANCH  19  22
ENDBRANCH  17  18
ENDBRANCH   5  17
TORSDOF 5
ENDMDL
MODEL 9
REMARK VINA RESULT:    -6.759      3.761      6.054
REMARK INTER + INTRA:          -9.788
REMARK INTER:                  -8.960
REMARK INTRA:                  -0.828
REMARK UNBOUND:                -1.054
REMARK  Name = 
REMARK  6 active torsions:
REMARK  status: ('A' for Active; 'I' for Inactive)
REMARK    1  A    between atoms: C_1  and  C_2
REMARK    2  A    between atoms: C_6  and  C_7
REMARK    3  A    between atoms: C_7  and  N_8
REMARK    4  A    between atoms: C_12  and  C_13
REMARK    5  A    between atoms: C_13  and  N_14
REMARK    6  A    between atoms: C_15  and  C_17
REMARK                            x       y       z     vdW  Elec       q    Type
REMARK                         _______ _______ _______ _____ _____    ______ ____
ROOT
ATOM      1  N   UNL     1      43.146   7.694  10.945  0.00  0.00    +0.000 N 
ATOM      2  C   UNL     1      43.985   6.831  11.674  0.00  0.00    +0.000 A 
ATOM      3  C   UNL     1      43.432   5.662  12.192  0.00  0.00    +0.000 A 
ATOM      4  C   UNL     1      44.246   4.760  12.875  0.00  0.00    +0.000 A 
ATOM      5  C   UNL     1      45.612   5.009  12.973  0.00  0.00    +0.000 A 
ATOM      6  C   UNL     1      46.079   6.193  12.418  0.00  0.00    +0.000 A 
ATOM      7  N   UNL     1      45.300   7.098  11.784  0.00  0.00    +0.000 NA
ATOM      8  H   UNL     1      43.079   7.306  10.004  0.00  0.00    +0.000 HD
ENDROOT
BRANCH   1   9
ATOM      9  C   UNL     1      43.656   9.066  10.888  0.00  0.00    +0.000 C 
BRANCH   9  15
ATOM     10  C   UNL     1      38.980  10.420  11.207  0.00  0.00    +0.000 C 
ATOM     11  C   UNL     1      40.332  10.688  10.624  0.00  0.00    +0.000 A 
ATOM     12  C   UNL     1      40.533  11.733   9.728  0.00  0.00    +0.000 A 
ATOM     13  C   UNL     1      41.802  11.923   9.196  0.00  0.00    +0.000 A 
ATOM     14  C   UNL     1      42.838  11.065   9.567  0.00  0.00    +0.000 A 
ATOM     15  C   UNL     1      42.567  10.042  10.474  0.00  0.00    +0.000 A 
ATOM     16  N   UNL     1      41.331   9.852  11.000  0.00  0.00    +0.000 NA
ENDBRANCH   9  15
ENDBRANCH   1   9
BRANCH   5  17
ATOM     17  C   UNL     1      46.538   4.060  13.670  0.00  0.00    +0.000 C 
BRANCH  17  18
ATOM     18  N   UNL     1      47.008   4.604  14.915  0.00  0.00    +0.000 N 
ATOM     19  C   UNL     1      47.789   3.907  15.798  0.00  0.00    +0.000 C 
ATOM     20  O   UNL     1      48.159   2.756  15.587  0.00  0.00    +0.000 OA
ATOM     21  H   UNL     1      46.559   5.458  15.227  0.00  0.00    +0.000 HD
BRANCH  19  22
ATOM     22  C   UNL     1      48.236   4.659  16.980  0.00  0.00    +0.000 A 
ATOM     23  C   UNL     1      47.927   4.196  18.252  0.00  0.00    +0.000 A 
ATOM     24  S   UNL     1      48.605   5.137  19.503  0.00  0.00    +0.000 S 
ATOM     25  C   UNL     1      49.291   6.226  18.390  0.00  0.00    +0.000 A 
ATOM     26  N   UNL     1      50.019   7.294  18.812  0.00  0.00    +0.000 NA
ATOM     27  C   UNL     1      50.448   8.058  17.863  0.00  0.00    +0.000 A 
ATOM     28  N   UNL     1      50.216   7.849  16.531  0.00  0.00    +0.000 N 
ATOM     29  C   UNL     1      49.536   6.755  16.053  0.00  0.00    +0.000 A 
ATOM     30  O   UNL     1      49.435   6.546  14.850  0.00  0.00    +0.000 OA
ATOM     31  C   UNL     1      49.013   5.874  17.082  0.00  0.00    +0.000 A 
ATOM     32  H   UNL     1      50.592   8.476  15.833  0.00  0.00    +0.000 HD
ENDBRANCH  19  22
ENDBRANCH  17  18
ENDBRANCH   5  17
TORSDOF 5
ENDMDL
