MODEL 1
REMARK VINA RESULT:    -8.719      0.000      0.000
REMARK INTER + INTRA:         -13.629
REMARK INTER:                 -12.542
REMARK INTRA:                  -1.087
REMARK UNBOUND:                -1.087
REMARK  Name = 
REMARK  8 active torsions:
REMARK  status: ('A' for Active; 'I' for Inactive)
REMARK    1  A    between atoms: C_2  and  C_4
REMARK    2  A    between atoms: C_7  and  C_8
REMARK    3  A    between atoms: C_8  and  C_9
REMARK    4  A    between atoms: C_8  and  C_11
REMARK    5  A    between atoms: C_9  and  O_10
REMARK    6  A    between atoms: C_11  and  N_12
REMARK    7  A    between atoms: N_12  and  C_13
REMARK    8  A    between atoms: C_17  and  C_18
REMARK                            x       y       z     vdW  Elec       q    Type
REMARK                         _______ _______ _______ _____ _____    ______ ____
ROOT
ATOM      1  C   UNL     1      43.573   3.711  10.488  0.00  0.00    +0.000 C 
ENDROOT
BRANCH   1   5
ATOM      2  C   UNL     1      46.563   2.681   7.494  0.00  0.00    +0.000 A 
ATOM      3  C   UNL     1      45.944   1.681   8.253  0.00  0.00    +0.000 A 
ATOM      4  C   UNL     1      44.991   2.020   9.220  0.00  0.00    +0.000 A 
ATOM      5  C   UNL     1      44.641   3.362   9.445  0.00  0.00    +0.000 A 
ATOM      6  C   UNL     1      45.309   4.355   8.705  0.00  0.00    +0.000 A 
ATOM      7  C   UNL     1      46.255   4.020   7.739  0.00  0.00    +0.000 A 
BRANCH   2   9
ATOM      8  N   UNL     1      47.408   3.035   5.241  0.00  0.00    +0.000 N 
ATOM      9  C   UNL     1      47.557   2.377   6.427  0.00  0.00    +0.000 C 
ATOM     10  O   UNL     1      48.497   1.617   6.620  0.00  0.00    +0.000 OA
ATOM     11  H   UNL     1      48.170   2.930   4.584  0.00  0.00    +0.000 HD
ATOM     12  H   UNL     1      46.823   3.852   5.148  0.00  0.00    +0.000 HD
ENDBRANCH   2   9
ENDBRANCH   1   5
BRANCH   1  13
ATOM     13  C   UNL     1      43.742   2.839  11.742  0.00  0.00    +0.000 C 
BRANCH  13  14
ATOM     14  O   UNL     1      42.805   1.769  11.782  0.00  0.00    +0.000 OA
ATOM     15  H   UNL     1      43.064   1.139  11.085  0.00  0.00    +0.000 HD
ENDBRANCH  13  14
ENDBRANCH   1  13
BRANCH   1  16
ATOM     16  C   UNL     1      43.562   5.227  10.793  0.00  0.00    +0.000 C 
BRANCH  16  17
ATOM     17  N   UNL     1      43.893   5.548  12.186  0.00  0.00    +0.000 N 
ATOM     18  H   UNL     1      43.540   4.834  12.824  0.00  0.00    +0.000 HD
BRANCH  17  19
ATOM     19  C   UNL     1      45.271   5.736  12.455  0.00  0.00    +0.000 A 
ATOM     20  C   UNL     1      46.096   6.570  11.693  0.00  0.00    +0.000 A 
ATOM     21  C   UNL     1      47.434   6.762  12.031  0.00  0.00    +0.000 A 
ATOM     22  C   UNL     1      47.956   6.165  13.174  0.00  0.00    +0.000 A 
ATOM     23  C   UNL     1      47.148   5.391  14.024  0.00  0.00    +0.000 A 
ATOM     24  C   UNL     1      45.808   5.187  13.632  0.00  0.00    +0.000 A 
BRANCH  23  25
ATOM     25  C   UNL     1      47.658   4.885  15.319  0.00  0.00    +0.000 A 
ATOM     26  C   UNL     1      47.434   3.548  15.702  0.00  0.00    +0.000 A 
ATOM     27  C   UNL     1      47.970   3.024  16.880  0.00  0.00    +0.000 A 
ATOM     28  C   UNL     1      48.751   3.826  17.703  0.00  0.00    +0.000 A 
ATOM     29  C   UNL     1      48.976   5.156  17.360  0.00  0.00    +0.000 A 
ATOM     30  C   UNL     1      48.427   5.681  16.184  0.00  0.00    +0.000 A 
ENDBRANCH  23  25
ENDBRANCH  17  19
ENDBRANCH  16  17
ENDBRANCH   1  16
TORSDOF 8
ENDMDL
MODEL 2
REMARK VINA RESULT:    -8.367      1.806      3.958
REMARK INTER + INTRA:         -13.123
REMARK INTER:                 -12.257
REMARK INTRA:                  -0.866
REMARK UNBOUND:                -1.087
REMARK  Name = 
REMARK  8 active torsions:
REMARK  status: ('A' for Active; 'I' for Inactive)
REMARK    1  A    between atoms: C_2  and  C_4
REMARK    2  A    between atoms: C_7  and  C_8
REMARK    3  A    between atoms: C_8  and  C_9
REMARK    4  A    between atoms: C_8  and  C_11
REMARK    5  A    between atoms: C_9  and  O_10
REMARK    6  A    between atoms: C_11  and  N_12
REMARK    7  A    between atoms: N_12  and  C_13
REMARK    8  A    between atoms: C_17  and  C_18
REMARK                            x       y       z     vdW  Elec       q    Type
REMARK                         _______ _______ _______ _____ _____    ______ ____
ROOT
ATOM      1  C   UNL     1      43.568   3.904  10.640  0.00  0.00    +0.000 C 
ENDROOT
BRANCH   1   5
ATOM      2  C   UNL     1      46.486   2.567   7.697  0.00  0.00    +0.000 A 
ATOM      3  C   UNL     1      46.202   3.930   7.848  0.00  0.00    +0.000 A 
ATOM      4  C   UNL     1      45.255   4.351   8.789  0.00  0.00    +0.000 A 
ATOM      5  C   UNL     1      44.578   3.421   9.594  0.00  0.00    +0.000 A 
ATOM      6  C   UNL     1      44.844   2.053   9.395  0.00  0.00    +0.000 A 
ATOM      7  C   UNL     1      45.788   1.631   8.461  0.00  0.00    +0.000 A 
BRANCH   2   9
ATOM      8  N   UNL     1      48.560   2.890   6.468  0.00  0.00    +0.000 N 
ATOM      9  C   UNL     1      47.508   2.064   6.739  0.00  0.00    +0.000 C 
ATOM     10  O   UNL     1      47.441   0.940   6.257  0.00  0.00    +0.000 OA
ATOM     11  H   UNL     1      49.315   2.477   5.935  0.00  0.00    +0.000 HD
ATOM     12  H   UNL     1      48.781   3.687   7.047  0.00  0.00    +0.000 HD
ENDBRANCH   2   9
ENDBRANCH   1   5
BRANCH   1  13
ATOM     13  C   UNL     1      43.599   2.992  11.877  0.00  0.00    +0.000 C 
BRANCH  13  14
ATOM     14  O   UNL     1      42.770   1.846  11.720  0.00  0.00    +0.000 OA
ATOM     15  H   UNL     1      43.132   1.334  10.974  0.00  0.00    +0.000 HD
ENDBRANCH  13  14
ENDBRANCH   1  13
BRANCH   1  16
ATOM     16  C   UNL     1      43.779   5.398  10.977  0.00  0.00    +0.000 C 
BRANCH  16  17
ATOM     17  N   UNL     1      43.924   5.663  12.413  0.00  0.00    +0.000 N 
ATOM     18  H   UNL     1      43.574   4.882  12.969  0.00  0.00    +0.000 HD
BRANCH  17  19
ATOM     19  C   UNL     1      45.239   5.959  12.846  0.00  0.00    +0.000 A 
ATOM     20  C   UNL     1      46.028   5.064  13.577  0.00  0.00    +0.000 A 
ATOM     21  C   UNL     1      47.336   5.385  13.934  0.00  0.00    +0.000 A 
ATOM     22  C   UNL     1      47.897   6.588  13.517  0.00  0.00    +0.000 A 
ATOM     23  C   UNL     1      47.179   7.482  12.706  0.00  0.00    +0.000 A 
ATOM     24  C   UNL     1      45.846   7.144  12.393  0.00  0.00    +0.000 A 
BRANCH  23  25
ATOM     25  C   UNL     1      47.823   8.686  12.132  0.00  0.00    +0.000 A 
ATOM     26  C   UNL     1      47.096   9.883  11.981  0.00  0.00    +0.000 A 
ATOM     27  C   UNL     1      47.701  11.053  11.516  0.00  0.00    +0.000 A 
ATOM     28  C   UNL     1      49.052  11.056  11.196  0.00  0.00    +0.000 A 
ATOM     29  C   UNL     1      49.794   9.884  11.319  0.00  0.00    +0.000 A 
ATOM     30  C   UNL     1      49.182   8.709  11.774  0.00  0.00    +0.000 A 
ENDBRANCH  23  25
ENDBRANCH  17  19
ENDBRANCH  16  17
ENDBRANCH   1  16
TORSDOF 8
ENDMDL
MODEL 3
REMARK VINA RESULT:    -7.853      4.000      7.386
REMARK INTER + INTRA:         -12.383
REMARK INTER:                 -11.352
REMARK INTRA:                  -1.031
REMARK UNBOUND:                -1.087
REMARK  Name = 
REMARK  8 active torsions:
REMARK  status: ('A' for Active; 'I' for Inactive)
REMARK    1  A    between atoms: C_2  and  C_4
REMARK    2  A    between atoms: C_7  and  C_8
REMARK    3  A    between atoms: C_8  and  C_9
REMARK    4  A    between atoms: C_8  and  C_11
REMARK    5  A    between atoms: C_9  and  O_10
REMARK    6  A    between atoms: C_11  and  N_12
REMARK    7  A    between atoms: N_12  and  C_13
REMARK    8  A    between atoms: C_17  and  C_18
REMARK                            x       y       z     vdW  Elec       q    Type
REMARK                         _______ _______ _______ _____ _____    ______ ____
ROOT
ATOM      1  C   UNL     1      45.653   8.506  12.645  0.00  0.00    +0.000 C 
ENDROOT
BRANCH   1   5
ATOM      2  C   UNL     1      49.903   8.195  11.748  0.00  0.00    +0.000 A 
ATOM      3  C   UNL     1      49.234   9.416  11.603  0.00  0.00    +0.000 A 
ATOM      4  C   UNL     1      47.866   9.506  11.883  0.00  0.00    +0.000 A 
ATOM      5  C   UNL     1      47.144   8.380  12.313  0.00  0.00    +0.000 A 
ATOM      6  C   UNL     1      47.825   7.152  12.407  0.00  0.00    +0.000 A 
ATOM      7  C   UNL     1      49.187   7.060  12.132  0.00  0.00    +0.000 A 
BRANCH   2   9
ATOM      8  N   UNL     1      51.736   7.186  10.509  0.00  0.00    +0.000 N 
ATOM      9  C   UNL     1      51.363   8.047  11.499  0.00  0.00    +0.000 C 
ATOM     10  O   UNL     1      52.191   8.708  12.114  0.00  0.00    +0.000 OA
ATOM     11  H   UNL     1      52.716   7.209  10.254  0.00  0.00    +0.000 HD
ATOM     12  H   UNL     1      51.084   6.846   9.817  0.00  0.00    +0.000 HD
ENDBRANCH   2   9
ENDBRANCH   1   5
BRANCH   1  13
ATOM     13  C   UNL     1      44.992   9.566  11.749  0.00  0.00    +0.000 C 
BRANCH  13  14
ATOM     14  O   UNL     1      43.910  10.221  12.401  0.00  0.00    +0.000 OA
ATOM     15  H   UNL     1      43.688   9.688  13.187  0.00  0.00    +0.000 HD
ENDBRANCH  13  14
ENDBRANCH   1  13
BRANCH   1  16
ATOM     16  C   UNL     1      44.948   7.131  12.588  0.00  0.00    +0.000 C 
BRANCH  16  17
ATOM     17  N   UNL     1      44.499   6.755  11.243  0.00  0.00    +0.000 N 
ATOM     18  H   UNL     1      45.106   7.154  10.526  0.00  0.00    +0.000 HD
BRANCH  17  19
ATOM     19  C   UNL     1      44.392   5.364  11.005  0.00  0.00    +0.000 A 
ATOM     20  C   UNL     1      43.472   4.539  11.663  0.00  0.00    +0.000 A 
ATOM     21  C   UNL     1      43.371   3.184  11.354  0.00  0.00    +0.000 A 
ATOM     22  C   UNL     1      44.153   2.641  10.339  0.00  0.00    +0.000 A 
ATOM     23  C   UNL     1      45.026   3.443   9.587  0.00  0.00    +0.000 A 
ATOM     24  C   UNL     1      45.132   4.802   9.949  0.00  0.00    +0.000 A 
BRANCH  23  25
ATOM     25  C   UNL     1      45.742   2.903   8.407  0.00  0.00    +0.000 A 
ATOM     26  C   UNL     1      46.052   3.737   7.315  0.00  0.00    +0.000 A 
ATOM     27  C   UNL     1      46.793   3.273   6.227  0.00  0.00    +0.000 A 
ATOM     28  C   UNL     1      47.249   1.961   6.206  0.00  0.00    +0.000 A 
ATOM     29  C   UNL     1      46.944   1.107   7.263  0.00  0.00    +0.000 A 
ATOM     30  C   UNL     1      46.190   1.573   8.347  0.00  0.00    +0.000 A 
ENDBRANCH  23  25
ENDBRANCH  17  19
ENDBRANCH  16  17
ENDBRANCH   1  16
TORSDOF 8
ENDMDL
MODEL 4
REMARK VINA RESULT:    -7.773      3.313      7.453
REMARK INTER + INTRA:         -12.268
REMARK INTER:                 -11.248
REMARK INTRA:                  -1.020
REMARK UNBOUND:                -1.087
REMARK  Name = 
REMARK  8 active torsions:
REMARK  status: ('A' for Active; 'I' for Inactive)
REMARK    1  A    between atoms: C_2  and  C_4
REMARK    2  A    between atoms: C_7  and  C_8
REMARK    3  A    between atoms: C_8  and  C_9
REMARK    4  A    between atoms: C_8  and  C_11
REMARK    5  A    between atoms: C_9  and  O_10
REMARK    6  A    between atoms: C_11  and  N_12
REMARK    7  A    between atoms: N_12  and  C_13
REMARK    8  A    between atoms: C_17  and  C_18
REMARK                            x       y       z     vdW  Elec       q    Type
REMARK                         _______ _______ _______ _____ _____    ______ ____
ROOT
ATOM      1  C   UNL     1      46.385   5.862  12.716  0.00  0.00    +0.000 C 
ENDROOT
BRANCH   1   5
ATOM      2  C   UNL     1      50.157   8.008  13.075  0.00  0.00    +0.000 A 
ATOM      3  C   UNL     1      49.556   7.436  14.202  0.00  0.00    +0.000 A 
ATOM      4  C   UNL     1      48.338   6.756  14.081  0.00  0.00    +0.000 A 
ATOM      5  C   UNL     1      47.703   6.637  12.834  0.00  0.00    +0.000 A 
ATOM      6  C   UNL     1      48.300   7.259  11.722  0.00  0.00    +0.000 A 
ATOM      7  C   UNL     1      49.514   7.933  11.839  0.00  0.00    +0.000 A 
BRANCH   2   9
ATOM      8  N   UNL     1      52.503   8.149  12.448  0.00  0.00    +0.000 N 
ATOM      9  C   UNL     1      51.468   8.711  13.137  0.00  0.00    +0.000 C 
ATOM     10  O   UNL     1      51.602   9.773  13.732  0.00  0.00    +0.000 OA
ATOM     11  H   UNL     1      53.341   8.712  12.379  0.00  0.00    +0.000 HD
ATOM     12  H   UNL     1      52.358   7.442  11.742  0.00  0.00    +0.000 HD
ENDBRANCH   2   9
ENDBRANCH   1   5
BRANCH   1  13
ATOM     13  C   UNL     1      46.172   4.975  13.952  0.00  0.00    +0.000 C 
BRANCH  13  14
ATOM     14  O   UNL     1      46.432   3.603  13.681  0.00  0.00    +0.000 OA
ATOM     15  H   UNL     1      45.615   3.113  13.889  0.00  0.00    +0.000 HD
ENDBRANCH  13  14
ENDBRANCH   1  13
BRANCH   1  16
ATOM     16  C   UNL     1      45.199   6.812  12.433  0.00  0.00    +0.000 C 
BRANCH  16  17
ATOM     17  N   UNL     1      44.450   6.472  11.218  0.00  0.00    +0.000 N 
ATOM     18  H   UNL     1      44.833   6.950  10.402  0.00  0.00    +0.000 HD
BRANCH  17  19
ATOM     19  C   UNL     1      44.369   5.090  10.921  0.00  0.00    +0.000 A 
ATOM     20  C   UNL     1      43.456   4.224  11.533  0.00  0.00    +0.000 A 
ATOM     21  C   UNL     1      43.382   2.882  11.168  0.00  0.00    +0.000 A 
ATOM     22  C   UNL     1      44.184   2.394  10.141  0.00  0.00    +0.000 A 
ATOM     23  C   UNL     1      45.053   3.241   9.433  0.00  0.00    +0.000 A 
ATOM     24  C   UNL     1      45.131   4.585   9.853  0.00  0.00    +0.000 A 
BRANCH  23  25
ATOM     25  C   UNL     1      45.791   2.762   8.241  0.00  0.00    +0.000 A 
ATOM     26  C   UNL     1      46.044   3.630   7.161  0.00  0.00    +0.000 A 
ATOM     27  C   UNL     1      46.804   3.226   6.061  0.00  0.00    +0.000 A 
ATOM     28  C   UNL     1      47.336   1.944   6.017  0.00  0.00    +0.000 A 
ATOM     29  C   UNL     1      47.090   1.058   7.062  0.00  0.00    +0.000 A 
ATOM     30  C   UNL     1      46.317   1.462   8.158  0.00  0.00    +0.000 A 
ENDBRANCH  23  25
ENDBRANCH  17  19
ENDBRANCH  16  17
ENDBRANCH   1  16
TORSDOF 8
ENDMDL
MODEL 5
REMARK VINA RESULT:    -7.585      2.821      7.879
REMARK INTER + INTRA:         -11.997
REMARK INTER:                 -11.061
REMARK INTRA:                  -0.936
REMARK UNBOUND:                -1.087
REMARK  Name = 
REMARK  8 active torsions:
REMARK  status: ('A' for Active; 'I' for Inactive)
REMARK    1  A    between atoms: C_2  and  C_4
REMARK    2  A    between atoms: C_7  and  C_8
REMARK    3  A    between atoms: C_8  and  C_9
REMARK    4  A    between atoms: C_8  and  C_11
REMARK    5  A    between atoms: C_9  and  O_10
REMARK    6  A    between atoms: C_11  and  N_12
REMARK    7  A    between atoms: N_12  and  C_13
REMARK    8  A    between atoms: C_17  and  C_18
REMARK                            x       y       z     vdW  Elec       q    Type
REMARK                         _______ _______ _______ _____ _____    ______ ____
ROOT
ATOM      1  C   UNL     1      48.197   7.553  13.116  0.00  0.00    +0.000 C 
ENDROOT
BRANCH   1   5
ATOM      2  C   UNL     1      47.672   4.508  16.185  0.00  0.00    +0.000 A 
ATOM      3  C   UNL     1      46.989   4.414  14.966  0.00  0.00    +0.000 A 
ATOM      4  C   UNL     1      47.156   5.402  13.989  0.00  0.00    +0.000 A 
ATOM      5  C   UNL     1      48.005   6.498  14.211  0.00  0.00    +0.000 A 
ATOM      6  C   UNL     1      48.645   6.599  15.461  0.00  0.00    +0.000 A 
ATOM      7  C   UNL     1      48.484   5.615  16.434  0.00  0.00    +0.000 A 
BRANCH   2   9
ATOM      8  N   UNL     1      48.666   3.259  18.020  0.00  0.00    +0.000 N 
ATOM      9  C   UNL     1      47.562   3.470  17.247  0.00  0.00    +0.000 C 
ATOM     10  O   UNL     1      46.514   2.872  17.456  0.00  0.00    +0.000 OA
ATOM     11  H   UNL     1      48.529   2.662  18.825  0.00  0.00    +0.000 HD
ATOM     12  H   UNL     1      49.434   3.914  18.051  0.00  0.00    +0.000 HD
ENDBRANCH   2   9
ENDBRANCH   1   5
BRANCH   1  13
ATOM     13  C   UNL     1      49.686   7.902  12.964  0.00  0.00    +0.000 C 
BRANCH  13  14
ATOM     14  O   UNL     1      50.172   7.627  11.656  0.00  0.00    +0.000 OA
ATOM     15  H   UNL     1      49.630   8.149  11.036  0.00  0.00    +0.000 HD
ENDBRANCH  13  14
ENDBRANCH   1  13
BRANCH   1  16
ATOM     16  C   UNL     1      47.533   7.115  11.791  0.00  0.00    +0.000 C 
BRANCH  16  17
ATOM     17  N   UNL     1      46.105   7.444  11.712  0.00  0.00    +0.000 N 
ATOM     18  H   UNL     1      45.947   8.264  11.127  0.00  0.00    +0.000 HD
BRANCH  17  19
ATOM     19  C   UNL     1      45.267   6.402  11.246  0.00  0.00    +0.000 A 
ATOM     20  C   UNL     1      43.891   6.350  11.499  0.00  0.00    +0.000 A 
ATOM     21  C   UNL     1      43.101   5.330  10.973  0.00  0.00    +0.000 A 
ATOM     22  C   UNL     1      43.666   4.372  10.136  0.00  0.00    +0.000 A 
ATOM     23  C   UNL     1      45.023   4.430   9.779  0.00  0.00    +0.000 A 
ATOM     24  C   UNL     1      45.803   5.453  10.358  0.00  0.00    +0.000 A 
BRANCH  23  25
ATOM     25  C   UNL     1      45.591   3.507   8.769  0.00  0.00    +0.000 A 
ATOM     26  C   UNL     1      46.238   4.010   7.624  0.00  0.00    +0.000 A 
ATOM     27  C   UNL     1      46.850   3.164   6.697  0.00  0.00    +0.000 A 
ATOM     28  C   UNL     1      46.835   1.789   6.897  0.00  0.00    +0.000 A 
ATOM     29  C   UNL     1      46.190   1.261   8.011  0.00  0.00    +0.000 A 
ATOM     30  C   UNL     1      45.566   2.111   8.932  0.00  0.00    +0.000 A 
ENDBRANCH  23  25
ENDBRANCH  17  19
ENDBRANCH  16  17
ENDBRANCH   1  16
TORSDOF 8
ENDMDL
MODEL 6
REMARK VINA RESULT:    -7.556      3.358      7.419
REMARK INTER + INTRA:         -11.956
REMARK INTER:                 -10.317
REMARK INTRA:                  -1.639
REMARK UNBOUND:                -1.087
REMARK  Name = 
REMARK  8 active torsions:
REMARK  status: ('A' for Active; 'I' for Inactive)
REMARK    1  A    between atoms: C_2  and  C_4
REMARK    2  A    between atoms: C_7  and  C_8
REMARK    3  A    between atoms: C_8  and  C_9
REMARK    4  A    between atoms: C_8  and  C_11
REMARK    5  A    between atoms: C_9  and  O_10
REMARK    6  A    between atoms: C_11  and  N_12
REMARK    7  A    between atoms: N_12  and  C_13
REMARK    8  A    between atoms: C_17  and  C_18
REMARK                            x       y       z     vdW  Elec       q    Type
REMARK                         _______ _______ _______ _____ _____    ______ ____
ROOT
ATOM      1  C   UNL     1      47.176   5.836  13.117  0.00  0.00    +0.000 C 
ENDROOT
BRANCH   1   5
ATOM      2  C   UNL     1      44.669   9.083  11.654  0.00  0.00    +0.000 A 
ATOM      3  C   UNL     1      45.458   9.255  12.798  0.00  0.00    +0.000 A 
ATOM      4  C   UNL     1      46.253   8.203  13.268  0.00  0.00    +0.000 A 
ATOM      5  C   UNL     1      46.275   6.966  12.605  0.00  0.00    +0.000 A 
ATOM      6  C   UNL     1      45.440   6.798  11.484  0.00  0.00    +0.000 A 
ATOM      7  C   UNL     1      44.650   7.844  11.012  0.00  0.00    +0.000 A 
BRANCH   2   9
ATOM      8  N   UNL     1      43.269   9.951   9.865  0.00  0.00    +0.000 N 
ATOM      9  C   UNL     1      43.832  10.175  11.088  0.00  0.00    +0.000 C 
ATOM     10  O   UNL     1      43.610  11.206  11.711  0.00  0.00    +0.000 OA
ATOM     11  H   UNL     1      42.588  10.636   9.564  0.00  0.00    +0.000 HD
ATOM     12  H   UNL     1      43.208   9.027   9.462  0.00  0.00    +0.000 HD
ENDBRANCH   2   9
ENDBRANCH   1   5
BRANCH   1  13
ATOM     13  C   UNL     1      48.489   6.409  13.674  0.00  0.00    +0.000 C 
BRANCH  13  14
ATOM     14  O   UNL     1      49.483   6.552  12.666  0.00  0.00    +0.000 OA
ATOM     15  H   UNL     1      49.662   7.507  12.577  0.00  0.00    +0.000 HD
ENDBRANCH  13  14
ENDBRANCH   1  13
BRANCH   1  16
ATOM     16  C   UNL     1      46.427   4.934  14.124  0.00  0.00    +0.000 C 
BRANCH  16  17
ATOM     17  N   UNL     1      46.190   3.572  13.630  0.00  0.00    +0.000 N 
ATOM     18  H   UNL     1      45.846   2.964  14.374  0.00  0.00    +0.000 HD
BRANCH  17  19
ATOM     19  C   UNL     1      45.303   3.471  12.531  0.00  0.00    +0.000 A 
ATOM     20  C   UNL     1      43.961   3.862  12.587  0.00  0.00    +0.000 A 
ATOM     21  C   UNL     1      43.143   3.790  11.462  0.00  0.00    +0.000 A 
ATOM     22  C   UNL     1      43.671   3.377  10.242  0.00  0.00    +0.000 A 
ATOM     23  C   UNL     1      45.032   3.059  10.110  0.00  0.00    +0.000 A 
ATOM     24  C   UNL     1      45.824   3.107  11.277  0.00  0.00    +0.000 A 
BRANCH  23  25
ATOM     25  C   UNL     1      45.629   2.771   8.786  0.00  0.00    +0.000 A 
ATOM     26  C   UNL     1      45.832   3.806   7.852  0.00  0.00    +0.000 A 
ATOM     27  C   UNL     1      46.464   3.574   6.628  0.00  0.00    +0.000 A 
ATOM     28  C   UNL     1      46.916   2.299   6.311  0.00  0.00    +0.000 A 
ATOM     29  C   UNL     1      46.715   1.253   7.206  0.00  0.00    +0.000 A 
ATOM     30  C   UNL     1      46.070   1.486   8.427  0.00  0.00    +0.000 A 
ENDBRANCH  23  25
ENDBRANCH  17  19
ENDBRANCH  16  17
ENDBRANCH   1  16
TORSDOF 8
ENDMDL
MODEL 7
REMARK VINA RESULT:    -7.151      3.122      7.360
REMARK INTER + INTRA:         -11.374
REMARK INTER:                 -10.067
REMARK INTRA:                  -1.307
REMARK UNBOUND:                -1.087
REMARK  Name = 
REMARK  8 active torsions:
REMARK  status: ('A' for Active; 'I' for Inactive)
REMARK    1  A    between atoms: C_2  and  C_4
REMARK    2  A    between atoms: C_7  and  C_8
REMARK    3  A    between atoms: C_8  and  C_9
REMARK    4  A    between atoms: C_8  and  C_11
REMARK    5  A    between atoms: C_9  and  O_10
REMARK    6  A    between atoms: C_11  and  N_12
REMARK    7  A    between atoms: N_12  and  C_13
REMARK    8  A    between atoms: C_17  and  C_18
REMARK                            x       y       z     vdW  Elec       q    Type
REMARK                         _______ _______ _______ _____ _____    ______ ____
ROOT
ATOM      1  C   UNL     1      47.189   4.949  14.084  0.00  0.00    +0.000 C 
ENDROOT
BRANCH   1   5
ATOM      2  C   UNL     1      48.065   8.764  12.177  0.00  0.00    +0.000 A 
ATOM      3  C   UNL     1      46.789   8.195  12.075  0.00  0.00    +0.000 A 
ATOM      4  C   UNL     1      46.519   6.964  12.682  0.00  0.00    +0.000 A 
ATOM      5  C   UNL     1      47.514   6.282  13.400  0.00  0.00    +0.000 A 
ATOM      6  C   UNL     1      48.802   6.848  13.451  0.00  0.00    +0.000 A 
ATOM      7  C   UNL     1      49.073   8.075  12.851  0.00  0.00    +0.000 A 
BRANCH   2   9
ATOM      8  N   UNL     1      47.500  11.096  11.772  0.00  0.00    +0.000 N 
ATOM      9  C   UNL     1      48.400  10.088  11.583  0.00  0.00    +0.000 C 
ATOM     10  O   UNL     1      49.459  10.281  10.998  0.00  0.00    +0.000 OA
ATOM     11  H   UNL     1      47.810  12.017  11.493  0.00  0.00    +0.000 HD
ATOM     12  H   UNL     1      46.770  11.041  12.467  0.00  0.00    +0.000 HD
ENDBRANCH   2   9
ENDBRANCH   1   5
BRANCH   1  13
ATOM     13  C   UNL     1      47.756   4.927  15.513  0.00  0.00    +0.000 C 
BRANCH  13  14
ATOM     14  O   UNL     1      46.795   4.488  16.465  0.00  0.00    +0.000 OA
ATOM     15  H   UNL     1      46.584   5.254  17.030  0.00  0.00    +0.000 HD
ENDBRANCH  13  14
ENDBRANCH   1  13
BRANCH   1  16
ATOM     16  C   UNL     1      45.676   4.640  14.021  0.00  0.00    +0.000 C 
BRANCH  16  17
ATOM     17  N   UNL     1      45.349   3.462  13.210  0.00  0.00    +0.000 N 
ATOM     18  H   UNL     1      44.695   2.849  13.697  0.00  0.00    +0.000 HD
BRANCH  17  19
ATOM     19  C   UNL     1      44.824   3.736  11.924  0.00  0.00    +0.000 A 
ATOM     20  C   UNL     1      43.843   4.705  11.684  0.00  0.00    +0.000 A 
ATOM     21  C   UNL     1      43.398   4.973  10.392  0.00  0.00    +0.000 A 
ATOM     22  C   UNL     1      43.969   4.313   9.307  0.00  0.00    +0.000 A 
ATOM     23  C   UNL     1      45.019   3.398   9.485  0.00  0.00    +0.000 A 
ATOM     24  C   UNL     1      45.421   3.122  10.809  0.00  0.00    +0.000 A 
BRANCH  23  25
ATOM     25  C   UNL     1      45.733   2.813   8.326  0.00  0.00    +0.000 A 
ATOM     26  C   UNL     1      46.075   3.612   7.218  0.00  0.00    +0.000 A 
ATOM     27  C   UNL     1      46.815   3.104   6.149  0.00  0.00    +0.000 A 
ATOM     28  C   UNL     1      47.238   1.781   6.165  0.00  0.00    +0.000 A 
ATOM     29  C   UNL     1      46.902   0.961   7.239  0.00  0.00    +0.000 A 
ATOM     30  C   UNL     1      46.149   1.470   8.303  0.00  0.00    +0.000 A 
ENDBRANCH  23  25
ENDBRANCH  17  19
ENDBRANCH  16  17
ENDBRANCH   1  16
TORSDOF 8
ENDMDL
MODEL 8
REMARK VINA RESULT:    -7.124      4.154      8.243
REMARK INTER + INTRA:         -11.334
REMARK INTER:                 -10.465
REMARK INTRA:                  -0.869
REMARK UNBOUND:                -1.087
REMARK  Name = 
REMARK  8 active torsions:
REMARK  status: ('A' for Active; 'I' for Inactive)
REMARK    1  A    between atoms: C_2  and  C_4
REMARK    2  A    between atoms: C_7  and  C_8
REMARK    3  A    between atoms: C_8  and  C_9
REMARK    4  A    between atoms: C_8  and  C_11
REMARK    5  A    between atoms: C_9  and  O_10
REMARK    6  A    between atoms: C_11  and  N_12
REMARK    7  A    between atoms: N_12  and  C_13
REMARK    8  A    between atoms: C_17  and  C_18
REMARK                            x       y       z     vdW  Elec       q    Type
REMARK                         _______ _______ _______ _____ _____    ______ ____
ROOT
ATOM      1  C   UNL     1      47.450   4.154  16.795  0.00  0.00    +0.000 C 
ENDROOT
BRANCH   1   5
ATOM      2  C   UNL     1      51.318   2.293  17.527  0.00  0.00    +0.000 A 
ATOM      3  C   UNL     1      51.097   3.631  17.873  0.00  0.00    +0.000 A 
ATOM      4  C   UNL     1      49.855   4.225  17.625  0.00  0.00    +0.000 A 
ATOM      5  C   UNL     1      48.814   3.494  17.030  0.00  0.00    +0.000 A 
ATOM      6  C   UNL     1      49.071   2.165  16.647  0.00  0.00    +0.000 A 
ATOM      7  C   UNL     1      50.306   1.570  16.895  0.00  0.00    +0.000 A 
BRANCH   2   9
ATOM      8  N   UNL     1      52.545   0.256  18.040  0.00  0.00    +0.000 N 
ATOM      9  C   UNL     1      52.607   1.598  17.798  0.00  0.00    +0.000 C 
ATOM     10  O   UNL     1      53.679   2.188  17.752  0.00  0.00    +0.000 OA
ATOM     11  H   UNL     1      53.436  -0.224  18.075  0.00  0.00    +0.000 HD
ATOM     12  H   UNL     1      51.729  -0.294  17.816  0.00  0.00    +0.000 HD
ENDBRANCH   2   9
ENDBRANCH   1   5
BRANCH   1  13
ATOM     13  C   UNL     1      47.312   5.421  17.654  0.00  0.00    +0.000 C 
BRANCH  13  14
ATOM     14  O   UNL     1      46.349   5.267  18.689  0.00  0.00    +0.000 OA
ATOM     15  H   UNL     1      45.944   4.388  18.571  0.00  0.00    +0.000 HD
ENDBRANCH  13  14
ENDBRANCH   1  13
BRANCH   1  16
ATOM     16  C   UNL     1      47.199   4.404  15.290  0.00  0.00    +0.000 C 
BRANCH  16  17
ATOM     17  N   UNL     1      47.619   5.734  14.837  0.00  0.00    +0.000 N 
ATOM     18  H   UNL     1      48.621   5.761  14.649  0.00  0.00    +0.000 HD
BRANCH  17  19
ATOM     19  C   UNL     1      46.942   6.229  13.696  0.00  0.00    +0.000 A 
ATOM     20  C   UNL     1      46.920   7.582  13.341  0.00  0.00    +0.000 A 
ATOM     21  C   UNL     1      46.284   8.011  12.178  0.00  0.00    +0.000 A 
ATOM     22  C   UNL     1      45.703   7.082  11.319  0.00  0.00    +0.000 A 
ATOM     23  C   UNL     1      45.775   5.705  11.583  0.00  0.00    +0.000 A 
ATOM     24  C   UNL     1      46.394   5.307  12.787  0.00  0.00    +0.000 A 
BRANCH  23  25
ATOM     25  C   UNL     1      45.297   4.708  10.597  0.00  0.00    +0.000 A 
ATOM     26  C   UNL     1      45.527   4.895   9.220  0.00  0.00    +0.000 A 
ATOM     27  C   UNL     1      45.156   3.934   8.278  0.00  0.00    +0.000 A 
ATOM     28  C   UNL     1      44.550   2.754   8.692  0.00  0.00    +0.000 A 
ATOM     29  C   UNL     1      44.295   2.547  10.044  0.00  0.00    +0.000 A 
ATOM     30  C   UNL     1      44.656   3.518  10.985  0.00  0.00    +0.000 A 
ENDBRANCH  23  25
ENDBRANCH  17  19
ENDBRANCH  16  17
ENDBRANCH   1  16
TORSDOF 8
ENDMDL
MODEL 9
REMARK VINA RESULT:    -6.990      3.602      6.169
REMARK INTER + INTRA:         -11.142
REMARK INTER:                  -9.855
REMARK INTRA:                  -1.287
REMARK UNBOUND:                -1.087
REMARK  Name = 
REMARK  8 active torsions:
REMARK  status: ('A' for Active; 'I' for Inactive)
REMARK    1  A    between atoms: C_2  and  C_4
REMARK    2  A    between atoms: C_7  and  C_8
REMARK    3  A    between atoms: C_8  and  C_9
REMARK    4  A    between atoms: C_8  and  C_11
REMARK    5  A    between atoms: C_9  and  O_10
REMARK    6  A    between atoms: C_11  and  N_12
REMARK    7  A    between atoms: N_12  and  C_13
REMARK    8  A    between atoms: C_17  and  C_18
REMARK                            x       y       z     vdW  Elec       q    Type
REMARK                         _______ _______ _______ _____ _____    ______ ____
ROOT
ATOM      1  C   UNL     1      48.191   7.286  13.697  0.00  0.00    +0.000 C 
ENDROOT
BRANCH   1   5
ATOM      2  C   UNL     1      44.841   4.731  12.598  0.00  0.00    +0.000 A 
ATOM      3  C   UNL     1      44.696   6.123  12.615  0.00  0.00    +0.000 A 
ATOM      4  C   UNL     1      45.775   6.937  12.979  0.00  0.00    +0.000 A 
ATOM      5  C   UNL     1      47.013   6.376  13.331  0.00  0.00    +0.000 A 
ATOM      6  C   UNL     1      47.124   4.974  13.353  0.00  0.00    +0.000 A 
ATOM      7  C   UNL     1      46.053   4.160  12.988  0.00  0.00    +0.000 A 
BRANCH   2   9
ATOM      8  N   UNL     1      43.825   2.520  12.604  0.00  0.00    +0.000 N 
ATOM      9  C   UNL     1      43.740   3.817  12.186  0.00  0.00    +0.000 C 
ATOM     10  O   UNL     1      42.775   4.218  11.548  0.00  0.00    +0.000 OA
ATOM     11  H   UNL     1      43.003   1.953  12.443  0.00  0.00    +0.000 HD
ATOM     12  H   UNL     1      44.450   2.234  13.344  0.00  0.00    +0.000 HD
ENDBRANCH   2   9
ENDBRANCH   1   5
BRANCH   1  13
ATOM     13  C   UNL     1      47.715   8.737  13.868  0.00  0.00    +0.000 C 
BRANCH  13  14
ATOM     14  O   UNL     1      47.381   9.038  15.217  0.00  0.00    +0.000 OA
ATOM     15  H   UNL     1      48.202   9.332  15.654  0.00  0.00    +0.000 HD
ENDBRANCH  13  14
ENDBRANCH   1  13
BRANCH   1  16
ATOM     16  C   UNL     1      48.958   6.745  14.925  0.00  0.00    +0.000 C 
BRANCH  16  17
ATOM     17  N   UNL     1      48.109   6.540  16.104  0.00  0.00    +0.000 N 
ATOM     18  H   UNL     1      47.130   6.731  15.892  0.00  0.00    +0.000 HD
BRANCH  17  19
ATOM     19  C   UNL     1      48.190   5.255  16.695  0.00  0.00    +0.000 A 
ATOM     20  C   UNL     1      47.080   4.425  16.886  0.00  0.00    +0.000 A 
ATOM     21  C   UNL     1      47.221   3.148  17.424  0.00  0.00    +0.000 A 
ATOM     22  C   UNL     1      48.486   2.656  17.729  0.00  0.00    +0.000 A 
ATOM     23  C   UNL     1      49.641   3.414  17.473  0.00  0.00    +0.000 A 
ATOM     24  C   UNL     1      49.461   4.716  16.963  0.00  0.00    +0.000 A 
BRANCH  23  25
ATOM     25  C   UNL     1      50.994   2.836  17.649  0.00  0.00    +0.000 A 
ATOM     26  C   UNL     1      52.033   3.606  18.208  0.00  0.00    +0.000 A 
ATOM     27  C   UNL     1      53.294   3.062  18.457  0.00  0.00    +0.000 A 
ATOM     28  C   UNL     1      53.547   1.729  18.159  0.00  0.00    +0.000 A 
ATOM     29  C   UNL     1      52.545   0.947  17.591  0.00  0.00    +0.000 A 
ATOM     30  C   UNL     1      51.284   1.499  17.331  0.00  0.00    +0.000 A 
ENDBRANCH  23  25
ENDBRANCH  17  19
ENDBRANCH  16  17
ENDBRANCH   1  16
TORSDOF 8
ENDMDL
