MODEL 1
REMARK VINA RESULT:    -7.636      0.000      0.000
REMARK INTER + INTRA:         -10.817
REMARK INTER:                  -9.868
REMARK INTRA:                  -0.949
REMARK UNBOUND:                -0.949
REMARK  Name = 
REMARK  5 active torsions:
REMARK  status: ('A' for Active; 'I' for Inactive)
REMARK    1  A    between atoms: C_2  and  C_4
REMARK    2  A    between atoms: C_8  and  C_9
REMARK    3  A    between atoms: C_9  and  C_10
REMARK    4  A    between atoms: C_10  and  C_11
REMARK    5  A    between atoms: C_15  and  N_16
REMARK                            x       y       z     vdW  Elec       q    Type
REMARK                         _______ _______ _______ _____ _____    ______ ____
ROOT
ATOM      1  C   UNL     1      43.758   4.012  11.512  0.00  0.00    +0.000 C 
ENDROOT
BRANCH   1   2
ATOM      2  C   UNL     1      44.950   4.467  12.333  0.00  0.00    +0.000 A 
ATOM      3  C   UNL     1      45.756   3.497  12.943  0.00  0.00    +0.000 A 
ATOM      4  C   UNL     1      46.889   3.866  13.661  0.00  0.00    +0.000 A 
ATOM      5  C   UNL     1      47.238   5.212  13.769  0.00  0.00    +0.000 A 
ATOM      6  C   UNL     1      46.461   6.218  13.187  0.00  0.00    +0.000 A 
ATOM      7  C   UNL     1      45.291   5.822  12.513  0.00  0.00    +0.000 A 
BRANCH   6   8
ATOM      8  N   UNL     1      46.850   7.545  13.232  0.00  0.00    +0.000 N 
ATOM      9  C   UNL     1      45.870   8.628  13.123  0.00  0.00    +0.000 C 
ATOM     10  C   UNL     1      46.148   9.480  11.887  0.00  0.00    +0.000 C 
ATOM     11  C   UNL     1      47.609   9.925  11.834  0.00  0.00    +0.000 C 
ATOM     12  C   UNL     1      48.546   8.725  11.947  0.00  0.00    +0.000 C 
ATOM     13  C   UNL     1      48.262   7.919  13.215  0.00  0.00    +0.000 C 
ENDBRANCH   6   8
ENDBRANCH   1   2
BRANCH   1  14
ATOM     14  C   UNL     1      44.004   2.791  10.617  0.00  0.00    +0.000 C 
BRANCH  14  19
ATOM     15  C   UNL     1      46.431   2.264   7.886  0.00  0.00    +0.000 A 
ATOM     16  C   UNL     1      46.630   3.522   7.337  0.00  0.00    +0.000 A 
ATOM     17  C   UNL     1      45.951   4.595   7.900  0.00  0.00    +0.000 A 
ATOM     18  C   UNL     1      45.099   4.377   8.984  0.00  0.00    +0.000 A 
ATOM     19  C   UNL     1      44.945   3.080   9.475  0.00  0.00    +0.000 A 
ATOM     20  N   UNL     1      45.602   2.017   8.944  0.00  0.00    +0.000 NA
BRANCH  15  22
ATOM     21  N   UNL     1      46.646  -0.141   7.660  0.00  0.00    +0.000 N 
ATOM     22  C   UNL     1      47.141   1.085   7.305  0.00  0.00    +0.000 C 
ATOM     23  O   UNL     1      48.100   1.192   6.548  0.00  0.00    +0.000 OA
ATOM     24  H   UNL     1      47.051  -0.976   7.265  0.00  0.00    +0.000 HD
ATOM     25  H   UNL     1      45.804  -0.193   8.227  0.00  0.00    +0.000 HD
ENDBRANCH  15  22
ENDBRANCH  14  19
ENDBRANCH   1  14
TORSDOF 5
ENDMDL
MODEL 2
REMARK VINA RESULT:    -7.224      3.271      7.313
REMARK INTER + INTRA:         -10.285
REMARK INTER:                  -9.450
REMARK INTRA:                  -0.835
REMARK UNBOUND:                -0.949
REMARK  Name = 
REMARK  5 active torsions:
REMARK  status: ('A' for Active; 'I' for Inactive)
REMARK    1  A    between atoms: C_2  and  C_4
REMARK    2  A    between atoms: C_8  and  C_9
REMARK    3  A    between atoms: C_9  and  C_10
REMARK    4  A    between atoms: C_10  and  C_11
REMARK    5  A    between atoms: C_15  and  N_16
REMARK                            x       y       z     vdW  Elec       q    Type
REMARK                         _______ _______ _______ _____ _____    ______ ____
ROOT
ATOM      1  C   UNL     1      46.462   6.749  12.732  0.00  0.00    +0.000 C 
ENDROOT
BRANCH   1   2
ATOM      2  C   UNL     1      45.560   5.597  12.331  0.00  0.00    +0.000 A 
ATOM      3  C   UNL     1      44.586   5.159  13.236  0.00  0.00    +0.000 A 
ATOM      4  C   UNL     1      43.703   4.140  12.891  0.00  0.00    +0.000 A 
ATOM      5  C   UNL     1      43.776   3.553  11.627  0.00  0.00    +0.000 A 
ATOM      6  C   UNL     1      44.737   3.949  10.692  0.00  0.00    +0.000 A 
ATOM      7  C   UNL     1      45.652   4.943  11.087  0.00  0.00    +0.000 A 
BRANCH   6   8
ATOM      8  N   UNL     1      44.759   3.419   9.414  0.00  0.00    +0.000 N 
ATOM      9  C   UNL     1      44.715   1.972   9.192  0.00  0.00    +0.000 C 
ATOM     10  C   UNL     1      45.983   1.500   8.483  0.00  0.00    +0.000 C 
ATOM     11  C   UNL     1      46.269   2.335   7.236  0.00  0.00    +0.000 C 
ATOM     12  C   UNL     1      46.301   3.824   7.576  0.00  0.00    +0.000 C 
ATOM     13  C   UNL     1      45.001   4.266   8.249  0.00  0.00    +0.000 C 
ENDBRANCH   6   8
ENDBRANCH   1   2
BRANCH   1  14
ATOM     14  C   UNL     1      47.907   6.364  13.074  0.00  0.00    +0.000 C 
BRANCH  14  19
ATOM     15  C   UNL     1      48.002   4.926  16.472  0.00  0.00    +0.000 A 
ATOM     16  C   UNL     1      48.610   5.896  17.255  0.00  0.00    +0.000 A 
ATOM     17  C   UNL     1      48.989   7.085  16.643  0.00  0.00    +0.000 A 
ATOM     18  C   UNL     1      48.753   7.262  15.279  0.00  0.00    +0.000 A 
ATOM     19  C   UNL     1      48.145   6.234  14.557  0.00  0.00    +0.000 A 
ATOM     20  N   UNL     1      47.761   5.067  15.135  0.00  0.00    +0.000 NA
BRANCH  15  22
ATOM     21  N   UNL     1      48.592   2.878  17.630  0.00  0.00    +0.000 N 
ATOM     22  C   UNL     1      47.584   3.633  17.093  0.00  0.00    +0.000 C 
ATOM     23  O   UNL     1      46.415   3.263  17.138  0.00  0.00    +0.000 OA
ATOM     24  H   UNL     1      48.370   2.017  18.106  0.00  0.00    +0.000 HD
ATOM     25  H   UNL     1      49.538   3.249  17.644  0.00  0.00    +0.000 HD
ENDBRANCH  15  22
ENDBRANCH  14  19
ENDBRANCH   1  14
TORSDOF 5
ENDMDL
MODEL 3
REMARK VINA RESULT:    -7.181      2.591      6.846
REMARK INTER + INTRA:         -10.229
REMARK INTER:                  -9.115
REMARK INTRA:                  -1.115
REMARK UNBOUND:                -0.949
REMARK  Name = 
REMARK  5 active torsions:
REMARK  status: ('A' for Active; 'I' for Inactive)
REMARK    1  A    between atoms: C_2  and  C_4
REMARK    2  A    between atoms: C_8  and  C_9
REMARK    3  A    between atoms: C_9  and  C_10
REMARK    4  A    between atoms: C_10  and  C_11
REMARK    5  A    between atoms: C_15  and  N_16
REMARK                            x       y       z     vdW  Elec       q    Type
REMARK                         _______ _______ _______ _____ _____    ______ ____
ROOT
ATOM      1  C   UNL     1      46.689   4.072  13.676  0.00  0.00    +0.000 C 
ENDROOT
BRANCH   1   2
ATOM      2  C   UNL     1      45.520   4.033  12.709  0.00  0.00    +0.000 A 
ATOM      3  C   UNL     1      44.297   4.584  13.110  0.00  0.00    +0.000 A 
ATOM      4  C   UNL     1      43.214   4.617  12.238  0.00  0.00    +0.000 A 
ATOM      5  C   UNL     1      43.344   4.108  10.945  0.00  0.00    +0.000 A 
ATOM      6  C   UNL     1      44.541   3.538  10.502  0.00  0.00    +0.000 A 
ATOM      7  C   UNL     1      45.604   3.468  11.422  0.00  0.00    +0.000 A 
BRANCH   6   8
ATOM      8  N   UNL     1      44.690   3.102   9.197  0.00  0.00    +0.000 N 
ATOM      9  C   UNL     1      44.868   1.683   8.886  0.00  0.00    +0.000 C 
ATOM     10  C   UNL     1      46.218   1.446   8.212  0.00  0.00    +0.000 C 
ATOM     11  C   UNL     1      46.426   2.395   7.033  0.00  0.00    +0.000 C 
ATOM     12  C   UNL     1      46.227   3.847   7.463  0.00  0.00    +0.000 C 
ATOM     13  C   UNL     1      44.850   4.052   8.098  0.00  0.00    +0.000 C 
ENDBRANCH   6   8
ENDBRANCH   1   2
BRANCH   1  14
ATOM     14  C   UNL     1      46.910   5.415  14.385  0.00  0.00    +0.000 C 
BRANCH  14  19
ATOM     15  C   UNL     1      46.905   8.531  12.406  0.00  0.00    +0.000 A 
ATOM     16  C   UNL     1      48.152   8.572  11.800  0.00  0.00    +0.000 A 
ATOM     17  C   UNL     1      49.028   7.520  12.037  0.00  0.00    +0.000 A 
ATOM     18  C   UNL     1      48.633   6.470  12.868  0.00  0.00    +0.000 A 
ATOM     19  C   UNL     1      47.364   6.506  13.448  0.00  0.00    +0.000 A 
ATOM     20  N   UNL     1      46.490   7.521  13.226  0.00  0.00    +0.000 NA
BRANCH  15  22
ATOM     21  N   UNL     1      44.746   9.544  12.843  0.00  0.00    +0.000 N 
ATOM     22  C   UNL     1      45.937   9.646  12.178  0.00  0.00    +0.000 C 
ATOM     23  O   UNL     1      46.184  10.605  11.453  0.00  0.00    +0.000 OA
ATOM     24  H   UNL     1      44.068  10.287  12.769  0.00  0.00    +0.000 HD
ATOM     25  H   UNL     1      44.603   8.777  13.495  0.00  0.00    +0.000 HD
ENDBRANCH  15  22
ENDBRANCH  14  19
ENDBRANCH   1  14
TORSDOF 5
ENDMDL
MODEL 4
REMARK VINA RESULT:    -7.133      2.266      3.956
REMARK INTER + INTRA:         -10.166
REMARK INTER:                  -9.278
REMARK INTRA:                  -0.888
REMARK UNBOUND:                -0.949
REMARK  Name = 
REMARK  5 active torsions:
REMARK  status: ('A' for Active; 'I' for Inactive)
REMARK    1  A    between atoms: C_2  and  C_4
REMARK    2  A    between atoms: C_8  and  C_9
REMARK    3  A    between atoms: C_9  and  C_10
REMARK    4  A    between atoms: C_10  and  C_11
REMARK    5  A    between atoms: C_15  and  N_16
REMARK                            x       y       z     vdW  Elec       q    Type
REMARK                         _______ _______ _______ _____ _____    ______ ____
ROOT
ATOM      1  C   UNL     1      45.137   5.684  11.393  0.00  0.00    +0.000 C 
ENDROOT
BRANCH   1   2
ATOM      2  C   UNL     1      46.352   5.959  12.259  0.00  0.00    +0.000 A 
ATOM      3  C   UNL     1      47.325   6.849  11.788  0.00  0.00    +0.000 A 
ATOM      4  C   UNL     1      48.430   7.172  12.570  0.00  0.00    +0.000 A 
ATOM      5  C   UNL     1      48.569   6.617  13.842  0.00  0.00    +0.000 A 
ATOM      6  C   UNL     1      47.630   5.716  14.353  0.00  0.00    +0.000 A 
ATOM      7  C   UNL     1      46.551   5.365  13.520  0.00  0.00    +0.000 A 
BRANCH   6   8
ATOM      8  N   UNL     1      47.731   5.225  15.643  0.00  0.00    +0.000 N 
ATOM      9  C   UNL     1      48.581   5.878  16.640  0.00  0.00    +0.000 C 
ATOM     10  C   UNL     1      49.682   4.930  17.110  0.00  0.00    +0.000 C 
ATOM     11  C   UNL     1      49.110   3.579  17.537  0.00  0.00    +0.000 C 
ATOM     12  C   UNL     1      48.248   2.980  16.428  0.00  0.00    +0.000 C 
ATOM     13  C   UNL     1      47.135   3.942  16.011  0.00  0.00    +0.000 C 
ENDBRANCH   6   8
ENDBRANCH   1   2
BRANCH   1  14
ATOM     14  C   UNL     1      45.383   5.741   9.879  0.00  0.00    +0.000 C 
BRANCH  14  19
ATOM     15  C   UNL     1      46.345   3.032   7.564  0.00  0.00    +0.000 A 
ATOM     16  C   UNL     1      45.737   1.894   8.072  0.00  0.00    +0.000 A 
ATOM     17  C   UNL     1      44.960   2.025   9.217  0.00  0.00    +0.000 A 
ATOM     18  C   UNL     1      44.820   3.278   9.813  0.00  0.00    +0.000 A 
ATOM     19  C   UNL     1      45.471   4.375   9.247  0.00  0.00    +0.000 A 
ATOM     20  N   UNL     1      46.231   4.272   8.126  0.00  0.00    +0.000 NA
BRANCH  15  22
ATOM     21  N   UNL     1      48.501   2.591   6.545  0.00  0.00    +0.000 N 
ATOM     22  C   UNL     1      47.192   2.931   6.337  0.00  0.00    +0.000 C 
ATOM     23  O   UNL     1      46.753   3.125   5.208  0.00  0.00    +0.000 OA
ATOM     24  H   UNL     1      49.114   2.461   5.754  0.00  0.00    +0.000 HD
ATOM     25  H   UNL     1      48.813   2.363   7.485  0.00  0.00    +0.000 HD
ENDBRANCH  15  22
ENDBRANCH  14  19
ENDBRANCH   1  14
TORSDOF 5
ENDMDL
MODEL 5
REMARK VINA RESULT:    -6.894      1.709      2.415
REMARK INTER + INTRA:          -9.859
REMARK INTER:                  -8.938
REMARK INTRA:                  -0.921
REMARK UNBOUND:                -0.949
REMARK  Name = 
REMARK  5 active torsions:
REMARK  status: ('A' for Active; 'I' for Inactive)
REMARK    1  A    between atoms: C_2  and  C_4
REMARK    2  A    between atoms: C_8  and  C_9
REMARK    3  A    between atoms: C_9  and  C_10
REMARK    4  A    between atoms: C_10  and  C_11
REMARK    5  A    between atoms: C_15  and  N_16
REMARK                            x       y       z     vdW  Elec       q    Type
REMARK                         _______ _______ _______ _____ _____    ______ ____
ROOT
ATOM      1  C   UNL     1      44.674   5.215  11.008  0.00  0.00    +0.000 C 
ENDROOT
BRANCH   1   2
ATOM      2  C   UNL     1      45.717   5.454  12.084  0.00  0.00    +0.000 A 
ATOM      3  C   UNL     1      45.828   4.530  13.130  0.00  0.00    +0.000 A 
ATOM      4  C   UNL     1      46.804   4.680  14.110  0.00  0.00    +0.000 A 
ATOM      5  C   UNL     1      47.692   5.755  14.049  0.00  0.00    +0.000 A 
ATOM      6  C   UNL     1      47.615   6.710  13.031  0.00  0.00    +0.000 A 
ATOM      7  C   UNL     1      46.584   6.563  12.084  0.00  0.00    +0.000 A 
BRANCH   6   8
ATOM      8  N   UNL     1      48.543   7.732  12.931  0.00  0.00    +0.000 N 
ATOM      9  C   UNL     1      49.034   8.188  11.630  0.00  0.00    +0.000 C 
ATOM     10  C   UNL     1      50.541   7.967  11.518  0.00  0.00    +0.000 C 
ATOM     11  C   UNL     1      51.280   8.545  12.724  0.00  0.00    +0.000 C 
ATOM     12  C   UNL     1      50.699   8.002  14.028  0.00  0.00    +0.000 C 
ATOM     13  C   UNL     1      49.197   8.276  14.120  0.00  0.00    +0.000 C 
ENDBRANCH   6   8
ENDBRANCH   1   2
BRANCH   1  14
ATOM     14  C   UNL     1      45.184   5.319   9.565  0.00  0.00    +0.000 C 
BRANCH  14  19
ATOM     15  C   UNL     1      46.544   2.750   7.290  0.00  0.00    +0.000 A 
ATOM     16  C   UNL     1      46.076   1.544   7.790  0.00  0.00    +0.000 A 
ATOM     17  C   UNL     1      45.260   1.577   8.915  0.00  0.00    +0.000 A 
ATOM     18  C   UNL     1      44.945   2.804   9.500  0.00  0.00    +0.000 A 
ATOM     19  C   UNL     1      45.463   3.974   8.943  0.00  0.00    +0.000 A 
ATOM     20  N   UNL     1      46.258   3.966   7.841  0.00  0.00    +0.000 NA
BRANCH  15  22
ATOM     21  N   UNL     1      48.763   2.588   6.326  0.00  0.00    +0.000 N 
ATOM     22  C   UNL     1      47.427   2.754   6.084  0.00  0.00    +0.000 C 
ATOM     23  O   UNL     1      46.994   2.886   4.943  0.00  0.00    +0.000 OA
ATOM     24  H   UNL     1      49.407   2.535   5.551  0.00  0.00    +0.000 HD
ATOM     25  H   UNL     1      49.079   2.405   7.274  0.00  0.00    +0.000 HD
ENDBRANCH  15  22
ENDBRANCH  14  19
ENDBRANCH   1  14
TORSDOF 5
ENDMDL
MODEL 6
REMARK VINA RESULT:    -6.790      3.374      7.308
REMARK INTER + INTRA:          -9.724
REMARK INTER:                  -8.692
REMARK INTRA:                  -1.031
REMARK UNBOUND:                -0.949
REMARK  Name = 
REMARK  5 active torsions:
REMARK  status: ('A' for Active; 'I' for Inactive)
REMARK    1  A    between atoms: C_2  and  C_4
REMARK    2  A    between atoms: C_8  and  C_9
REMARK    3  A    between atoms: C_9  and  C_10
REMARK    4  A    between atoms: C_10  and  C_11
REMARK    5  A    between atoms: C_15  and  N_16
REMARK                            x       y       z     vdW  Elec       q    Type
REMARK                         _______ _______ _______ _____ _____    ______ ____
ROOT
ATOM      1  C   UNL     1      48.896   6.901  13.094  0.00  0.00    +0.000 C 
ENDROOT
BRANCH   1   2
ATOM      2  C   UNL     1      47.488   7.237  12.639  0.00  0.00    +0.000 A 
ATOM      3  C   UNL     1      47.140   8.583  12.468  0.00  0.00    +0.000 A 
ATOM      4  C   UNL     1      45.878   8.936  12.002  0.00  0.00    +0.000 A 
ATOM      5  C   UNL     1      44.947   7.943  11.690  0.00  0.00    +0.000 A 
ATOM      6  C   UNL     1      45.243   6.587  11.855  0.00  0.00    +0.000 A 
ATOM      7  C   UNL     1      46.508   6.260  12.378  0.00  0.00    +0.000 A 
BRANCH   6   8
ATOM      8  N   UNL     1      44.347   5.604  11.475  0.00  0.00    +0.000 N 
ATOM      9  C   UNL     1      43.202   5.253  12.317  0.00  0.00    +0.000 C 
ATOM     10  C   UNL     1      43.291   3.796  12.764  0.00  0.00    +0.000 C 
ATOM     11  C   UNL     1      43.527   2.862  11.578  0.00  0.00    +0.000 C 
ATOM     12  C   UNL     1      44.744   3.308  10.770  0.00  0.00    +0.000 C 
ATOM     13  C   UNL     1      44.601   4.760  10.309  0.00  0.00    +0.000 C 
ENDBRANCH   6   8
ENDBRANCH   1   2
BRANCH   1  14
ATOM     14  C   UNL     1      49.354   7.598  14.382  0.00  0.00    +0.000 C 
BRANCH  14  19
ATOM     15  C   UNL     1      48.146   4.929  16.628  0.00  0.00    +0.000 A 
ATOM     16  C   UNL     1      48.081   5.519  17.882  0.00  0.00    +0.000 A 
ATOM     17  C   UNL     1      48.433   6.859  17.992  0.00  0.00    +0.000 A 
ATOM     18  C   UNL     1      48.837   7.559  16.855  0.00  0.00    +0.000 A 
ATOM     19  C   UNL     1      48.884   6.893  15.629  0.00  0.00    +0.000 A 
ATOM     20  N   UNL     1      48.540   5.586  15.497  0.00  0.00    +0.000 NA
BRANCH  15  22
ATOM     21  N   UNL     1      46.964   2.975  17.442  0.00  0.00    +0.000 N 
ATOM     22  C   UNL     1      47.779   3.490  16.471  0.00  0.00    +0.000 C 
ATOM     23  O   UNL     1      48.166   2.803  15.530  0.00  0.00    +0.000 OA
ATOM     24  H   UNL     1      46.642   2.021  17.368  0.00  0.00    +0.000 HD
ATOM     25  H   UNL     1      46.600   3.590  18.164  0.00  0.00    +0.000 HD
ENDBRANCH  15  22
ENDBRANCH  14  19
ENDBRANCH   1  14
TORSDOF 5
ENDMDL
MODEL 7
REMARK VINA RESULT:    -6.744      3.955      7.661
REMARK INTER + INTRA:          -9.665
REMARK INTER:                  -8.748
REMARK INTRA:                  -0.917
REMARK UNBOUND:                -0.949
REMARK  Name = 
REMARK  5 active torsions:
REMARK  status: ('A' for Active; 'I' for Inactive)
REMARK    1  A    between atoms: C_2  and  C_4
REMARK    2  A    between atoms: C_8  and  C_9
REMARK    3  A    between atoms: C_9  and  C_10
REMARK    4  A    between atoms: C_10  and  C_11
REMARK    5  A    between atoms: C_15  and  N_16
REMARK                            x       y       z     vdW  Elec       q    Type
REMARK                         _______ _______ _______ _____ _____    ______ ____
ROOT
ATOM      1  C   UNL     1      49.472   6.846  14.902  0.00  0.00    +0.000 C 
ENDROOT
BRANCH   1   2
ATOM      2  C   UNL     1      48.471   6.783  13.763  0.00  0.00    +0.000 A 
ATOM      3  C   UNL     1      48.745   7.493  12.588  0.00  0.00    +0.000 A 
ATOM      4  C   UNL     1      47.882   7.423  11.499  0.00  0.00    +0.000 A 
ATOM      5  C   UNL     1      46.737   6.629  11.568  0.00  0.00    +0.000 A 
ATOM      6  C   UNL     1      46.415   5.909  12.722  0.00  0.00    +0.000 A 
ATOM      7  C   UNL     1      47.276   6.041  13.827  0.00  0.00    +0.000 A 
BRANCH   6   8
ATOM      8  N   UNL     1      45.319   5.065  12.761  0.00  0.00    +0.000 N 
ATOM      9  C   UNL     1      45.455   3.631  12.497  0.00  0.00    +0.000 C 
ATOM     10  C   UNL     1      44.638   3.232  11.270  0.00  0.00    +0.000 C 
ATOM     11  C   UNL     1      43.199   3.735  11.370  0.00  0.00    +0.000 C 
ATOM     12  C   UNL     1      43.167   5.238  11.638  0.00  0.00    +0.000 C 
ATOM     13  C   UNL     1      43.963   5.593  12.895  0.00  0.00    +0.000 C 
ENDBRANCH   6   8
ENDBRANCH   1   2
BRANCH   1  14
ATOM     14  C   UNL     1      48.880   7.173  16.279  0.00  0.00    +0.000 C 
BRANCH  14  19
ATOM     15  C   UNL     1      49.181   3.700  17.493  0.00  0.00    +0.000 A 
ATOM     16  C   UNL     1      48.633   3.717  18.767  0.00  0.00    +0.000 A 
ATOM     17  C   UNL     1      48.124   4.920  19.243  0.00  0.00    +0.000 A 
ATOM     18  C   UNL     1      48.183   6.057  18.437  0.00  0.00    +0.000 A 
ATOM     19  C   UNL     1      48.758   5.962  17.169  0.00  0.00    +0.000 A 
ATOM     20  N   UNL     1      49.256   4.796  16.681  0.00  0.00    +0.000 NA
BRANCH  15  22
ATOM     21  N   UNL     1      50.729   1.844  17.696  0.00  0.00    +0.000 N 
ATOM     22  C   UNL     1      49.741   2.426  16.948  0.00  0.00    +0.000 C 
ATOM     23  O   UNL     1      49.344   1.917  15.905  0.00  0.00    +0.000 OA
ATOM     24  H   UNL     1      51.116   0.958  17.408  0.00  0.00    +0.000 HD
ATOM     25  H   UNL     1      50.981   2.252  18.592  0.00  0.00    +0.000 HD
ENDBRANCH  15  22
ENDBRANCH  14  19
ENDBRANCH   1  14
TORSDOF 5
ENDMDL
MODEL 8
REMARK VINA RESULT:    -6.694      2.404      6.714
REMARK INTER + INTRA:          -9.600
REMARK INTER:                  -8.776
REMARK INTRA:                  -0.823
REMARK UNBOUND:                -0.949
REMARK  Name = 
REMARK  5 active torsions:
REMARK  status: ('A' for Active; 'I' for Inactive)
REMARK    1  A    between atoms: C_2  and  C_4
REMARK    2  A    between atoms: C_8  and  C_9
REMARK    3  A    between atoms: C_9  and  C_10
REMARK    4  A    between atoms: C_10  and  C_11
REMARK    5  A    between atoms: C_15  and  N_16
REMARK                            x       y       z     vdW  Elec       q    Type
REMARK                         _______ _______ _______ _____ _____    ______ ____
ROOT
ATOM      1  C   UNL     1      45.619   6.620  12.543  0.00  0.00    +0.000 C 
ENDROOT
BRANCH   1   2
ATOM      2  C   UNL     1      45.015   5.311  12.069  0.00  0.00    +0.000 A 
ATOM      3  C   UNL     1      44.126   4.637  12.914  0.00  0.00    +0.000 A 
ATOM      4  C   UNL     1      43.508   3.461  12.500  0.00  0.00    +0.000 A 
ATOM      5  C   UNL     1      43.763   2.950  11.227  0.00  0.00    +0.000 A 
ATOM      6  C   UNL     1      44.651   3.581  10.351  0.00  0.00    +0.000 A 
ATOM      7  C   UNL     1      45.304   4.739  10.815  0.00  0.00    +0.000 A 
BRANCH   6   8
ATOM      8  N   UNL     1      44.846   3.114   9.063  0.00  0.00    +0.000 N 
ATOM      9  C   UNL     1      44.960   1.682   8.784  0.00  0.00    +0.000 C 
ATOM     10  C   UNL     1      46.329   1.358   8.189  0.00  0.00    +0.000 C 
ATOM     11  C   UNL     1      46.653   2.272   7.009  0.00  0.00    +0.000 C 
ATOM     12  C   UNL     1      46.513   3.741   7.405  0.00  0.00    +0.000 C 
ATOM     13  C   UNL     1      45.118   4.033   7.960  0.00  0.00    +0.000 C 
ENDBRANCH   6   8
ENDBRANCH   1   2
BRANCH   1  14
ATOM     14  C   UNL     1      47.066   6.531  13.047  0.00  0.00    +0.000 C 
BRANCH  14  19
ATOM     15  C   UNL     1      50.004   8.226  11.592  0.00  0.00    +0.000 A 
ATOM     16  C   UNL     1      49.601   9.539  11.400  0.00  0.00    +0.000 A 
ATOM     17  C   UNL     1      48.312   9.890  11.783  0.00  0.00    +0.000 A 
ATOM     18  C   UNL     1      47.473   8.922  12.338  0.00  0.00    +0.000 A 
ATOM     19  C   UNL     1      47.949   7.619  12.491  0.00  0.00    +0.000 A 
ATOM     20  N   UNL     1      49.207   7.256  12.128  0.00  0.00    +0.000 NA
BRANCH  15  22
ATOM     21  N   UNL     1      52.361   8.016  12.123  0.00  0.00    +0.000 N 
ATOM     22  C   UNL     1      51.382   7.811  11.189  0.00  0.00    +0.000 C 
ATOM     23  O   UNL     1      51.633   7.307  10.099  0.00  0.00    +0.000 OA
ATOM     24  H   UNL     1      53.304   7.714  11.931  0.00  0.00    +0.000 HD
ATOM     25  H   UNL     1      52.106   8.364  13.043  0.00  0.00    +0.000 HD
ENDBRANCH  15  22
ENDBRANCH  14  19
ENDBRANCH   1  14
TORSDOF 5
ENDMDL
MODEL 9
REMARK VINA RESULT:    -6.679      2.572      5.025
REMARK INTER + INTRA:          -9.580
REMARK INTER:                  -8.651
REMARK INTRA:                  -0.930
REMARK UNBOUND:                -0.949
REMARK  Name = 
REMARK  5 active torsions:
REMARK  status: ('A' for Active; 'I' for Inactive)
REMARK    1  A    between atoms: C_2  and  C_4
REMARK    2  A    between atoms: C_8  and  C_9
REMARK    3  A    between atoms: C_9  and  C_10
REMARK    4  A    between atoms: C_10  and  C_11
REMARK    5  A    between atoms: C_15  and  N_16
REMARK                            x       y       z     vdW  Elec       q    Type
REMARK                         _______ _______ _______ _____ _____    ______ ____
ROOT
ATOM      1  C   UNL     1      46.929   6.831  11.691  0.00  0.00    +0.000 C 
ENDROOT
BRANCH   1   2
ATOM      2  C   UNL     1      47.839   6.889  12.904  0.00  0.00    +0.000 A 
ATOM      3  C   UNL     1      48.849   7.858  12.940  0.00  0.00    +0.000 A 
ATOM      4  C   UNL     1      49.673   7.983  14.054  0.00  0.00    +0.000 A 
ATOM      5  C   UNL     1      49.489   7.144  15.154  0.00  0.00    +0.000 A 
ATOM      6  C   UNL     1      48.501   6.155  15.162  0.00  0.00    +0.000 A 
ATOM      7  C   UNL     1      47.718   6.015  14.002  0.00  0.00    +0.000 A 
BRANCH   6   8
ATOM      8  N   UNL     1      48.273   5.376  16.282  0.00  0.00    +0.000 N 
ATOM      9  C   UNL     1      49.112   5.496  17.475  0.00  0.00    +0.000 C 
ATOM     10  C   UNL     1      49.830   4.178  17.762  0.00  0.00    +0.000 C 
ATOM     11  C   UNL     1      48.853   3.004  17.777  0.00  0.00    +0.000 C 
ATOM     12  C   UNL     1      48.033   2.962  16.489  0.00  0.00    +0.000 C 
ATOM     13  C   UNL     1      47.301   4.285  16.257  0.00  0.00    +0.000 C 
ENDBRANCH   6   8
ENDBRANCH   1   2
BRANCH   1  14
ATOM     14  C   UNL     1      45.425   6.860  11.997  0.00  0.00    +0.000 C 
BRANCH  14  19
ATOM     15  C   UNL     1      44.449   3.640  10.480  0.00  0.00    +0.000 A 
ATOM     16  C   UNL     1      43.639   3.030  11.426  0.00  0.00    +0.000 A 
ATOM     17  C   UNL     1      43.386   3.714  12.608  0.00  0.00    +0.000 A 
ATOM     18  C   UNL     1      43.950   4.975  12.806  0.00  0.00    +0.000 A 
ATOM     19  C   UNL     1      44.762   5.519  11.810  0.00  0.00    +0.000 A 
ATOM     20  N   UNL     1      45.018   4.870  10.644  0.00  0.00    +0.000 NA
BRANCH  15  22
ATOM     21  N   UNL     1      44.266   3.532   8.064  0.00  0.00    +0.000 N 
ATOM     22  C   UNL     1      44.746   2.933   9.197  0.00  0.00    +0.000 C 
ATOM     23  O   UNL     1      45.389   1.889   9.146  0.00  0.00    +0.000 OA
ATOM     24  H   UNL     1      44.473   3.130   7.162  0.00  0.00    +0.000 HD
ATOM     25  H   UNL     1      43.805   4.434   8.135  0.00  0.00    +0.000 HD
ENDBRANCH  15  22
ENDBRANCH  14  19
ENDBRANCH   1  14
TORSDOF 5
ENDMDL
