MODEL 1
REMARK VINA RESULT:    -8.217      0.000      0.000
REMARK INTER + INTRA:         -13.341
REMARK INTER:                 -12.059
REMARK INTRA:                  -1.281
REMARK UNBOUND:                -1.281
REMARK  Name = 
REMARK  11 active torsions:
REMARK  status: ('A' for Active; 'I' for Inactive)
REMARK    1  A    between atoms: C_1  and  C_2
REMARK    2  A    between atoms: C_6  and  C_7
REMARK    3  A    between atoms: C_7  and  O_8
REMARK    4  A    between atoms: O_8  and  C_9
REMARK    5  A    between atoms: C_9  and  C_10
REMARK    6  A    between atoms: C_13  and  C_14
REMARK    7  A    between atoms: C_14  and  N_15
REMARK    8  A    between atoms: C_16  and  C_18
REMARK    9  A    between atoms: C_19  and  C_20
REMARK   10  A    between atoms: C_24  and  O_25
REMARK   11  A    between atoms: C_27  and  O_28
REMARK                            x       y       z     vdW  Elec       q    Type
REMARK                         _______ _______ _______ _____ _____    ______ ____
ROOT
ATOM      1  N   UNL     1      48.296   6.901  14.782  0.00  0.00    +0.000 N 
ATOM      2  C   UNL     1      49.517   7.130  15.344  0.00  0.00    +0.000 C 
ATOM      3  O   UNL     1      50.522   7.420  14.683  0.00  0.00    +0.000 OA
ATOM      4  H   UNL     1      47.593   6.450  15.358  0.00  0.00    +0.000 HD
ENDROOT
BRANCH   2   5
ATOM      5  C   UNL     1      49.538   7.046  16.807  0.00  0.00    +0.000 A 
ATOM      6  C   UNL     1      49.934   8.079  17.653  0.00  0.00    +0.000 A 
ATOM      7  C   UNL     1      50.393   9.459  17.337  0.00  0.00    +0.000 C 
ATOM      8  N   UNL     1      49.823   7.630  18.950  0.00  0.00    +0.000 N 
ATOM      9  C   UNL     1      49.353   6.345  18.962  0.00  0.00    +0.000 A 
ATOM     10  N   UNL     1      49.137   5.599  20.060  0.00  0.00    +0.000 NA
ATOM     11  C   UNL     1      48.676   4.379  19.735  0.00  0.00    +0.000 A 
ATOM     12  N   UNL     1      48.416   3.864  18.528  0.00  0.00    +0.000 NA
ATOM     13  C   UNL     1      48.653   4.666  17.491  0.00  0.00    +0.000 A 
ATOM     14  C   UNL     1      49.144   5.959  17.649  0.00  0.00    +0.000 A 
ATOM     15  H   UNL     1      50.050   8.157  19.782  0.00  0.00    +0.000 HD
BRANCH  11  16
ATOM     16  O   UNL     1      48.449   3.560  20.797  0.00  0.00    +0.000 OA
ATOM     17  H   UNL     1      47.715   4.034  21.217  0.00  0.00    +0.000 HD
ENDBRANCH  11  16
BRANCH  13  18
ATOM     18  O   UNL     1      48.363   4.126  16.272  0.00  0.00    +0.000 OA
ATOM     19  H   UNL     1      47.401   3.985  16.364  0.00  0.00    +0.000 HD
ENDBRANCH  13  18
ENDBRANCH   2   5
BRANCH   1  20
ATOM     20  C   UNL     1      48.076   6.982  13.360  0.00  0.00    +0.000 C 
BRANCH  20  24
ATOM     21  C   UNL     1      44.338   5.202  12.017  0.00  0.00    +0.000 A 
ATOM     22  C   UNL     1      45.005   4.694  13.138  0.00  0.00    +0.000 A 
ATOM     23  C   UNL     1      46.215   5.248  13.572  0.00  0.00    +0.000 A 
ATOM     24  C   UNL     1      46.792   6.334  12.898  0.00  0.00    +0.000 A 
ATOM     25  C   UNL     1      46.126   6.836  11.771  0.00  0.00    +0.000 A 
ATOM     26  C   UNL     1      44.913   6.283  11.337  0.00  0.00    +0.000 A 
BRANCH  21  27
ATOM     27  C   UNL     1      43.046   4.583  11.545  0.00  0.00    +0.000 C 
BRANCH  27  28
ATOM     28  O   UNL     1      43.270   4.012  10.260  0.00  0.00    +0.000 OA
BRANCH  28  29
ATOM     29  C   UNL     1      44.055   2.819  10.308  0.00  0.00    +0.000 C 
BRANCH  29  35
ATOM     30  C   UNL     1      46.983   0.166   7.471  0.00  0.00    +0.000 C 
ATOM     31  C   UNL     1      46.452   1.525   7.810  0.00  0.00    +0.000 A 
ATOM     32  C   UNL     1      46.870   2.650   7.109  0.00  0.00    +0.000 A 
ATOM     33  C   UNL     1      46.353   3.887   7.467  0.00  0.00    +0.000 A 
ATOM     34  C   UNL     1      45.437   3.965   8.511  0.00  0.00    +0.000 A 
ATOM     35  C   UNL     1      45.048   2.796   9.164  0.00  0.00    +0.000 A 
ATOM     36  N   UNL     1      45.559   1.583   8.828  0.00  0.00    +0.000 NA
ENDBRANCH  29  35
ENDBRANCH  28  29
ENDBRANCH  27  28
ENDBRANCH  21  27
ENDBRANCH  20  24
ENDBRANCH   1  20
TORSDOF 9
ENDMDL
MODEL 2
REMARK VINA RESULT:    -7.842      1.543      2.400
REMARK INTER + INTRA:         -12.791
REMARK INTER:                 -11.758
REMARK INTRA:                  -1.032
REMARK UNBOUND:                -1.281
REMARK  Name = 
REMARK  11 active torsions:
REMARK  status: ('A' for Active; 'I' for Inactive)
REMARK    1  A    between atoms: C_1  and  C_2
REMARK    2  A    between atoms: C_6  and  C_7
REMARK    3  A    between atoms: C_7  and  O_8
REMARK    4  A    between atoms: O_8  and  C_9
REMARK    5  A    between atoms: C_9  and  C_10
REMARK    6  A    between atoms: C_13  and  C_14
REMARK    7  A    between atoms: C_14  and  N_15
REMARK    8  A    between atoms: C_16  and  C_18
REMARK    9  A    between atoms: C_19  and  C_20
REMARK   10  A    between atoms: C_24  and  O_25
REMARK   11  A    between atoms: C_27  and  O_28
REMARK                            x       y       z     vdW  Elec       q    Type
REMARK                         _______ _______ _______ _____ _____    ______ ____
ROOT
ATOM      1  N   UNL     1      48.276   5.791  15.399  0.00  0.00    +0.000 N 
ATOM      2  C   UNL     1      49.332   6.039  16.224  0.00  0.00    +0.000 C 
ATOM      3  O   UNL     1      50.356   6.628  15.853  0.00  0.00    +0.000 OA
ATOM      4  H   UNL     1      47.589   5.113  15.711  0.00  0.00    +0.000 HD
ENDROOT
BRANCH   2   5
ATOM      5  C   UNL     1      49.145   5.587  17.605  0.00  0.00    +0.000 A 
ATOM      6  C   UNL     1      49.577   4.358  18.101  0.00  0.00    +0.000 A 
ATOM      7  C   UNL     1      50.309   3.253  17.425  0.00  0.00    +0.000 C 
ATOM      8  N   UNL     1      49.222   4.290  19.429  0.00  0.00    +0.000 N 
ATOM      9  C   UNL     1      48.590   5.444  19.805  0.00  0.00    +0.000 A 
ATOM     10  N   UNL     1      48.103   5.707  21.032  0.00  0.00    +0.000 NA
ATOM     11  C   UNL     1      47.538   6.926  21.077  0.00  0.00    +0.000 A 
ATOM     12  N   UNL     1      47.425   7.845  20.111  0.00  0.00    +0.000 NA
ATOM     13  C   UNL     1      47.935   7.510  18.927  0.00  0.00    +0.000 A 
ATOM     14  C   UNL     1      48.545   6.280  18.703  0.00  0.00    +0.000 A 
ATOM     15  H   UNL     1      49.395   3.512  20.050  0.00  0.00    +0.000 HD
BRANCH  11  16
ATOM     16  O   UNL     1      47.008   7.258  22.285  0.00  0.00    +0.000 OA
ATOM     17  H   UNL     1      47.504   8.070  22.467  0.00  0.00    +0.000 HD
ENDBRANCH  11  16
BRANCH  13  18
ATOM     18  O   UNL     1      47.824   8.471  17.965  0.00  0.00    +0.000 OA
ATOM     19  H   UNL     1      47.209   9.091  18.400  0.00  0.00    +0.000 HD
ENDBRANCH  13  18
ENDBRANCH   2   5
BRANCH   1  20
ATOM     20  C   UNL     1      48.264   6.201  14.018  0.00  0.00    +0.000 C 
BRANCH  20  24
ATOM     21  C   UNL     1      44.484   5.432  12.002  0.00  0.00    +0.000 A 
ATOM     22  C   UNL     1      45.340   6.443  11.548  0.00  0.00    +0.000 A 
ATOM     23  C   UNL     1      46.551   6.710  12.195  0.00  0.00    +0.000 A 
ATOM     24  C   UNL     1      46.947   5.967  13.317  0.00  0.00    +0.000 A 
ATOM     25  C   UNL     1      46.085   4.960  13.774  0.00  0.00    +0.000 A 
ATOM     26  C   UNL     1      44.872   4.691  13.125  0.00  0.00    +0.000 A 
BRANCH  21  27
ATOM     27  C   UNL     1      43.171   5.167  11.309  0.00  0.00    +0.000 C 
BRANCH  27  28
ATOM     28  O   UNL     1      43.447   4.591  10.036  0.00  0.00    +0.000 OA
BRANCH  28  29
ATOM     29  C   UNL     1      44.009   3.280  10.127  0.00  0.00    +0.000 C 
BRANCH  29  35
ATOM     30  C   UNL     1      46.811   0.157   7.666  0.00  0.00    +0.000 C 
ATOM     31  C   UNL     1      46.389   1.580   7.867  0.00  0.00    +0.000 A 
ATOM     32  C   UNL     1      46.937   2.603   7.101  0.00  0.00    +0.000 A 
ATOM     33  C   UNL     1      46.517   3.905   7.331  0.00  0.00    +0.000 A 
ATOM     34  C   UNL     1      45.567   4.149   8.318  0.00  0.00    +0.000 A 
ATOM     35  C   UNL     1      45.046   3.076   9.042  0.00  0.00    +0.000 A 
ATOM     36  N   UNL     1      45.461   1.800   8.830  0.00  0.00    +0.000 NA
ENDBRANCH  29  35
ENDBRANCH  28  29
ENDBRANCH  27  28
ENDBRANCH  21  27
ENDBRANCH  20  24
ENDBRANCH   1  20
TORSDOF 9
ENDMDL
MODEL 3
REMARK VINA RESULT:    -7.655      2.199      9.278
REMARK INTER + INTRA:         -12.517
REMARK INTER:                 -11.087
REMARK INTRA:                  -1.430
REMARK UNBOUND:                -1.281
REMARK  Name = 
REMARK  11 active torsions:
REMARK  status: ('A' for Active; 'I' for Inactive)
REMARK    1  A    between atoms: C_1  and  C_2
REMARK    2  A    between atoms: C_6  and  C_7
REMARK    3  A    between atoms: C_7  and  O_8
REMARK    4  A    between atoms: O_8  and  C_9
REMARK    5  A    between atoms: C_9  and  C_10
REMARK    6  A    between atoms: C_13  and  C_14
REMARK    7  A    between atoms: C_14  and  N_15
REMARK    8  A    between atoms: C_16  and  C_18
REMARK    9  A    between atoms: C_19  and  C_20
REMARK   10  A    between atoms: C_24  and  O_25
REMARK   11  A    between atoms: C_27  and  O_28
REMARK                            x       y       z     vdW  Elec       q    Type
REMARK                         _______ _______ _______ _____ _____    ______ ____
ROOT
ATOM      1  N   UNL     1      45.706   5.833  11.081  0.00  0.00    +0.000 N 
ATOM      2  C   UNL     1      44.556   5.217  10.687  0.00  0.00    +0.000 C 
ATOM      3  O   UNL     1      43.444   5.757  10.747  0.00  0.00    +0.000 OA
ATOM      4  H   UNL     1      46.526   5.251  11.215  0.00  0.00    +0.000 HD
ENDROOT
BRANCH   2   5
ATOM      5  C   UNL     1      44.743   3.868  10.146  0.00  0.00    +0.000 A 
ATOM      6  C   UNL     1      44.106   2.726  10.629  0.00  0.00    +0.000 A 
ATOM      7  C   UNL     1      43.118   2.570  11.731  0.00  0.00    +0.000 C 
ATOM      8  N   UNL     1      44.531   1.655   9.877  0.00  0.00    +0.000 N 
ATOM      9  C   UNL     1      45.409   2.076   8.915  0.00  0.00    +0.000 A 
ATOM     10  N   UNL     1      46.024   1.287   8.016  0.00  0.00    +0.000 NA
ATOM     11  C   UNL     1      46.827   2.004   7.211  0.00  0.00    +0.000 A 
ATOM     12  N   UNL     1      47.058   3.322   7.199  0.00  0.00    +0.000 NA
ATOM     13  C   UNL     1      46.409   4.034   8.119  0.00  0.00    +0.000 A 
ATOM     14  C   UNL     1      45.547   3.448   9.040  0.00  0.00    +0.000 A 
ATOM     15  H   UNL     1      44.247   0.693  10.001  0.00  0.00    +0.000 HD
BRANCH  11  16
ATOM     16  O   UNL     1      47.497   1.271   6.282  0.00  0.00    +0.000 OA
ATOM     17  H   UNL     1      48.079   1.955   5.918  0.00  0.00    +0.000 HD
ENDBRANCH  11  16
BRANCH  13  18
ATOM     18  O   UNL     1      46.646   5.377   8.074  0.00  0.00    +0.000 OA
ATOM     19  H   UNL     1      46.429   5.567   7.142  0.00  0.00    +0.000 HD
ENDBRANCH  13  18
ENDBRANCH   2   5
BRANCH   1  20
ATOM     20  C   UNL     1      45.721   7.177  11.599  0.00  0.00    +0.000 C 
BRANCH  20  24
ATOM     21  C   UNL     1      48.533   7.716  14.877  0.00  0.00    +0.000 A 
ATOM     22  C   UNL     1      47.724   8.776  14.452  0.00  0.00    +0.000 A 
ATOM     23  C   UNL     1      46.826   8.621  13.391  0.00  0.00    +0.000 A 
ATOM     24  C   UNL     1      46.706   7.394  12.723  0.00  0.00    +0.000 A 
ATOM     25  C   UNL     1      47.523   6.335  13.145  0.00  0.00    +0.000 A 
ATOM     26  C   UNL     1      48.421   6.490  14.211  0.00  0.00    +0.000 A 
BRANCH  21  27
ATOM     27  C   UNL     1      49.513   7.901  16.009  0.00  0.00    +0.000 C 
BRANCH  27  28
ATOM     28  O   UNL     1      48.834   7.636  17.233  0.00  0.00    +0.000 OA
BRANCH  28  29
ATOM     29  C   UNL     1      49.495   6.658  18.038  0.00  0.00    +0.000 C 
BRANCH  29  35
ATOM     30  C   UNL     1      50.542   1.986  17.182  0.00  0.00    +0.000 C 
ATOM     31  C   UNL     1      49.481   3.037  17.299  0.00  0.00    +0.000 A 
ATOM     32  C   UNL     1      48.140   2.723  17.108  0.00  0.00    +0.000 A 
ATOM     33  C   UNL     1      47.197   3.734  17.221  0.00  0.00    +0.000 A 
ATOM     34  C   UNL     1      47.618   5.026  17.518  0.00  0.00    +0.000 A 
ATOM     35  C   UNL     1      48.977   5.272  17.712  0.00  0.00    +0.000 A 
ATOM     36  N   UNL     1      49.907   4.290  17.591  0.00  0.00    +0.000 NA
ENDBRANCH  29  35
ENDBRANCH  28  29
ENDBRANCH  27  28
ENDBRANCH  21  27
ENDBRANCH  20  24
ENDBRANCH   1  20
TORSDOF 9
ENDMDL
MODEL 4
REMARK VINA RESULT:    -7.501      2.899      8.103
REMARK INTER + INTRA:         -12.291
REMARK INTER:                 -10.531
REMARK INTRA:                  -1.760
REMARK UNBOUND:                -1.281
REMARK  Name = 
REMARK  11 active torsions:
REMARK  status: ('A' for Active; 'I' for Inactive)
REMARK    1  A    between atoms: C_1  and  C_2
REMARK    2  A    between atoms: C_6  and  C_7
REMARK    3  A    between atoms: C_7  and  O_8
REMARK    4  A    between atoms: O_8  and  C_9
REMARK    5  A    between atoms: C_9  and  C_10
REMARK    6  A    between atoms: C_13  and  C_14
REMARK    7  A    between atoms: C_14  and  N_15
REMARK    8  A    between atoms: C_16  and  C_18
REMARK    9  A    between atoms: C_19  and  C_20
REMARK   10  A    between atoms: C_24  and  O_25
REMARK   11  A    between atoms: C_27  and  O_28
REMARK                            x       y       z     vdW  Elec       q    Type
REMARK                         _______ _______ _______ _____ _____    ______ ____
ROOT
ATOM      1  N   UNL     1      46.955   8.469  13.634  0.00  0.00    +0.000 N 
ATOM      2  C   UNL     1      47.083   7.435  12.755  0.00  0.00    +0.000 C 
ATOM      3  O   UNL     1      48.178   7.003  12.374  0.00  0.00    +0.000 OA
ATOM      4  H   UNL     1      46.043   8.905  13.713  0.00  0.00    +0.000 HD
ENDROOT
BRANCH   2   5
ATOM      5  C   UNL     1      45.814   6.844  12.322  0.00  0.00    +0.000 A 
ATOM      6  C   UNL     1      44.772   7.554  11.728  0.00  0.00    +0.000 A 
ATOM      7  C   UNL     1      44.670   8.997  11.377  0.00  0.00    +0.000 C 
ATOM      8  N   UNL     1      43.752   6.668  11.466  0.00  0.00    +0.000 N 
ATOM      9  C   UNL     1      44.113   5.408  11.858  0.00  0.00    +0.000 A 
ATOM     10  N   UNL     1      43.349   4.305  11.756  0.00  0.00    +0.000 NA
ATOM     11  C   UNL     1      43.991   3.225  12.233  0.00  0.00    +0.000 A 
ATOM     12  N   UNL     1      45.222   3.128  12.749  0.00  0.00    +0.000 NA
ATOM     13  C   UNL     1      45.916   4.263  12.813  0.00  0.00    +0.000 A 
ATOM     14  C   UNL     1      45.396   5.477  12.374  0.00  0.00    +0.000 A 
ATOM     15  H   UNL     1      42.861   6.895  11.046  0.00  0.00    +0.000 HD
BRANCH  11  16
ATOM     16  O   UNL     1      43.273   2.071  12.177  0.00  0.00    +0.000 OA
ATOM     17  H   UNL     1      43.107   1.933  13.122  0.00  0.00    +0.000 HD
ENDBRANCH  11  16
BRANCH  13  18
ATOM     18  O   UNL     1      47.174   4.136  13.325  0.00  0.00    +0.000 OA
ATOM     19  H   UNL     1      46.978   4.119  14.281  0.00  0.00    +0.000 HD
ENDBRANCH  13  18
ENDBRANCH   2   5
BRANCH   1  20
ATOM     20  C   UNL     1      48.095   9.145  14.199  0.00  0.00    +0.000 C 
BRANCH  20  24
ATOM     21  C   UNL     1      49.178   7.661  18.145  0.00  0.00    +0.000 A 
ATOM     22  C   UNL     1      48.329   8.766  18.009  0.00  0.00    +0.000 A 
ATOM     23  C   UNL     1      47.985   9.262  16.747  0.00  0.00    +0.000 A 
ATOM     24  C   UNL     1      48.476   8.661  15.578  0.00  0.00    +0.000 A 
ATOM     25  C   UNL     1      49.332   7.559  15.718  0.00  0.00    +0.000 A 
ATOM     26  C   UNL     1      49.676   7.061  16.982  0.00  0.00    +0.000 A 
BRANCH  21  27
ATOM     27  C   UNL     1      49.560   7.148  19.511  0.00  0.00    +0.000 C 
BRANCH  27  28
ATOM     28  O   UNL     1      48.429   6.487  20.070  0.00  0.00    +0.000 OA
BRANCH  28  29
ATOM     29  C   UNL     1      48.632   5.082  20.239  0.00  0.00    +0.000 C 
BRANCH  29  35
ATOM     30  C   UNL     1      50.413   1.963  16.960  0.00  0.00    +0.000 C 
ATOM     31  C   UNL     1      49.288   2.869  17.352  0.00  0.00    +0.000 A 
ATOM     32  C   UNL     1      48.169   3.012  16.539  0.00  0.00    +0.000 A 
ATOM     33  C   UNL     1      47.156   3.869  16.946  0.00  0.00    +0.000 A 
ATOM     34  C   UNL     1      47.289   4.559  18.146  0.00  0.00    +0.000 A 
ATOM     35  C   UNL     1      48.431   4.360  18.923  0.00  0.00    +0.000 A 
ATOM     36  N   UNL     1      49.432   3.532  18.526  0.00  0.00    +0.000 NA
ENDBRANCH  29  35
ENDBRANCH  28  29
ENDBRANCH  27  28
ENDBRANCH  21  27
ENDBRANCH  20  24
ENDBRANCH   1  20
TORSDOF 9
ENDMDL
MODEL 5
REMARK VINA RESULT:    -7.169      3.838      6.117
REMARK INTER + INTRA:         -11.804
REMARK INTER:                 -10.455
REMARK INTRA:                  -1.349
REMARK UNBOUND:                -1.281
REMARK  Name = 
REMARK  11 active torsions:
REMARK  status: ('A' for Active; 'I' for Inactive)
REMARK    1  A    between atoms: C_1  and  C_2
REMARK    2  A    between atoms: C_6  and  C_7
REMARK    3  A    between atoms: C_7  and  O_8
REMARK    4  A    between atoms: O_8  and  C_9
REMARK    5  A    between atoms: C_9  and  C_10
REMARK    6  A    between atoms: C_13  and  C_14
REMARK    7  A    between atoms: C_14  and  N_15
REMARK    8  A    between atoms: C_16  and  C_18
REMARK    9  A    between atoms: C_19  and  C_20
REMARK   10  A    between atoms: C_24  and  O_25
REMARK   11  A    between atoms: C_27  and  O_28
REMARK                            x       y       z     vdW  Elec       q    Type
REMARK                         _______ _______ _______ _____ _____    ______ ____
ROOT
ATOM      1  N   UNL     1      49.044   7.698  12.390  0.00  0.00    +0.000 N 
ATOM      2  C   UNL     1      49.275   8.994  12.742  0.00  0.00    +0.000 C 
ATOM      3  O   UNL     1      49.016   9.447  13.865  0.00  0.00    +0.000 OA
ATOM      4  H   UNL     1      49.066   7.470  11.402  0.00  0.00    +0.000 HD
ENDROOT
BRANCH   2   5
ATOM      5  C   UNL     1      49.895   9.808  11.693  0.00  0.00    +0.000 A 
ATOM      6  C   UNL     1      49.317  10.943  11.128  0.00  0.00    +0.000 A 
ATOM      7  C   UNL     1      48.018  11.608  11.420  0.00  0.00    +0.000 C 
ATOM      8  N   UNL     1      50.188  11.434  10.181  0.00  0.00    +0.000 N 
ATOM      9  C   UNL     1      51.314  10.658  10.134  0.00  0.00    +0.000 A 
ATOM     10  N   UNL     1      52.364  10.848   9.313  0.00  0.00    +0.000 NA
ATOM     11  C   UNL     1      53.308   9.913   9.511  0.00  0.00    +0.000 A 
ATOM     12  N   UNL     1      53.326   8.894  10.378  0.00  0.00    +0.000 NA
ATOM     13  C   UNL     1      52.252   8.775  11.157  0.00  0.00    +0.000 A 
ATOM     14  C   UNL     1      51.175   9.652  11.075  0.00  0.00    +0.000 A 
ATOM     15  H   UNL     1      50.036  12.246   9.599  0.00  0.00    +0.000 HD
BRANCH  11  16
ATOM     16  O   UNL     1      54.397  10.031   8.703  0.00  0.00    +0.000 OA
ATOM     17  H   UNL     1      55.083  10.181   9.371  0.00  0.00    +0.000 HD
ENDBRANCH  11  16
BRANCH  13  18
ATOM     18  O   UNL     1      52.302   7.741  12.045  0.00  0.00    +0.000 OA
ATOM     19  H   UNL     1      51.351   7.615  12.227  0.00  0.00    +0.000 HD
ENDBRANCH  13  18
ENDBRANCH   2   5
BRANCH   1  20
ATOM     20  C   UNL     1      48.479   6.740  13.307  0.00  0.00    +0.000 C 
BRANCH  20  24
ATOM     21  C   UNL     1      44.613   5.130  12.121  0.00  0.00    +0.000 A 
ATOM     22  C   UNL     1      45.210   6.161  11.386  0.00  0.00    +0.000 A 
ATOM     23  C   UNL     1      46.445   6.697  11.765  0.00  0.00    +0.000 A 
ATOM     24  C   UNL     1      47.127   6.213  12.891  0.00  0.00    +0.000 A 
ATOM     25  C   UNL     1      46.523   5.185  13.630  0.00  0.00    +0.000 A 
ATOM     26  C   UNL     1      45.286   4.646  13.250  0.00  0.00    +0.000 A 
BRANCH  21  27
ATOM     27  C   UNL     1      43.271   4.574  11.717  0.00  0.00    +0.000 C 
BRANCH  27  28
ATOM     28  O   UNL     1      43.375   4.085  10.383  0.00  0.00    +0.000 OA
BRANCH  28  29
ATOM     29  C   UNL     1      44.015   2.810  10.306  0.00  0.00    +0.000 C 
BRANCH  29  35
ATOM     30  C   UNL     1      46.977   0.171   7.491  0.00  0.00    +0.000 C 
ATOM     31  C   UNL     1      46.434   1.526   7.822  0.00  0.00    +0.000 A 
ATOM     32  C   UNL     1      46.846   2.653   7.119  0.00  0.00    +0.000 A 
ATOM     33  C   UNL     1      46.316   3.887   7.470  0.00  0.00    +0.000 A 
ATOM     34  C   UNL     1      45.396   3.961   8.510  0.00  0.00    +0.000 A 
ATOM     35  C   UNL     1      45.013   2.791   9.166  0.00  0.00    +0.000 A 
ATOM     36  N   UNL     1      45.536   1.581   8.837  0.00  0.00    +0.000 NA
ENDBRANCH  29  35
ENDBRANCH  28  29
ENDBRANCH  27  28
ENDBRANCH  21  27
ENDBRANCH  20  24
ENDBRANCH   1  20
TORSDOF 9
ENDMDL
MODEL 6
REMARK VINA RESULT:    -6.619      1.724      3.585
REMARK INTER + INTRA:         -10.996
REMARK INTER:                  -9.807
REMARK INTRA:                  -1.188
REMARK UNBOUND:                -1.281
REMARK  Name = 
REMARK  11 active torsions:
REMARK  status: ('A' for Active; 'I' for Inactive)
REMARK    1  A    between atoms: C_1  and  C_2
REMARK    2  A    between atoms: C_6  and  C_7
REMARK    3  A    between atoms: C_7  and  O_8
REMARK    4  A    between atoms: O_8  and  C_9
REMARK    5  A    between atoms: C_9  and  C_10
REMARK    6  A    between atoms: C_13  and  C_14
REMARK    7  A    between atoms: C_14  and  N_15
REMARK    8  A    between atoms: C_16  and  C_18
REMARK    9  A    between atoms: C_19  and  C_20
REMARK   10  A    between atoms: C_24  and  O_25
REMARK   11  A    between atoms: C_27  and  O_28
REMARK                            x       y       z     vdW  Elec       q    Type
REMARK                         _______ _______ _______ _____ _____    ______ ____
ROOT
ATOM      1  N   UNL     1      47.945   5.421  16.481  0.00  0.00    +0.000 N 
ATOM      2  C   UNL     1      49.206   5.354  16.995  0.00  0.00    +0.000 C 
ATOM      3  O   UNL     1      49.897   4.328  16.960  0.00  0.00    +0.000 OA
ATOM      4  H   UNL     1      47.371   6.212  16.752  0.00  0.00    +0.000 HD
ENDROOT
BRANCH   2   5
ATOM      5  C   UNL     1      49.699   6.613  17.561  0.00  0.00    +0.000 A 
ATOM      6  C   UNL     1      49.598   6.968  18.905  0.00  0.00    +0.000 A 
ATOM      7  C   UNL     1      49.023   6.222  20.056  0.00  0.00    +0.000 C 
ATOM      8  N   UNL     1      50.166   8.213  19.056  0.00  0.00    +0.000 N 
ATOM      9  C   UNL     1      50.643   8.660  17.854  0.00  0.00    +0.000 A 
ATOM     10  N   UNL     1      51.247   9.843  17.641  0.00  0.00    +0.000 NA
ATOM     11  C   UNL     1      51.596   9.983  16.350  0.00  0.00    +0.000 A 
ATOM     12  N   UNL     1      51.430   9.134  15.329  0.00  0.00    +0.000 NA
ATOM     13  C   UNL     1      50.826   7.984  15.622  0.00  0.00    +0.000 A 
ATOM     14  C   UNL     1      50.389   7.681  16.908  0.00  0.00    +0.000 A 
ATOM     15  H   UNL     1      50.231   8.735  19.919  0.00  0.00    +0.000 HD
BRANCH  11  16
ATOM     16  O   UNL     1      52.201  11.165  16.054  0.00  0.00    +0.000 OA
ATOM     17  H   UNL     1      51.856  11.309  15.160  0.00  0.00    +0.000 HD
ENDBRANCH  11  16
BRANCH  13  18
ATOM     18  O   UNL     1      50.686   7.128  14.569  0.00  0.00    +0.000 OA
ATOM     19  H   UNL     1      49.848   6.686  14.807  0.00  0.00    +0.000 HD
ENDBRANCH  13  18
ENDBRANCH   2   5
BRANCH   1  20
ATOM     20  C   UNL     1      47.312   4.293  15.846  0.00  0.00    +0.000 C 
BRANCH  20  24
ATOM     21  C   UNL     1      45.976   5.136  11.791  0.00  0.00    +0.000 A 
ATOM     22  C   UNL     1      45.820   3.858  12.339  0.00  0.00    +0.000 A 
ATOM     23  C   UNL     1      46.257   3.570  13.636  0.00  0.00    +0.000 A 
ATOM     24  C   UNL     1      46.862   4.557  14.429  0.00  0.00    +0.000 A 
ATOM     25  C   UNL     1      47.024   5.834  13.874  0.00  0.00    +0.000 A 
ATOM     26  C   UNL     1      46.583   6.124  12.575  0.00  0.00    +0.000 A 
BRANCH  21  27
ATOM     27  C   UNL     1      45.520   5.430  10.383  0.00  0.00    +0.000 C 
BRANCH  27  28
ATOM     28  O   UNL     1      44.389   4.612  10.102  0.00  0.00    +0.000 OA
BRANCH  28  29
ATOM     29  C   UNL     1      44.197   4.384   8.704  0.00  0.00    +0.000 C 
BRANCH  29  35
ATOM     30  C   UNL     1      47.457   3.005   5.368  0.00  0.00    +0.000 C 
ATOM     31  C   UNL     1      46.702   2.650   6.611  0.00  0.00    +0.000 A 
ATOM     32  C   UNL     1      46.882   1.417   7.229  0.00  0.00    +0.000 A 
ATOM     33  C   UNL     1      46.154   1.135   8.376  0.00  0.00    +0.000 A 
ATOM     34  C   UNL     1      45.269   2.086   8.871  0.00  0.00    +0.000 A 
ATOM     35  C   UNL     1      45.145   3.310   8.212  0.00  0.00    +0.000 A 
ATOM     36  N   UNL     1      45.845   3.588   7.082  0.00  0.00    +0.000 NA
ENDBRANCH  29  35
ENDBRANCH  28  29
ENDBRANCH  27  28
ENDBRANCH  21  27
ENDBRANCH  20  24
ENDBRANCH   1  20
TORSDOF 9
ENDMDL
MODEL 7
REMARK VINA RESULT:    -6.532      3.444      9.224
REMARK INTER + INTRA:         -10.868
REMARK INTER:                  -9.198
REMARK INTRA:                  -1.670
REMARK UNBOUND:                -1.281
REMARK  Name = 
REMARK  11 active torsions:
REMARK  status: ('A' for Active; 'I' for Inactive)
REMARK    1  A    between atoms: C_1  and  C_2
REMARK    2  A    between atoms: C_6  and  C_7
REMARK    3  A    between atoms: C_7  and  O_8
REMARK    4  A    between atoms: O_8  and  C_9
REMARK    5  A    between atoms: C_9  and  C_10
REMARK    6  A    between atoms: C_13  and  C_14
REMARK    7  A    between atoms: C_14  and  N_15
REMARK    8  A    between atoms: C_16  and  C_18
REMARK    9  A    between atoms: C_19  and  C_20
REMARK   10  A    between atoms: C_24  and  O_25
REMARK   11  A    between atoms: C_27  and  O_28
REMARK                            x       y       z     vdW  Elec       q    Type
REMARK                         _______ _______ _______ _____ _____    ______ ____
ROOT
ATOM      1  N   UNL     1      47.032   4.536  16.013  0.00  0.00    +0.000 N 
ATOM      2  C   UNL     1      47.067   4.242  14.682  0.00  0.00    +0.000 C 
ATOM      3  O   UNL     1      47.395   3.133  14.243  0.00  0.00    +0.000 OA
ATOM      4  H   UNL     1      46.979   5.514  16.275  0.00  0.00    +0.000 HD
ENDROOT
BRANCH   2   5
ATOM      5  C   UNL     1      46.645   5.339  13.806  0.00  0.00    +0.000 A 
ATOM      6  C   UNL     1      47.412   6.468  13.527  0.00  0.00    +0.000 A 
ATOM      7  C   UNL     1      48.777   6.842  13.989  0.00  0.00    +0.000 C 
ATOM      8  N   UNL     1      46.689   7.271  12.674  0.00  0.00    +0.000 N 
ATOM      9  C   UNL     1      45.487   6.683  12.384  0.00  0.00    +0.000 A 
ATOM     10  N   UNL     1      44.532   7.200  11.590  0.00  0.00    +0.000 NA
ATOM     11  C   UNL     1      43.471   6.379  11.510  0.00  0.00    +0.000 A 
ATOM     12  N   UNL     1      43.277   5.186  12.083  0.00  0.00    +0.000 NA
ATOM     13  C   UNL     1      44.269   4.741  12.852  0.00  0.00    +0.000 A 
ATOM     14  C   UNL     1      45.437   5.471  13.053  0.00  0.00    +0.000 A 
ATOM     15  H   UNL     1      46.984   8.164  12.305  0.00  0.00    +0.000 HD
BRANCH  11  16
ATOM     16  O   UNL     1      42.455   6.844  10.735  0.00  0.00    +0.000 OA
ATOM     17  H   UNL     1      42.863   7.655  10.396  0.00  0.00    +0.000 HD
ENDBRANCH  11  16
BRANCH  13  18
ATOM     18  O   UNL     1      44.056   3.514  13.409  0.00  0.00    +0.000 OA
ATOM     19  H   UNL     1      44.407   3.662  14.307  0.00  0.00    +0.000 HD
ENDBRANCH  13  18
ENDBRANCH   2   5
BRANCH   1  20
ATOM     20  C   UNL     1      47.372   3.568  17.024  0.00  0.00    +0.000 C 
BRANCH  20  24
ATOM     21  C   UNL     1      50.895   4.546  19.386  0.00  0.00    +0.000 A 
ATOM     22  C   UNL     1      49.617   4.899  19.835  0.00  0.00    +0.000 A 
ATOM     23  C   UNL     1      48.478   4.603  19.079  0.00  0.00    +0.000 A 
ATOM     24  C   UNL     1      48.582   3.938  17.849  0.00  0.00    +0.000 A 
ATOM     25  C   UNL     1      49.864   3.591  17.398  0.00  0.00    +0.000 A 
ATOM     26  C   UNL     1      51.006   3.886  18.156  0.00  0.00    +0.000 A 
BRANCH  21  27
ATOM     27  C   UNL     1      52.119   4.889  20.199  0.00  0.00    +0.000 C 
BRANCH  27  28
ATOM     28  O   UNL     1      52.168   6.304  20.352  0.00  0.00    +0.000 OA
BRANCH  28  29
ATOM     29  C   UNL     1      53.256   6.904  19.647  0.00  0.00    +0.000 C 
BRANCH  29  35
ATOM     30  C   UNL     1      50.288   9.152  16.517  0.00  0.00    +0.000 C 
ATOM     31  C   UNL     1      51.449   8.225  16.705  0.00  0.00    +0.000 A 
ATOM     32  C   UNL     1      52.091   7.652  15.613  0.00  0.00    +0.000 A 
ATOM     33  C   UNL     1      53.158   6.795  15.842  0.00  0.00    +0.000 A 
ATOM     34  C   UNL     1      53.551   6.533  17.150  0.00  0.00    +0.000 A 
ATOM     35  C   UNL     1      52.874   7.151  18.202  0.00  0.00    +0.000 A 
ATOM     36  N   UNL     1      51.821   7.982  17.986  0.00  0.00    +0.000 NA
ENDBRANCH  29  35
ENDBRANCH  28  29
ENDBRANCH  27  28
ENDBRANCH  21  27
ENDBRANCH  20  24
ENDBRANCH   1  20
TORSDOF 9
ENDMDL
MODEL 8
REMARK VINA RESULT:    -6.439      3.788      6.168
REMARK INTER + INTRA:         -10.731
REMARK INTER:                  -9.571
REMARK INTRA:                  -1.160
REMARK UNBOUND:                -1.281
REMARK  Name = 
REMARK  11 active torsions:
REMARK  status: ('A' for Active; 'I' for Inactive)
REMARK    1  A    between atoms: C_1  and  C_2
REMARK    2  A    between atoms: C_6  and  C_7
REMARK    3  A    between atoms: C_7  and  O_8
REMARK    4  A    between atoms: O_8  and  C_9
REMARK    5  A    between atoms: C_9  and  C_10
REMARK    6  A    between atoms: C_13  and  C_14
REMARK    7  A    between atoms: C_14  and  N_15
REMARK    8  A    between atoms: C_16  and  C_18
REMARK    9  A    between atoms: C_19  and  C_20
REMARK   10  A    between atoms: C_24  and  O_25
REMARK   11  A    between atoms: C_27  and  O_28
REMARK                            x       y       z     vdW  Elec       q    Type
REMARK                         _______ _______ _______ _____ _____    ______ ____
ROOT
ATOM      1  N   UNL     1      49.831   7.782  13.224  0.00  0.00    +0.000 N 
ATOM      2  C   UNL     1      50.519   8.897  13.599  0.00  0.00    +0.000 C 
ATOM      3  O   UNL     1      50.643   9.250  14.779  0.00  0.00    +0.000 OA
ATOM      4  H   UNL     1      49.584   7.693  12.244  0.00  0.00    +0.000 HD
ENDROOT
BRANCH   2   5
ATOM      5  C   UNL     1      51.138   9.632  12.493  0.00  0.00    +0.000 A 
ATOM      6  C   UNL     1      52.509   9.684  12.246  0.00  0.00    +0.000 A 
ATOM      7  C   UNL     1      53.641   9.044  12.970  0.00  0.00    +0.000 C 
ATOM      8  N   UNL     1      52.709  10.465  11.131  0.00  0.00    +0.000 N 
ATOM      9  C   UNL     1      51.507  10.903  10.644  0.00  0.00    +0.000 A 
ATOM     10  N   UNL     1      51.337  11.695   9.570  0.00  0.00    +0.000 NA
ATOM     11  C   UNL     1      50.035  11.947   9.354  0.00  0.00    +0.000 A 
ATOM     12  N   UNL     1      48.964  11.518  10.032  0.00  0.00    +0.000 NA
ATOM     13  C   UNL     1      49.215  10.736  11.080  0.00  0.00    +0.000 A 
ATOM     14  C   UNL     1      50.509  10.385  11.453  0.00  0.00    +0.000 A 
ATOM     15  H   UNL     1      53.602  10.693  10.718  0.00  0.00    +0.000 HD
BRANCH  11  16
ATOM     16  O   UNL     1      49.785  12.757   8.291  0.00  0.00    +0.000 OA
ATOM     17  H   UNL     1      50.682  13.079   8.113  0.00  0.00    +0.000 HD
ENDBRANCH  11  16
BRANCH  13  18
ATOM     18  O   UNL     1      48.107  10.296  11.744  0.00  0.00    +0.000 OA
ATOM     19  H   UNL     1      47.407  10.553  11.114  0.00  0.00    +0.000 HD
ENDBRANCH  13  18
ENDBRANCH   2   5
BRANCH   1  20
ATOM     20  C   UNL     1      49.192   6.914  14.179  0.00  0.00    +0.000 C 
BRANCH  20  24
ATOM     21  C   UNL     1      45.576   4.965  12.742  0.00  0.00    +0.000 A 
ATOM     22  C   UNL     1      46.176   5.988  11.998  0.00  0.00    +0.000 A 
ATOM     23  C   UNL     1      47.330   6.632  12.456  0.00  0.00    +0.000 A 
ATOM     24  C   UNL     1      47.924   6.267  13.673  0.00  0.00    +0.000 A 
ATOM     25  C   UNL     1      47.317   5.247  14.419  0.00  0.00    +0.000 A 
ATOM     26  C   UNL     1      46.161   4.600  13.960  0.00  0.00    +0.000 A 
BRANCH  21  27
ATOM     27  C   UNL     1      44.319   4.291  12.249  0.00  0.00    +0.000 C 
BRANCH  27  28
ATOM     28  O   UNL     1      44.697   3.190  11.429  0.00  0.00    +0.000 OA
BRANCH  28  29
ATOM     29  C   UNL     1      44.063   3.205  10.148  0.00  0.00    +0.000 C 
BRANCH  29  35
ATOM     30  C   UNL     1      46.847   0.132   7.605  0.00  0.00    +0.000 C 
ATOM     31  C   UNL     1      46.427   1.550   7.837  0.00  0.00    +0.000 A 
ATOM     32  C   UNL     1      46.969   2.588   7.088  0.00  0.00    +0.000 A 
ATOM     33  C   UNL     1      46.551   3.886   7.347  0.00  0.00    +0.000 A 
ATOM     34  C   UNL     1      45.608   4.110   8.344  0.00  0.00    +0.000 A 
ATOM     35  C   UNL     1      45.092   3.023   9.051  0.00  0.00    +0.000 A 
ATOM     36  N   UNL     1      45.506   1.752   8.811  0.00  0.00    +0.000 NA
ENDBRANCH  29  35
ENDBRANCH  28  29
ENDBRANCH  27  28
ENDBRANCH  21  27
ENDBRANCH  20  24
ENDBRANCH   1  20
TORSDOF 9
ENDMDL
MODEL 9
REMARK VINA RESULT:    -6.359      3.532      9.328
REMARK INTER + INTRA:         -10.614
REMARK INTER:                  -9.012
REMARK INTRA:                  -1.602
REMARK UNBOUND:                -1.281
REMARK  Name = 
REMARK  11 active torsions:
REMARK  status: ('A' for Active; 'I' for Inactive)
REMARK    1  A    between atoms: C_1  and  C_2
REMARK    2  A    between atoms: C_6  and  C_7
REMARK    3  A    between atoms: C_7  and  O_8
REMARK    4  A    between atoms: O_8  and  C_9
REMARK    5  A    between atoms: C_9  and  C_10
REMARK    6  A    between atoms: C_13  and  C_14
REMARK    7  A    between atoms: C_14  and  N_15
REMARK    8  A    between atoms: C_16  and  C_18
REMARK    9  A    between atoms: C_19  and  C_20
REMARK   10  A    between atoms: C_24  and  O_25
REMARK   11  A    between atoms: C_27  and  O_28
REMARK                            x       y       z     vdW  Elec       q    Type
REMARK                         _______ _______ _______ _____ _____    ______ ____
ROOT
ATOM      1  N   UNL     1      46.896   4.466  15.116  0.00  0.00    +0.000 N 
ATOM      2  C   UNL     1      46.354   4.296  13.877  0.00  0.00    +0.000 C 
ATOM      3  O   UNL     1      46.325   3.204  13.295  0.00  0.00    +0.000 OA
ATOM      4  H   UNL     1      47.085   5.416  15.417  0.00  0.00    +0.000 HD
ENDROOT
BRANCH   2   5
ATOM      5  C   UNL     1      45.767   5.508  13.298  0.00  0.00    +0.000 A 
ATOM      6  C   UNL     1      44.423   5.653  12.962  0.00  0.00    +0.000 A 
ATOM      7  C   UNL     1      43.288   4.700  13.101  0.00  0.00    +0.000 C 
ATOM      8  N   UNL     1      44.250   6.918  12.447  0.00  0.00    +0.000 N 
ATOM      9  C   UNL     1      45.440   7.595  12.458  0.00  0.00    +0.000 A 
ATOM     10  N   UNL     1      45.632   8.851  12.016  0.00  0.00    +0.000 NA
ATOM     11  C   UNL     1      46.914   9.225  12.162  0.00  0.00    +0.000 A 
ATOM     12  N   UNL     1      47.945   8.542  12.672  0.00  0.00    +0.000 NA
ATOM     13  C   UNL     1      47.673   7.307  13.090  0.00  0.00    +0.000 A 
ATOM     14  C   UNL     1      46.399   6.756  13.001  0.00  0.00    +0.000 A 
ATOM     15  H   UNL     1      43.382   7.308  12.106  0.00  0.00    +0.000 HD
BRANCH  11  16
ATOM     16  O   UNL     1      47.189  10.483  11.721  0.00  0.00    +0.000 OA
ATOM     17  H   UNL     1      47.716  10.808  12.466  0.00  0.00    +0.000 HD
ENDBRANCH  11  16
BRANCH  13  18
ATOM     18  O   UNL     1      48.736   6.637  13.623  0.00  0.00    +0.000 OA
ATOM     19  H   UNL     1      49.394   7.356  13.674  0.00  0.00    +0.000 HD
ENDBRANCH  13  18
ENDBRANCH   2   5
BRANCH   1  20
ATOM     20  C   UNL     1      47.480   3.377  15.857  0.00  0.00    +0.000 C 
BRANCH  20  24
ATOM     21  C   UNL     1      49.532   4.697  19.461  0.00  0.00    +0.000 A 
ATOM     22  C   UNL     1      50.215   3.968  18.480  0.00  0.00    +0.000 A 
ATOM     23  C   UNL     1      49.564   3.526  17.324  0.00  0.00    +0.000 A 
ATOM     24  C   UNL     1      48.206   3.805  17.110  0.00  0.00    +0.000 A 
ATOM     25  C   UNL     1      47.522   4.528  18.098  0.00  0.00    +0.000 A 
ATOM     26  C   UNL     1      48.175   4.973  19.256  0.00  0.00    +0.000 A 
BRANCH  21  27
ATOM     27  C   UNL     1      50.238   5.150  20.714  0.00  0.00    +0.000 C 
BRANCH  27  28
ATOM     28  O   UNL     1      49.518   6.253  21.257  0.00  0.00    +0.000 OA
BRANCH  28  29
ATOM     29  C   UNL     1      50.103   7.516  20.934  0.00  0.00    +0.000 C 
BRANCH  29  35
ATOM     30  C   UNL     1      49.196   8.895  16.358  0.00  0.00    +0.000 C 
ATOM     31  C   UNL     1      48.775   8.946  17.795  0.00  0.00    +0.000 A 
ATOM     32  C   UNL     1      47.648   9.661  18.185  0.00  0.00    +0.000 A 
ATOM     33  C   UNL     1      47.304   9.681  19.529  0.00  0.00    +0.000 A 
ATOM     34  C   UNL     1      48.095   8.993  20.443  0.00  0.00    +0.000 A 
ATOM     35  C   UNL     1      49.206   8.284  19.986  0.00  0.00    +0.000 A 
ATOM     36  N   UNL     1      49.555   8.269  18.673  0.00  0.00    +0.000 NA
ENDBRANCH  29  35
ENDBRANCH  28  29
ENDBRANCH  27  28
ENDBRANCH  21  27
ENDBRANCH  20  24
ENDBRANCH   1  20
TORSDOF 9
ENDMDL
