MODEL 1
REMARK VINA RESULT:    -7.517      0.000      0.000
REMARK INTER + INTRA:         -11.754
REMARK INTER:                 -10.592
REMARK INTRA:                  -1.162
REMARK UNBOUND:                -1.162
REMARK  Name = 
REMARK  8 active torsions:
REMARK  status: ('A' for Active; 'I' for Inactive)
REMARK    1  A    between atoms: C_1  and  O_2
REMARK    2  A    between atoms: O_2  and  C_3
REMARK    3  A    between atoms: C_7  and  C_8
REMARK    4  A    between atoms: N_10  and  C_11
REMARK    5  A    between atoms: C_11  and  C_12
REMARK    6  A    between atoms: C_15  and  C_16
REMARK    7  A    between atoms: C_16  and  N_17
REMARK    8  A    between atoms: C_18  and  C_20
REMARK                            x       y       z     vdW  Elec       q    Type
REMARK                         _______ _______ _______ _____ _____    ______ ____
ROOT
ATOM      1  C   UNL     1      45.299   6.574  11.416  0.00  0.00    +0.000 A 
ATOM      2  C   UNL     1      44.830   7.765  11.989  0.00  0.00    +0.000 A 
ATOM      3  C   UNL     1      45.628   8.492  12.881  0.00  0.00    +0.000 A 
ATOM      4  C   UNL     1      46.919   8.052  13.204  0.00  0.00    +0.000 A 
ATOM      5  C   UNL     1      47.382   6.856  12.641  0.00  0.00    +0.000 A 
ATOM      6  C   UNL     1      46.585   6.130  11.749  0.00  0.00    +0.000 A 
ENDROOT
BRANCH   1   7
ATOM      7  C   UNL     1      44.447   5.801  10.442  0.00  0.00    +0.000 C 
BRANCH   7  10
ATOM      8  C   UNL     1      44.965   3.730   9.232  0.00  0.00    +0.000 C 
ATOM      9  O   UNL     1      44.060   3.109   9.782  0.00  0.00    +0.000 OA
ATOM     10  N   UNL     1      45.260   5.048   9.513  0.00  0.00    +0.000 N 
ATOM     11  H   UNL     1      45.863   5.567   8.889  0.00  0.00    +0.000 HD
BRANCH   8  16
ATOM     12  C   UNL     1      46.990   1.133   7.373  0.00  0.00    +0.000 A 
ATOM     13  C   UNL     1      47.270   1.800   6.179  0.00  0.00    +0.000 A 
ATOM     14  C   UNL     1      46.823   3.111   5.982  0.00  0.00    +0.000 A 
ATOM     15  C   UNL     1      46.079   3.757   6.972  0.00  0.00    +0.000 A 
ATOM     16  C   UNL     1      45.781   3.090   8.165  0.00  0.00    +0.000 A 
ATOM     17  C   UNL     1      46.261   1.789   8.370  0.00  0.00    +0.000 A 
BRANCH  12  19
ATOM     18  C   UNL     1      46.453  -1.187   7.326  0.00  0.00    +0.000 C 
ATOM     19  O   UNL     1      47.359  -0.148   7.679  0.00  0.00    +0.000 OA
ENDBRANCH  12  19
ENDBRANCH   8  16
ENDBRANCH   7  10
ENDBRANCH   1   7
BRANCH   4  20
ATOM     20  C   UNL     1      47.788   8.828  14.162  0.00  0.00    +0.000 C 
BRANCH  20  21
ATOM     21  N   UNL     1      48.050   8.078  15.364  0.00  0.00    +0.000 N 
ATOM     22  C   UNL     1      49.320   7.669  15.683  0.00  0.00    +0.000 C 
ATOM     23  O   UNL     1      50.292   7.969  14.993  0.00  0.00    +0.000 OA
ATOM     24  H   UNL     1      47.256   7.626  15.807  0.00  0.00    +0.000 HD
BRANCH  22  25
ATOM     25  C   UNL     1      49.473   6.903  16.926  0.00  0.00    +0.000 A 
ATOM     26  C   UNL     1      50.224   7.427  17.971  0.00  0.00    +0.000 A 
ATOM     27  S   UNL     1      50.260   6.432  19.355  0.00  0.00    +0.000 S 
ATOM     28  C   UNL     1      49.318   5.239  18.589  0.00  0.00    +0.000 A 
ATOM     29  N   UNL     1      49.000   4.082  19.229  0.00  0.00    +0.000 NA
ATOM     30  C   UNL     1      48.308   3.254  18.520  0.00  0.00    +0.000 A 
ATOM     31  N   UNL     1      47.901   3.481  17.231  0.00  0.00    +0.000 N 
ATOM     32  C   UNL     1      48.176   4.646  16.555  0.00  0.00    +0.000 A 
ATOM     33  O   UNL     1      47.763   4.833  15.416  0.00  0.00    +0.000 OA
ATOM     34  C   UNL     1      48.963   5.606  17.304  0.00  0.00    +0.000 A 
ATOM     35  H   UNL     1      47.352   2.794  16.734  0.00  0.00    +0.000 HD
ENDBRANCH  22  25
ENDBRANCH  20  21
ENDBRANCH   4  20
TORSDOF 7
ENDMDL
MODEL 2
REMARK VINA RESULT:    -7.340      2.080      2.536
REMARK INTER + INTRA:         -11.506
REMARK INTER:                 -10.490
REMARK INTRA:                  -1.017
REMARK UNBOUND:                -1.162
REMARK  Name = 
REMARK  8 active torsions:
REMARK  status: ('A' for Active; 'I' for Inactive)
REMARK    1  A    between atoms: C_1  and  O_2
REMARK    2  A    between atoms: O_2  and  C_3
REMARK    3  A    between atoms: C_7  and  C_8
REMARK    4  A    between atoms: N_10  and  C_11
REMARK    5  A    between atoms: C_11  and  C_12
REMARK    6  A    between atoms: C_15  and  C_16
REMARK    7  A    between atoms: C_16  and  N_17
REMARK    8  A    between atoms: C_18  and  C_20
REMARK                            x       y       z     vdW  Elec       q    Type
REMARK                         _______ _______ _______ _____ _____    ______ ____
ROOT
ATOM      1  C   UNL     1      45.286   4.799  12.080  0.00  0.00    +0.000 A 
ATOM      2  C   UNL     1      45.723   6.091  11.753  0.00  0.00    +0.000 A 
ATOM      3  C   UNL     1      46.699   6.732  12.525  0.00  0.00    +0.000 A 
ATOM      4  C   UNL     1      47.271   6.088  13.630  0.00  0.00    +0.000 A 
ATOM      5  C   UNL     1      46.823   4.803  13.964  0.00  0.00    +0.000 A 
ATOM      6  C   UNL     1      45.850   4.161  13.192  0.00  0.00    +0.000 A 
ENDROOT
BRANCH   1   7
ATOM      7  C   UNL     1      44.248   4.101  11.237  0.00  0.00    +0.000 C 
BRANCH   7  10
ATOM      8  C   UNL     1      45.171   3.917   8.972  0.00  0.00    +0.000 C 
ATOM      9  O   UNL     1      44.901   5.083   8.700  0.00  0.00    +0.000 OA
ATOM     10  N   UNL     1      44.860   3.328  10.180  0.00  0.00    +0.000 N 
ATOM     11  H   UNL     1      45.289   2.448  10.430  0.00  0.00    +0.000 HD
BRANCH   8  16
ATOM     12  C   UNL     1      46.848   0.893   7.442  0.00  0.00    +0.000 A 
ATOM     13  C   UNL     1      47.264   1.398   6.209  0.00  0.00    +0.000 A 
ATOM     14  C   UNL     1      47.022   2.736   5.878  0.00  0.00    +0.000 A 
ATOM     15  C   UNL     1      46.351   3.572   6.772  0.00  0.00    +0.000 A 
ATOM     16  C   UNL     1      45.918   3.069   8.003  0.00  0.00    +0.000 A 
ATOM     17  C   UNL     1      46.193   1.737   8.343  0.00  0.00    +0.000 A 
BRANCH  12  19
ATOM     18  C   UNL     1      46.463  -1.428   7.066  0.00  0.00    +0.000 C 
ATOM     19  O   UNL     1      47.013  -0.395   7.875  0.00  0.00    +0.000 OA
ENDBRANCH  12  19
ENDBRANCH   8  16
ENDBRANCH   7  10
ENDBRANCH   1   7
BRANCH   4  20
ATOM     20  C   UNL     1      48.324   6.769  14.469  0.00  0.00    +0.000 C 
BRANCH  20  21
ATOM     21  N   UNL     1      48.140   6.496  15.872  0.00  0.00    +0.000 N 
ATOM     22  C   UNL     1      49.183   6.072  16.655  0.00  0.00    +0.000 C 
ATOM     23  O   UNL     1      50.324   5.961  16.213  0.00  0.00    +0.000 OA
ATOM     24  H   UNL     1      47.187   6.353  16.192  0.00  0.00    +0.000 HD
BRANCH  22  25
ATOM     25  C   UNL     1      48.883   5.815  18.069  0.00  0.00    +0.000 A 
ATOM     26  C   UNL     1      49.120   4.555  18.606  0.00  0.00    +0.000 A 
ATOM     27  S   UNL     1      48.762   4.441  20.270  0.00  0.00    +0.000 S 
ATOM     28  C   UNL     1      48.226   6.056  20.321  0.00  0.00    +0.000 A 
ATOM     29  N   UNL     1      47.748   6.598  21.473  0.00  0.00    +0.000 NA
ATOM     30  C   UNL     1      47.348   7.820  21.360  0.00  0.00    +0.000 A 
ATOM     31  N   UNL     1      47.389   8.552  20.202  0.00  0.00    +0.000 N 
ATOM     32  C   UNL     1      47.889   8.055  19.022  0.00  0.00    +0.000 A 
ATOM     33  O   UNL     1      47.947   8.749  18.013  0.00  0.00    +0.000 OA
ATOM     34  C   UNL     1      48.340   6.679  19.091  0.00  0.00    +0.000 A 
ATOM     35  H   UNL     1      47.068   9.509  20.183  0.00  0.00    +0.000 HD
ENDBRANCH  22  25
ENDBRANCH  20  21
ENDBRANCH   4  20
TORSDOF 7
ENDMDL
MODEL 3
REMARK VINA RESULT:    -7.069      4.310      7.379
REMARK INTER + INTRA:         -11.124
REMARK INTER:                 -10.041
REMARK INTRA:                  -1.083
REMARK UNBOUND:                -1.162
REMARK  Name = 
REMARK  8 active torsions:
REMARK  status: ('A' for Active; 'I' for Inactive)
REMARK    1  A    between atoms: C_1  and  O_2
REMARK    2  A    between atoms: O_2  and  C_3
REMARK    3  A    between atoms: C_7  and  C_8
REMARK    4  A    between atoms: N_10  and  C_11
REMARK    5  A    between atoms: C_11  and  C_12
REMARK    6  A    between atoms: C_15  and  C_16
REMARK    7  A    between atoms: C_16  and  N_17
REMARK    8  A    between atoms: C_18  and  C_20
REMARK                            x       y       z     vdW  Elec       q    Type
REMARK                         _______ _______ _______ _____ _____    ______ ____
ROOT
ATOM      1  C   UNL     1      44.982   9.072  11.889  0.00  0.00    +0.000 A 
ATOM      2  C   UNL     1      46.053   8.917  12.780  0.00  0.00    +0.000 A 
ATOM      3  C   UNL     1      46.459   7.644  13.196  0.00  0.00    +0.000 A 
ATOM      4  C   UNL     1      45.814   6.497  12.714  0.00  0.00    +0.000 A 
ATOM      5  C   UNL     1      44.734   6.653  11.834  0.00  0.00    +0.000 A 
ATOM      6  C   UNL     1      44.329   7.926  11.418  0.00  0.00    +0.000 A 
ENDROOT
BRANCH   1   7
ATOM      7  C   UNL     1      44.556  10.443  11.427  0.00  0.00    +0.000 C 
BRANCH   7  10
ATOM      8  C   UNL     1      42.171  10.781  10.961  0.00  0.00    +0.000 C 
ATOM      9  O   UNL     1      42.320  10.613   9.754  0.00  0.00    +0.000 OA
ATOM     10  N   UNL     1      43.213  10.753  11.864  0.00  0.00    +0.000 N 
ATOM     11  H   UNL     1      43.013  10.683  12.853  0.00  0.00    +0.000 HD
BRANCH   8  16
ATOM     12  C   UNL     1      38.453  10.390  11.522  0.00  0.00    +0.000 A 
ATOM     13  C   UNL     1      38.241  11.252  12.600  0.00  0.00    +0.000 A 
ATOM     14  C   UNL     1      39.305  11.986  13.134  0.00  0.00    +0.000 A 
ATOM     15  C   UNL     1      40.590  11.851  12.605  0.00  0.00    +0.000 A 
ATOM     16  C   UNL     1      40.812  10.978  11.535  0.00  0.00    +0.000 A 
ATOM     17  C   UNL     1      39.736  10.271  10.982  0.00  0.00    +0.000 A 
BRANCH  12  19
ATOM     18  C   UNL     1      36.433   9.146  11.738  0.00  0.00    +0.000 C 
ATOM     19  O   UNL     1      37.501   9.612  10.922  0.00  0.00    +0.000 OA
ENDBRANCH  12  19
ENDBRANCH   8  16
ENDBRANCH   7  10
ENDBRANCH   1   7
BRANCH   4  20
ATOM     20  C   UNL     1      46.243   5.119  13.153  0.00  0.00    +0.000 C 
BRANCH  20  21
ATOM     21  N   UNL     1      46.809   5.140  14.479  0.00  0.00    +0.000 N 
ATOM     22  C   UNL     1      47.350   4.009  15.037  0.00  0.00    +0.000 C 
ATOM     23  O   UNL     1      47.428   2.951  14.416  0.00  0.00    +0.000 OA
ATOM     24  H   UNL     1      46.545   5.914  15.080  0.00  0.00    +0.000 HD
BRANCH  22  25
ATOM     25  C   UNL     1      47.891   4.139  16.396  0.00  0.00    +0.000 A 
ATOM     26  C   UNL     1      47.475   3.261  17.390  0.00  0.00    +0.000 A 
ATOM     27  S   UNL     1      48.235   3.521  18.894  0.00  0.00    +0.000 S 
ATOM     28  C   UNL     1      49.106   4.851  18.286  0.00  0.00    +0.000 A 
ATOM     29  N   UNL     1      49.943   5.563  19.087  0.00  0.00    +0.000 NA
ATOM     30  C   UNL     1      50.515   6.564  18.504  0.00  0.00    +0.000 A 
ATOM     31  N   UNL     1      50.329   6.913  17.192  0.00  0.00    +0.000 N 
ATOM     32  C   UNL     1      49.514   6.207  16.339  0.00  0.00    +0.000 A 
ATOM     33  O   UNL     1      49.400   6.523  15.160  0.00  0.00    +0.000 OA
ATOM     34  C   UNL     1      48.837   5.079  16.949  0.00  0.00    +0.000 A 
ATOM     35  H   UNL     1      50.814   7.704  16.793  0.00  0.00    +0.000 HD
ENDBRANCH  22  25
ENDBRANCH  20  21
ENDBRANCH   4  20
TORSDOF 7
ENDMDL
MODEL 4
REMARK VINA RESULT:    -6.862      1.969      2.201
REMARK INTER + INTRA:         -10.833
REMARK INTER:                  -9.742
REMARK INTRA:                  -1.090
REMARK UNBOUND:                -1.162
REMARK  Name = 
REMARK  8 active torsions:
REMARK  status: ('A' for Active; 'I' for Inactive)
REMARK    1  A    between atoms: C_1  and  O_2
REMARK    2  A    between atoms: O_2  and  C_3
REMARK    3  A    between atoms: C_7  and  C_8
REMARK    4  A    between atoms: N_10  and  C_11
REMARK    5  A    between atoms: C_11  and  C_12
REMARK    6  A    between atoms: C_15  and  C_16
REMARK    7  A    between atoms: C_16  and  N_17
REMARK    8  A    between atoms: C_18  and  C_20
REMARK                            x       y       z     vdW  Elec       q    Type
REMARK                         _______ _______ _______ _____ _____    ______ ____
ROOT
ATOM      1  C   UNL     1      46.371   7.168  12.571  0.00  0.00    +0.000 A 
ATOM      2  C   UNL     1      46.329   8.407  13.227  0.00  0.00    +0.000 A 
ATOM      3  C   UNL     1      47.312   8.756  14.160  0.00  0.00    +0.000 A 
ATOM      4  C   UNL     1      48.369   7.879  14.445  0.00  0.00    +0.000 A 
ATOM      5  C   UNL     1      48.402   6.636  13.800  0.00  0.00    +0.000 A 
ATOM      6  C   UNL     1      47.421   6.288  12.865  0.00  0.00    +0.000 A 
ENDROOT
BRANCH   1   7
ATOM      7  C   UNL     1      45.322   6.799  11.552  0.00  0.00    +0.000 C 
BRANCH   7  10
ATOM      8  C   UNL     1      44.995   4.878  10.063  0.00  0.00    +0.000 C 
ATOM      9  O   UNL     1      43.821   4.741  10.395  0.00  0.00    +0.000 OA
ATOM     10  N   UNL     1      45.828   5.837  10.600  0.00  0.00    +0.000 N 
ATOM     11  H   UNL     1      46.707   6.044  10.145  0.00  0.00    +0.000 HD
BRANCH   8  16
ATOM     12  C   UNL     1      46.034   1.792   8.139  0.00  0.00    +0.000 A 
ATOM     13  C   UNL     1      46.612   2.356   7.001  0.00  0.00    +0.000 A 
ATOM     14  C   UNL     1      46.690   3.745   6.863  0.00  0.00    +0.000 A 
ATOM     15  C   UNL     1      46.177   4.580   7.857  0.00  0.00    +0.000 A 
ATOM     16  C   UNL     1      45.583   4.024   8.995  0.00  0.00    +0.000 A 
ATOM     17  C   UNL     1      45.537   2.631   9.142  0.00  0.00    +0.000 A 
BRANCH  12  19
ATOM     18  C   UNL     1      46.724  -0.435   7.654  0.00  0.00    +0.000 C 
ATOM     19  O   UNL     1      45.887   0.454   8.384  0.00  0.00    +0.000 OA
ENDBRANCH  12  19
ENDBRANCH   8  16
ENDBRANCH   7  10
ENDBRANCH   1   7
BRANCH   4  20
ATOM     20  C   UNL     1      49.434   8.245  15.448  0.00  0.00    +0.000 C 
BRANCH  20  21
ATOM     21  N   UNL     1      50.202   7.093  15.847  0.00  0.00    +0.000 N 
ATOM     22  C   UNL     1      50.792   7.027  17.083  0.00  0.00    +0.000 C 
ATOM     23  O   UNL     1      50.649   7.916  17.920  0.00  0.00    +0.000 OA
ATOM     24  H   UNL     1      50.524   6.476  15.108  0.00  0.00    +0.000 HD
BRANCH  22  25
ATOM     25  C   UNL     1      51.559   5.812  17.384  0.00  0.00    +0.000 A 
ATOM     26  C   UNL     1      52.905   5.910  17.715  0.00  0.00    +0.000 A 
ATOM     27  S   UNL     1      53.631   4.410  18.080  0.00  0.00    +0.000 S 
ATOM     28  C   UNL     1      52.187   3.570  17.758  0.00  0.00    +0.000 A 
ATOM     29  N   UNL     1      52.129   2.215  17.856  0.00  0.00    +0.000 NA
ATOM     30  C   UNL     1      50.981   1.707  17.553  0.00  0.00    +0.000 A 
ATOM     31  N   UNL     1      49.885   2.432  17.167  0.00  0.00    +0.000 N 
ATOM     32  C   UNL     1      49.888   3.804  17.080  0.00  0.00    +0.000 A 
ATOM     33  O   UNL     1      48.878   4.425  16.769  0.00  0.00    +0.000 OA
ATOM     34  C   UNL     1      51.160   4.424  17.398  0.00  0.00    +0.000 A 
ATOM     35  H   UNL     1      49.011   1.973  16.952  0.00  0.00    +0.000 HD
ENDBRANCH  22  25
ENDBRANCH  20  21
ENDBRANCH   4  20
TORSDOF 7
ENDMDL
MODEL 5
REMARK VINA RESULT:    -6.850      2.618      3.940
REMARK INTER + INTRA:         -10.815
REMARK INTER:                  -9.813
REMARK INTRA:                  -1.001
REMARK UNBOUND:                -1.162
REMARK  Name = 
REMARK  8 active torsions:
REMARK  status: ('A' for Active; 'I' for Inactive)
REMARK    1  A    between atoms: C_1  and  O_2
REMARK    2  A    between atoms: O_2  and  C_3
REMARK    3  A    between atoms: C_7  and  C_8
REMARK    4  A    between atoms: N_10  and  C_11
REMARK    5  A    between atoms: C_11  and  C_12
REMARK    6  A    between atoms: C_15  and  C_16
REMARK    7  A    between atoms: C_16  and  N_17
REMARK    8  A    between atoms: C_18  and  C_20
REMARK                            x       y       z     vdW  Elec       q    Type
REMARK                         _______ _______ _______ _____ _____    ______ ____
ROOT
ATOM      1  C   UNL     1      47.920   7.795  13.405  0.00  0.00    +0.000 A 
ATOM      2  C   UNL     1      48.013   8.979  14.149  0.00  0.00    +0.000 A 
ATOM      3  C   UNL     1      48.437   8.955  15.483  0.00  0.00    +0.000 A 
ATOM      4  C   UNL     1      48.796   7.746  16.095  0.00  0.00    +0.000 A 
ATOM      5  C   UNL     1      48.689   6.561  15.355  0.00  0.00    +0.000 A 
ATOM      6  C   UNL     1      48.267   6.586  14.021  0.00  0.00    +0.000 A 
ENDROOT
BRANCH   1   7
ATOM      7  C   UNL     1      47.480   7.824  11.963  0.00  0.00    +0.000 C 
BRANCH   7  10
ATOM      8  C   UNL     1      45.566   6.469  11.243  0.00  0.00    +0.000 C 
ATOM      9  O   UNL     1      44.784   7.411  11.336  0.00  0.00    +0.000 OA
ATOM     10  N   UNL     1      46.905   6.560  11.562  0.00  0.00    +0.000 N 
ATOM     11  H   UNL     1      47.538   5.828  11.268  0.00  0.00    +0.000 HD
BRANCH   8  16
ATOM     12  C   UNL     1      45.065   3.558   8.882  0.00  0.00    +0.000 A 
ATOM     13  C   UNL     1      44.329   2.677   9.677  0.00  0.00    +0.000 A 
ATOM     14  C   UNL     1      43.970   3.037  10.980  0.00  0.00    +0.000 A 
ATOM     15  C   UNL     1      44.357   4.273  11.501  0.00  0.00    +0.000 A 
ATOM     16  C   UNL     1      45.106   5.155  10.716  0.00  0.00    +0.000 A 
ATOM     17  C   UNL     1      45.435   4.803   9.400  0.00  0.00    +0.000 A 
BRANCH  12  19
ATOM     18  C   UNL     1      46.779   3.793   7.245  0.00  0.00    +0.000 C 
ATOM     19  O   UNL     1      45.487   3.318   7.603  0.00  0.00    +0.000 OA
ENDBRANCH  12  19
ENDBRANCH   8  16
ENDBRANCH   7  10
ENDBRANCH   1   7
BRANCH   4  20
ATOM     20  C   UNL     1      49.256   7.707  17.531  0.00  0.00    +0.000 C 
BRANCH  20  21
ATOM     21  N   UNL     1      50.278   6.710  17.731  0.00  0.00    +0.000 N 
ATOM     22  C   UNL     1      50.094   5.672  18.609  0.00  0.00    +0.000 C 
ATOM     23  O   UNL     1      49.037   5.514  19.216  0.00  0.00    +0.000 OA
ATOM     24  H   UNL     1      51.218   6.949  17.433  0.00  0.00    +0.000 HD
BRANCH  22  25
ATOM     25  C   UNL     1      51.202   4.718  18.743  0.00  0.00    +0.000 A 
ATOM     26  C   UNL     1      52.329   5.071  19.475  0.00  0.00    +0.000 A 
ATOM     27  S   UNL     1      53.498   3.833  19.571  0.00  0.00    +0.000 S 
ATOM     28  C   UNL     1      52.564   2.801  18.592  0.00  0.00    +0.000 A 
ATOM     29  N   UNL     1      53.014   1.562  18.254  0.00  0.00    +0.000 NA
ATOM     30  C   UNL     1      52.218   0.899  17.482  0.00  0.00    +0.000 A 
ATOM     31  N   UNL     1      51.012   1.361  17.023  0.00  0.00    +0.000 N 
ATOM     32  C   UNL     1      50.506   2.593  17.360  0.00  0.00    +0.000 A 
ATOM     33  O   UNL     1      49.405   2.960  16.964  0.00  0.00    +0.000 OA
ATOM     34  C   UNL     1      51.368   3.385  18.217  0.00  0.00    +0.000 A 
ATOM     35  H   UNL     1      50.432   0.787  16.428  0.00  0.00    +0.000 HD
ENDBRANCH  22  25
ENDBRANCH  20  21
ENDBRANCH   4  20
TORSDOF 7
ENDMDL
MODEL 6
REMARK VINA RESULT:    -6.772      3.372      8.982
REMARK INTER + INTRA:         -10.705
REMARK INTER:                  -9.549
REMARK INTRA:                  -1.156
REMARK UNBOUND:                -1.162
REMARK  Name = 
REMARK  8 active torsions:
REMARK  status: ('A' for Active; 'I' for Inactive)
REMARK    1  A    between atoms: C_1  and  O_2
REMARK    2  A    between atoms: O_2  and  C_3
REMARK    3  A    between atoms: C_7  and  C_8
REMARK    4  A    between atoms: N_10  and  C_11
REMARK    5  A    between atoms: C_11  and  C_12
REMARK    6  A    between atoms: C_15  and  C_16
REMARK    7  A    between atoms: C_16  and  N_17
REMARK    8  A    between atoms: C_18  and  C_20
REMARK                            x       y       z     vdW  Elec       q    Type
REMARK                         _______ _______ _______ _____ _____    ______ ____
ROOT
ATOM      1  C   UNL     1      50.087   8.034  15.008  0.00  0.00    +0.000 A 
ATOM      2  C   UNL     1      49.171   6.981  14.871  0.00  0.00    +0.000 A 
ATOM      3  C   UNL     1      48.209   6.998  13.854  0.00  0.00    +0.000 A 
ATOM      4  C   UNL     1      48.155   8.059  12.940  0.00  0.00    +0.000 A 
ATOM      5  C   UNL     1      49.062   9.117  13.086  0.00  0.00    +0.000 A 
ATOM      6  C   UNL     1      50.024   9.101  14.102  0.00  0.00    +0.000 A 
ENDROOT
BRANCH   1   7
ATOM      7  C   UNL     1      51.134   8.008  16.092  0.00  0.00    +0.000 C 
BRANCH   7  10
ATOM      8  C   UNL     1      51.386   6.094  17.605  0.00  0.00    +0.000 C 
ATOM      9  O   UNL     1      50.895   6.699  18.554  0.00  0.00    +0.000 OA
ATOM     10  N   UNL     1      51.579   6.660  16.363  0.00  0.00    +0.000 N 
ATOM     11  H   UNL     1      51.784   6.066  15.571  0.00  0.00    +0.000 HD
BRANCH   8  16
ATOM     12  C   UNL     1      51.171   2.324  17.396  0.00  0.00    +0.000 A 
ATOM     13  C   UNL     1      52.418   1.946  17.898  0.00  0.00    +0.000 A 
ATOM     14  C   UNL     1      53.327   2.916  18.331  0.00  0.00    +0.000 A 
ATOM     15  C   UNL     1      53.001   4.271  18.252  0.00  0.00    +0.000 A 
ATOM     16  C   UNL     1      51.760   4.659  17.737  0.00  0.00    +0.000 A 
ATOM     17  C   UNL     1      50.840   3.681  17.335  0.00  0.00    +0.000 A 
BRANCH  12  19
ATOM     18  C   UNL     1      48.966   2.053  16.539  0.00  0.00    +0.000 C 
ATOM     19  O   UNL     1      50.205   1.475  16.931  0.00  0.00    +0.000 OA
ENDBRANCH  12  19
ENDBRANCH   8  16
ENDBRANCH   7  10
ENDBRANCH   1   7
BRANCH   4  20
ATOM     20  C   UNL     1      47.124   8.087  11.839  0.00  0.00    +0.000 C 
BRANCH  20  21
ATOM     21  N   UNL     1      46.531   6.789  11.638  0.00  0.00    +0.000 N 
ATOM     22  C   UNL     1      45.173   6.641  11.515  0.00  0.00    +0.000 C 
ATOM     23  O   UNL     1      44.412   7.606  11.513  0.00  0.00    +0.000 OA
ATOM     24  H   UNL     1      47.100   5.981  11.872  0.00  0.00    +0.000 HD
BRANCH  22  25
ATOM     25  C   UNL     1      44.674   5.274  11.322  0.00  0.00    +0.000 A 
ATOM     26  C   UNL     1      43.920   4.668  12.321  0.00  0.00    +0.000 A 
ATOM     27  S   UNL     1      43.381   3.102  11.916  0.00  0.00    +0.000 S 
ATOM     28  C   UNL     1      44.180   3.155  10.414  0.00  0.00    +0.000 A 
ATOM     29  N   UNL     1      44.144   2.093   9.565  0.00  0.00    +0.000 NA
ATOM     30  C   UNL     1      44.818   2.259   8.476  0.00  0.00    +0.000 A 
ATOM     31  N   UNL     1      45.519   3.393   8.157  0.00  0.00    +0.000 N 
ATOM     32  C   UNL     1      45.561   4.499   8.972  0.00  0.00    +0.000 A 
ATOM     33  O   UNL     1      46.166   5.512   8.638  0.00  0.00    +0.000 OA
ATOM     34  C   UNL     1      44.830   4.360  10.216  0.00  0.00    +0.000 A 
ATOM     35  H   UNL     1      46.020   3.462   7.283  0.00  0.00    +0.000 HD
ENDBRANCH  22  25
ENDBRANCH  20  21
ENDBRANCH   4  20
TORSDOF 7
ENDMDL
MODEL 7
REMARK VINA RESULT:    -6.765      4.403      5.885
REMARK INTER + INTRA:         -10.695
REMARK INTER:                  -9.541
REMARK INTRA:                  -1.155
REMARK UNBOUND:                -1.162
REMARK  Name = 
REMARK  8 active torsions:
REMARK  status: ('A' for Active; 'I' for Inactive)
REMARK    1  A    between atoms: C_1  and  O_2
REMARK    2  A    between atoms: O_2  and  C_3
REMARK    3  A    between atoms: C_7  and  C_8
REMARK    4  A    between atoms: N_10  and  C_11
REMARK    5  A    between atoms: C_11  and  C_12
REMARK    6  A    between atoms: C_15  and  C_16
REMARK    7  A    between atoms: C_16  and  N_17
REMARK    8  A    between atoms: C_18  and  C_20
REMARK                            x       y       z     vdW  Elec       q    Type
REMARK                         _______ _______ _______ _____ _____    ______ ____
ROOT
ATOM      1  C   UNL     1      45.665   7.649  12.614  0.00  0.00    +0.000 A 
ATOM      2  C   UNL     1      47.014   7.524  12.977  0.00  0.00    +0.000 A 
ATOM      3  C   UNL     1      47.897   8.600  12.832  0.00  0.00    +0.000 A 
ATOM      4  C   UNL     1      47.445   9.831  12.338  0.00  0.00    +0.000 A 
ATOM      5  C   UNL     1      46.100   9.952  11.962  0.00  0.00    +0.000 A 
ATOM      6  C   UNL     1      45.218   8.876  12.109  0.00  0.00    +0.000 A 
ENDROOT
BRANCH   1   7
ATOM      7  C   UNL     1      44.710   6.495  12.788  0.00  0.00    +0.000 C 
BRANCH   7  10
ATOM      8  C   UNL     1      44.114   5.078  10.876  0.00  0.00    +0.000 C 
ATOM      9  O   UNL     1      43.011   5.603  10.752  0.00  0.00    +0.000 OA
ATOM     10  N   UNL     1      45.009   5.421  11.868  0.00  0.00    +0.000 N 
ATOM     11  H   UNL     1      45.971   5.117  11.797  0.00  0.00    +0.000 HD
BRANCH   8  16
ATOM     12  C   UNL     1      45.784   3.530   7.858  0.00  0.00    +0.000 A 
ATOM     13  C   UNL     1      45.528   2.173   8.063  0.00  0.00    +0.000 A 
ATOM     14  C   UNL     1      44.788   1.755   9.173  0.00  0.00    +0.000 A 
ATOM     15  C   UNL     1      44.311   2.691  10.094  0.00  0.00    +0.000 A 
ATOM     16  C   UNL     1      44.576   4.051   9.903  0.00  0.00    +0.000 A 
ATOM     17  C   UNL     1      45.290   4.466   8.771  0.00  0.00    +0.000 A 
BRANCH  12  19
ATOM     18  C   UNL     1      46.873   3.179   5.768  0.00  0.00    +0.000 C 
ATOM     19  O   UNL     1      46.504   4.060   6.822  0.00  0.00    +0.000 OA
ENDBRANCH  12  19
ENDBRANCH   8  16
ENDBRANCH   7  10
ENDBRANCH   1   7
BRANCH   4  20
ATOM     20  C   UNL     1      48.386  10.999  12.178  0.00  0.00    +0.000 C 
BRANCH  20  21
ATOM     21  N   UNL     1      49.716  10.563  11.834  0.00  0.00    +0.000 N 
ATOM     22  C   UNL     1      50.282  10.895  10.629  0.00  0.00    +0.000 C 
ATOM     23  O   UNL     1      49.709  11.620   9.820  0.00  0.00    +0.000 OA
ATOM     24  H   UNL     1      50.098   9.788  12.366  0.00  0.00    +0.000 HD
BRANCH  22  25
ATOM     25  C   UNL     1      51.638  10.390  10.377  0.00  0.00    +0.000 A 
ATOM     26  C   UNL     1      52.647  11.276  10.018  0.00  0.00    +0.000 A 
ATOM     27  S   UNL     1      54.168  10.533   9.809  0.00  0.00    +0.000 S 
ATOM     28  C   UNL     1      53.521   8.993  10.136  0.00  0.00    +0.000 A 
ATOM     29  N   UNL     1      54.304   7.882  10.093  0.00  0.00    +0.000 NA
ATOM     30  C   UNL     1      53.678   6.778  10.332  0.00  0.00    +0.000 A 
ATOM     31  N   UNL     1      52.340   6.686  10.615  0.00  0.00    +0.000 N 
ATOM     32  C   UNL     1      51.516   7.783  10.696  0.00  0.00    +0.000 A 
ATOM     33  O   UNL     1      50.331   7.669  10.991  0.00  0.00    +0.000 OA
ATOM     34  C   UNL     1      52.169   9.049  10.423  0.00  0.00    +0.000 A 
ATOM     35  H   UNL     1      51.911   5.791  10.802  0.00  0.00    +0.000 HD
ENDBRANCH  22  25
ENDBRANCH  20  21
ENDBRANCH   4  20
TORSDOF 7
ENDMDL
MODEL 8
REMARK VINA RESULT:    -6.753      1.304      2.019
REMARK INTER + INTRA:         -10.679
REMARK INTER:                  -9.706
REMARK INTRA:                  -0.973
REMARK UNBOUND:                -1.162
REMARK  Name = 
REMARK  8 active torsions:
REMARK  status: ('A' for Active; 'I' for Inactive)
REMARK    1  A    between atoms: C_1  and  O_2
REMARK    2  A    between atoms: O_2  and  C_3
REMARK    3  A    between atoms: C_7  and  C_8
REMARK    4  A    between atoms: N_10  and  C_11
REMARK    5  A    between atoms: C_11  and  C_12
REMARK    6  A    between atoms: C_15  and  C_16
REMARK    7  A    between atoms: C_16  and  N_17
REMARK    8  A    between atoms: C_18  and  C_20
REMARK                            x       y       z     vdW  Elec       q    Type
REMARK                         _______ _______ _______ _____ _____    ______ ____
ROOT
ATOM      1  C   UNL     1      45.609   7.611  12.091  0.00  0.00    +0.000 A 
ATOM      2  C   UNL     1      46.439   6.776  12.851  0.00  0.00    +0.000 A 
ATOM      3  C   UNL     1      47.442   7.314  13.667  0.00  0.00    +0.000 A 
ATOM      4  C   UNL     1      47.624   8.701  13.752  0.00  0.00    +0.000 A 
ATOM      5  C   UNL     1      46.803   9.535  12.980  0.00  0.00    +0.000 A 
ATOM      6  C   UNL     1      45.800   8.997  12.167  0.00  0.00    +0.000 A 
ENDROOT
BRANCH   1   7
ATOM      7  C   UNL     1      44.517   7.032  11.226  0.00  0.00    +0.000 C 
BRANCH   7  10
ATOM      8  C   UNL     1      44.320   4.737  10.383  0.00  0.00    +0.000 C 
ATOM      9  O   UNL     1      43.315   4.512  11.051  0.00  0.00    +0.000 OA
ATOM     10  N   UNL     1      45.006   5.933  10.425  0.00  0.00    +0.000 N 
ATOM     11  H   UNL     1      45.689   6.141   9.709  0.00  0.00    +0.000 HD
BRANCH   8  16
ATOM     12  C   UNL     1      46.004   3.233   7.350  0.00  0.00    +0.000 A 
ATOM     13  C   UNL     1      45.881   1.868   7.611  0.00  0.00    +0.000 A 
ATOM     14  C   UNL     1      45.226   1.427   8.765  0.00  0.00    +0.000 A 
ATOM     15  C   UNL     1      44.703   2.350   9.674  0.00  0.00    +0.000 A 
ATOM     16  C   UNL     1      44.835   3.720   9.426  0.00  0.00    +0.000 A 
ATOM     17  C   UNL     1      45.463   4.155   8.251  0.00  0.00    +0.000 A 
BRANCH  12  19
ATOM     18  C   UNL     1      47.249   2.895   5.347  0.00  0.00    +0.000 C 
ATOM     19  O   UNL     1      46.631   3.787   6.267  0.00  0.00    +0.000 OA
ENDBRANCH  12  19
ENDBRANCH   8  16
ENDBRANCH   7  10
ENDBRANCH   1   7
BRANCH   4  20
ATOM     20  C   UNL     1      48.700   9.293  14.628  0.00  0.00    +0.000 C 
BRANCH  20  21
ATOM     21  N   UNL     1      48.785   8.610  15.894  0.00  0.00    +0.000 N 
ATOM     22  C   UNL     1      49.774   7.693  16.140  0.00  0.00    +0.000 C 
ATOM     23  O   UNL     1      50.659   7.455  15.321  0.00  0.00    +0.000 OA
ATOM     24  H   UNL     1      47.952   8.612  16.475  0.00  0.00    +0.000 HD
BRANCH  22  25
ATOM     25  C   UNL     1      49.763   7.049  17.460  0.00  0.00    +0.000 A 
ATOM     26  C   UNL     1      50.320   7.705  18.551  0.00  0.00    +0.000 A 
ATOM     27  S   UNL     1      50.181   6.840  20.015  0.00  0.00    +0.000 S 
ATOM     28  C   UNL     1      49.420   5.534  19.233  0.00  0.00    +0.000 A 
ATOM     29  N   UNL     1      49.053   4.422  19.926  0.00  0.00    +0.000 NA
ATOM     30  C   UNL     1      48.514   3.498  19.203  0.00  0.00    +0.000 A 
ATOM     31  N   UNL     1      48.304   3.587  17.852  0.00  0.00    +0.000 N 
ATOM     32  C   UNL     1      48.633   4.700  17.116  0.00  0.00    +0.000 A 
ATOM     33  O   UNL     1      48.395   4.763  15.915  0.00  0.00    +0.000 OA
ATOM     34  C   UNL     1      49.254   5.765  17.880  0.00  0.00    +0.000 A 
ATOM     35  H   UNL     1      47.868   2.830  17.345  0.00  0.00    +0.000 HD
ENDBRANCH  22  25
ENDBRANCH  20  21
ENDBRANCH   4  20
TORSDOF 7
ENDMDL
MODEL 9
REMARK VINA RESULT:    -6.553      5.266      7.911
REMARK INTER + INTRA:         -10.397
REMARK INTER:                  -9.397
REMARK INTRA:                  -1.000
REMARK UNBOUND:                -1.162
REMARK  Name = 
REMARK  8 active torsions:
REMARK  status: ('A' for Active; 'I' for Inactive)
REMARK    1  A    between atoms: C_1  and  O_2
REMARK    2  A    between atoms: O_2  and  C_3
REMARK    3  A    between atoms: C_7  and  C_8
REMARK    4  A    between atoms: N_10  and  C_11
REMARK    5  A    between atoms: C_11  and  C_12
REMARK    6  A    between atoms: C_15  and  C_16
REMARK    7  A    between atoms: C_16  and  N_17
REMARK    8  A    between atoms: C_18  and  C_20
REMARK                            x       y       z     vdW  Elec       q    Type
REMARK                         _______ _______ _______ _____ _____    ______ ____
ROOT
ATOM      1  C   UNL     1      50.269   8.962  11.594  0.00  0.00    +0.000 A 
ATOM      2  C   UNL     1      49.662   7.724  11.340  0.00  0.00    +0.000 A 
ATOM      3  C   UNL     1      48.361   7.460  11.787  0.00  0.00    +0.000 A 
ATOM      4  C   UNL     1      47.634   8.436  12.481  0.00  0.00    +0.000 A 
ATOM      5  C   UNL     1      48.247   9.668  12.747  0.00  0.00    +0.000 A 
ATOM      6  C   UNL     1      49.546   9.932  12.299  0.00  0.00    +0.000 A 
ENDROOT
BRANCH   1   7
ATOM      7  C   UNL     1      51.663   9.253  11.098  0.00  0.00    +0.000 C 
BRANCH   7  10
ATOM      8  C   UNL     1      52.783   8.098   9.246  0.00  0.00    +0.000 C 
ATOM      9  O   UNL     1      52.694   9.071   8.503  0.00  0.00    +0.000 OA
ATOM     10  N   UNL     1      52.276   8.074  10.528  0.00  0.00    +0.000 N 
ATOM     11  H   UNL     1      52.560   7.340  11.162  0.00  0.00    +0.000 HD
BRANCH   8  16
ATOM     12  C   UNL     1      54.009   5.285   7.035  0.00  0.00    +0.000 A 
ATOM     13  C   UNL     1      54.889   4.621   7.892  0.00  0.00    +0.000 A 
ATOM     14  C   UNL     1      55.069   5.071   9.204  0.00  0.00    +0.000 A 
ATOM     15  C   UNL     1      54.383   6.196   9.663  0.00  0.00    +0.000 A 
ATOM     16  C   UNL     1      53.510   6.876   8.806  0.00  0.00    +0.000 A 
ATOM     17  C   UNL     1      53.308   6.401   7.503  0.00  0.00    +0.000 A 
BRANCH  12  19
ATOM     18  C   UNL     1      54.770   5.250   4.778  0.00  0.00    +0.000 C 
ATOM     19  O   UNL     1      53.757   4.953   5.732  0.00  0.00    +0.000 OA
ENDBRANCH  12  19
ENDBRANCH   8  16
ENDBRANCH   7  10
ENDBRANCH   1   7
BRANCH   4  20
ATOM     20  C   UNL     1      46.232   8.164  12.966  0.00  0.00    +0.000 C 
BRANCH  20  21
ATOM     21  N   UNL     1      45.808   6.827  12.634  0.00  0.00    +0.000 N 
ATOM     22  C   UNL     1      44.822   6.605  11.707  0.00  0.00    +0.000 C 
ATOM     23  O   UNL     1      44.298   7.525  11.082  0.00  0.00    +0.000 OA
ATOM     24  H   UNL     1      46.048   6.091  13.291  0.00  0.00    +0.000 HD
BRANCH  22  25
ATOM     25  C   UNL     1      44.461   5.205  11.451  0.00  0.00    +0.000 A 
ATOM     26  C   UNL     1      43.746   4.492  12.405  0.00  0.00    +0.000 A 
ATOM     27  S   UNL     1      43.370   2.898  11.929  0.00  0.00    +0.000 S 
ATOM     28  C   UNL     1      44.195   3.086  10.453  0.00  0.00    +0.000 A 
ATOM     29  N   UNL     1      44.282   2.059   9.565  0.00  0.00    +0.000 NA
ATOM     30  C   UNL     1      44.963   2.330   8.502  0.00  0.00    +0.000 A 
ATOM     31  N   UNL     1      45.560   3.537   8.244  0.00  0.00    +0.000 N 
ATOM     32  C   UNL     1      45.476   4.610   9.099  0.00  0.00    +0.000 A 
ATOM     33  O   UNL     1      45.988   5.689   8.820  0.00  0.00    +0.000 OA
ATOM     34  C   UNL     1      44.731   4.354  10.317  0.00  0.00    +0.000 A 
ATOM     35  H   UNL     1      46.072   3.688   7.387  0.00  0.00    +0.000 HD
ENDBRANCH  22  25
ENDBRANCH  20  21
ENDBRANCH   4  20
TORSDOF 7
ENDMDL
