MODEL 1
REMARK VINA RESULT:    -8.244      0.000      0.000
REMARK INTER + INTRA:         -12.885
REMARK INTER:                 -12.099
REMARK INTRA:                  -0.786
REMARK UNBOUND:                -0.786
REMARK  Name = 
REMARK  10 active torsions:
REMARK  status: ('A' for Active; 'I' for Inactive)
REMARK    1  A    between atoms: C_1  and  O_2
REMARK    2  A    between atoms: O_2  and  C_3
REMARK    3  A    between atoms: C_6  and  C_7
REMARK    4  A    between atoms: C_7  and  N_8
REMARK    5  A    between atoms: N_8  and  C_9
REMARK    6  A    between atoms: N_8  and  C_10
REMARK    7  A    between atoms: C_10  and  C_11
REMARK    8  A    between atoms: C_14  and  C_15
REMARK    9  A    between atoms: C_15  and  N_16
REMARK   10  A    between atoms: C_17  and  C_19
REMARK                            x       y       z     vdW  Elec       q    Type
REMARK                         _______ _______ _______ _____ _____    ______ ____
ROOT
ATOM      1  C   UNL     1      46.340   4.848  13.099  0.00  0.00    +0.000 A 
ATOM      2  C   UNL     1      46.702   4.273  14.325  0.00  0.00    +0.000 A 
ATOM      3  C   UNL     1      47.574   4.938  15.192  0.00  0.00    +0.000 A 
ATOM      4  C   UNL     1      48.093   6.195  14.850  0.00  0.00    +0.000 A 
ATOM      5  C   UNL     1      47.785   6.735  13.596  0.00  0.00    +0.000 A 
ATOM      6  C   UNL     1      46.915   6.071  12.731  0.00  0.00    +0.000 A 
ENDROOT
BRANCH   1   7
ATOM      7  C   UNL     1      45.328   4.177  12.192  0.00  0.00    +0.000 C 
BRANCH   7   8
ATOM      8  N   UNL     1      44.245   5.069  11.734  0.00  0.00    +0.000 NA
ATOM      9  C   UNL     1      43.272   5.232  12.821  0.00  0.00    +0.000 C 
BRANCH   8  10
ATOM     10  C   UNL     1      43.604   4.561  10.503  0.00  0.00    +0.000 C 
BRANCH  10  14
ATOM     11  C   UNL     1      46.241   2.396   7.838  0.00  0.00    +0.000 A 
ATOM     12  C   UNL     1      46.237   3.791   7.845  0.00  0.00    +0.000 A 
ATOM     13  C   UNL     1      45.413   4.485   8.734  0.00  0.00    +0.000 A 
ATOM     14  C   UNL     1      44.570   3.796   9.618  0.00  0.00    +0.000 A 
ATOM     15  C   UNL     1      44.599   2.397   9.628  0.00  0.00    +0.000 A 
ATOM     16  C   UNL     1      45.429   1.705   8.741  0.00  0.00    +0.000 A 
BRANCH  11  18
ATOM     17  C   UNL     1      47.716   2.268   5.985  0.00  0.00    +0.000 C 
ATOM     18  O   UNL     1      46.980   1.601   7.004  0.00  0.00    +0.000 OA
ENDBRANCH  11  18
ENDBRANCH  10  14
ENDBRANCH   8  10
ENDBRANCH   7   8
ENDBRANCH   1   7
BRANCH   4  19
ATOM     19  C   UNL     1      48.985   6.952  15.798  0.00  0.00    +0.000 C 
BRANCH  19  20
ATOM     20  N   UNL     1      50.056   6.123  16.281  0.00  0.00    +0.000 N 
ATOM     21  C   UNL     1      50.026   5.583  17.540  0.00  0.00    +0.000 C 
ATOM     22  O   UNL     1      49.071   5.745  18.296  0.00  0.00    +0.000 OA
ATOM     23  H   UNL     1      50.936   6.173  15.778  0.00  0.00    +0.000 HD
BRANCH  21  24
ATOM     24  C   UNL     1      51.167   4.740  17.914  0.00  0.00    +0.000 A 
ATOM     25  C   UNL     1      52.274   5.313  18.525  0.00  0.00    +0.000 A 
ATOM     26  S   UNL     1      53.478   4.184  18.955  0.00  0.00    +0.000 S 
ATOM     27  C   UNL     1      52.585   2.897  18.290  0.00  0.00    +0.000 A 
ATOM     28  N   UNL     1      53.068   1.626  18.310  0.00  0.00    +0.000 NA
ATOM     29  C   UNL     1      52.299   0.753  17.751  0.00  0.00    +0.000 A 
ATOM     30  N   UNL     1      51.089   1.034  17.174  0.00  0.00    +0.000 N 
ATOM     31  C   UNL     1      50.557   2.298  17.145  0.00  0.00    +0.000 A 
ATOM     32  O   UNL     1      49.460   2.511  16.640  0.00  0.00    +0.000 OA
ATOM     33  C   UNL     1      51.379   3.321  17.760  0.00  0.00    +0.000 A 
ATOM     34  H   UNL     1      50.531   0.305  16.754  0.00  0.00    +0.000 HD
ENDBRANCH  21  24
ENDBRANCH  19  20
ENDBRANCH   4  19
TORSDOF 8
ENDMDL
MODEL 2
REMARK VINA RESULT:    -7.999      2.490      2.989
REMARK INTER + INTRA:         -12.527
REMARK INTER:                 -11.446
REMARK INTRA:                  -1.080
REMARK UNBOUND:                -0.786
REMARK  Name = 
REMARK  10 active torsions:
REMARK  status: ('A' for Active; 'I' for Inactive)
REMARK    1  A    between atoms: C_1  and  O_2
REMARK    2  A    between atoms: O_2  and  C_3
REMARK    3  A    between atoms: C_6  and  C_7
REMARK    4  A    between atoms: C_7  and  N_8
REMARK    5  A    between atoms: N_8  and  C_9
REMARK    6  A    between atoms: N_8  and  C_10
REMARK    7  A    between atoms: C_10  and  C_11
REMARK    8  A    between atoms: C_14  and  C_15
REMARK    9  A    between atoms: C_15  and  N_16
REMARK   10  A    between atoms: C_17  and  C_19
REMARK                            x       y       z     vdW  Elec       q    Type
REMARK                         _______ _______ _______ _____ _____    ______ ____
ROOT
ATOM      1  C   UNL     1      45.955   4.977  12.672  0.00  0.00    +0.000 A 
ATOM      2  C   UNL     1      46.514   6.064  11.986  0.00  0.00    +0.000 A 
ATOM      3  C   UNL     1      47.562   6.798  12.551  0.00  0.00    +0.000 A 
ATOM      4  C   UNL     1      48.075   6.451  13.808  0.00  0.00    +0.000 A 
ATOM      5  C   UNL     1      47.471   5.407  14.520  0.00  0.00    +0.000 A 
ATOM      6  C   UNL     1      46.424   4.676  13.957  0.00  0.00    +0.000 A 
ENDROOT
BRANCH   1   7
ATOM      7  C   UNL     1      44.879   4.122  12.034  0.00  0.00    +0.000 C 
BRANCH   7   8
ATOM      8  N   UNL     1      44.205   4.760  10.886  0.00  0.00    +0.000 NA
ATOM      9  C   UNL     1      43.065   5.542  11.379  0.00  0.00    +0.000 C 
BRANCH   8  10
ATOM     10  C   UNL     1      43.786   3.765   9.877  0.00  0.00    +0.000 C 
BRANCH  10  14
ATOM     11  C   UNL     1      46.987   2.337   7.337  0.00  0.00    +0.000 A 
ATOM     12  C   UNL     1      46.711   3.702   7.422  0.00  0.00    +0.000 A 
ATOM     13  C   UNL     1      45.703   4.161   8.273  0.00  0.00    +0.000 A 
ATOM     14  C   UNL     1      44.947   3.263   9.039  0.00  0.00    +0.000 A 
ATOM     15  C   UNL     1      45.247   1.897   8.973  0.00  0.00    +0.000 A 
ATOM     16  C   UNL     1      46.260   1.441   8.124  0.00  0.00    +0.000 A 
BRANCH  11  18
ATOM     17  C   UNL     1      48.012   2.262   5.199  0.00  0.00    +0.000 C 
ATOM     18  O   UNL     1      47.928   1.759   6.527  0.00  0.00    +0.000 OA
ENDBRANCH  11  18
ENDBRANCH  10  14
ENDBRANCH   8  10
ENDBRANCH   7   8
ENDBRANCH   1   7
BRANCH   4  19
ATOM     19  C   UNL     1      49.243   7.191  14.404  0.00  0.00    +0.000 C 
BRANCH  19  20
ATOM     20  N   UNL     1      49.098   7.334  15.828  0.00  0.00    +0.000 N 
ATOM     21  C   UNL     1      49.876   6.615  16.697  0.00  0.00    +0.000 C 
ATOM     22  O   UNL     1      50.755   5.851  16.308  0.00  0.00    +0.000 OA
ATOM     23  H   UNL     1      48.242   7.765  16.159  0.00  0.00    +0.000 HD
BRANCH  21  24
ATOM     24  C   UNL     1      49.648   6.859  18.127  0.00  0.00    +0.000 A 
ATOM     25  C   UNL     1      49.840   8.132  18.646  0.00  0.00    +0.000 A 
ATOM     26  S   UNL     1      49.466   8.257  20.305  0.00  0.00    +0.000 S 
ATOM     27  C   UNL     1      49.085   6.601  20.399  0.00  0.00    +0.000 A 
ATOM     28  N   UNL     1      48.698   6.037  21.574  0.00  0.00    +0.000 NA
ATOM     29  C   UNL     1      48.463   4.770  21.508  0.00  0.00    +0.000 A 
ATOM     30  N   UNL     1      48.580   4.012  20.372  0.00  0.00    +0.000 N 
ATOM     31  C   UNL     1      48.953   4.542  19.163  0.00  0.00    +0.000 A 
ATOM     32  O   UNL     1      49.025   3.839  18.161  0.00  0.00    +0.000 OA
ATOM     33  C   UNL     1      49.229   5.965  19.179  0.00  0.00    +0.000 A 
ATOM     34  H   UNL     1      48.379   3.023  20.384  0.00  0.00    +0.000 HD
ENDBRANCH  21  24
ENDBRANCH  19  20
ENDBRANCH   4  19
TORSDOF 8
ENDMDL
MODEL 3
REMARK VINA RESULT:    -7.838      1.583      2.063
REMARK INTER + INTRA:         -12.290
REMARK INTER:                 -10.947
REMARK INTRA:                  -1.343
REMARK UNBOUND:                -0.786
REMARK  Name = 
REMARK  10 active torsions:
REMARK  status: ('A' for Active; 'I' for Inactive)
REMARK    1  A    between atoms: C_1  and  O_2
REMARK    2  A    between atoms: O_2  and  C_3
REMARK    3  A    between atoms: C_6  and  C_7
REMARK    4  A    between atoms: C_7  and  N_8
REMARK    5  A    between atoms: N_8  and  C_9
REMARK    6  A    between atoms: N_8  and  C_10
REMARK    7  A    between atoms: C_10  and  C_11
REMARK    8  A    between atoms: C_14  and  C_15
REMARK    9  A    between atoms: C_15  and  N_16
REMARK   10  A    between atoms: C_17  and  C_19
REMARK                            x       y       z     vdW  Elec       q    Type
REMARK                         _______ _______ _______ _____ _____    ______ ____
ROOT
ATOM      1  C   UNL     1      46.164   5.360  12.505  0.00  0.00    +0.000 A 
ATOM      2  C   UNL     1      46.762   5.209  13.764  0.00  0.00    +0.000 A 
ATOM      3  C   UNL     1      47.813   6.043  14.157  0.00  0.00    +0.000 A 
ATOM      4  C   UNL     1      48.280   7.049  13.300  0.00  0.00    +0.000 A 
ATOM      5  C   UNL     1      47.727   7.154  12.017  0.00  0.00    +0.000 A 
ATOM      6  C   UNL     1      46.678   6.321  11.625  0.00  0.00    +0.000 A 
ENDROOT
BRANCH   1   7
ATOM      7  C   UNL     1      44.968   4.521  12.103  0.00  0.00    +0.000 C 
BRANCH   7   8
ATOM      8  N   UNL     1      44.166   5.101  11.008  0.00  0.00    +0.000 NA
ATOM      9  C   UNL     1      43.088   5.913  11.587  0.00  0.00    +0.000 C 
BRANCH   8  10
ATOM     10  C   UNL     1      43.636   4.057  10.108  0.00  0.00    +0.000 C 
BRANCH  10  14
ATOM     11  C   UNL     1      46.781   2.467   7.593  0.00  0.00    +0.000 A 
ATOM     12  C   UNL     1      46.017   1.614   8.389  0.00  0.00    +0.000 A 
ATOM     13  C   UNL     1      44.978   2.127   9.168  0.00  0.00    +0.000 A 
ATOM     14  C   UNL     1      44.697   3.500   9.176  0.00  0.00    +0.000 A 
ATOM     15  C   UNL     1      45.447   4.349   8.354  0.00  0.00    +0.000 A 
ATOM     16  C   UNL     1      46.483   3.832   7.571  0.00  0.00    +0.000 A 
BRANCH  11  18
ATOM     17  C   UNL     1      47.734   2.409   5.422  0.00  0.00    +0.000 C 
ATOM     18  O   UNL     1      47.838   2.096   6.806  0.00  0.00    +0.000 OA
ENDBRANCH  11  18
ENDBRANCH  10  14
ENDBRANCH   8  10
ENDBRANCH   7   8
ENDBRANCH   1   7
BRANCH   4  19
ATOM     19  C   UNL     1      49.370   7.994  13.730  0.00  0.00    +0.000 C 
BRANCH  19  20
ATOM     20  N   UNL     1      50.436   7.294  14.394  0.00  0.00    +0.000 N 
ATOM     21  C   UNL     1      50.725   7.524  15.713  0.00  0.00    +0.000 C 
ATOM     22  O   UNL     1      50.069   8.303  16.399  0.00  0.00    +0.000 OA
ATOM     23  H   UNL     1      51.122   6.839  13.801  0.00  0.00    +0.000 HD
BRANCH  21  24
ATOM     24  C   UNL     1      51.824   6.736  16.285  0.00  0.00    +0.000 A 
ATOM     25  C   UNL     1      53.129   7.196  16.175  0.00  0.00    +0.000 A 
ATOM     26  S   UNL     1      54.272   6.197  16.953  0.00  0.00    +0.000 S 
ATOM     27  C   UNL     1      53.068   5.088  17.417  0.00  0.00    +0.000 A 
ATOM     28  N   UNL     1      53.383   3.964  18.114  0.00  0.00    +0.000 NA
ATOM     29  C   UNL     1      52.378   3.200  18.380  0.00  0.00    +0.000 A 
ATOM     30  N   UNL     1      51.083   3.457  18.013  0.00  0.00    +0.000 N 
ATOM     31  C   UNL     1      50.719   4.585  17.322  0.00  0.00    +0.000 A 
ATOM     32  O   UNL     1      49.547   4.795  17.029  0.00  0.00    +0.000 OA
ATOM     33  C   UNL     1      51.810   5.481  16.997  0.00  0.00    +0.000 A 
ATOM     34  H   UNL     1      50.338   2.820  18.253  0.00  0.00    +0.000 HD
ENDBRANCH  21  24
ENDBRANCH  19  20
ENDBRANCH   4  19
TORSDOF 8
ENDMDL
MODEL 4
REMARK VINA RESULT:    -7.605      3.501      8.963
REMARK INTER + INTRA:         -11.949
REMARK INTER:                 -10.105
REMARK INTRA:                  -1.843
REMARK UNBOUND:                -0.786
REMARK  Name = 
REMARK  10 active torsions:
REMARK  status: ('A' for Active; 'I' for Inactive)
REMARK    1  A    between atoms: C_1  and  O_2
REMARK    2  A    between atoms: O_2  and  C_3
REMARK    3  A    between atoms: C_6  and  C_7
REMARK    4  A    between atoms: C_7  and  N_8
REMARK    5  A    between atoms: N_8  and  C_9
REMARK    6  A    between atoms: N_8  and  C_10
REMARK    7  A    between atoms: C_10  and  C_11
REMARK    8  A    between atoms: C_14  and  C_15
REMARK    9  A    between atoms: C_15  and  N_16
REMARK   10  A    between atoms: C_17  and  C_19
REMARK                            x       y       z     vdW  Elec       q    Type
REMARK                         _______ _______ _______ _____ _____    ______ ____
ROOT
ATOM      1  C   UNL     1      48.833   8.235  16.144  0.00  0.00    +0.000 A 
ATOM      2  C   UNL     1      48.193   9.268  15.446  0.00  0.00    +0.000 A 
ATOM      3  C   UNL     1      47.896   9.130  14.086  0.00  0.00    +0.000 A 
ATOM      4  C   UNL     1      48.226   7.951  13.404  0.00  0.00    +0.000 A 
ATOM      5  C   UNL     1      48.926   6.948  14.086  0.00  0.00    +0.000 A 
ATOM      6  C   UNL     1      49.224   7.087  15.442  0.00  0.00    +0.000 A 
ENDROOT
BRANCH   1   7
ATOM      7  C   UNL     1      49.082   8.338  17.635  0.00  0.00    +0.000 C 
BRANCH   7   8
ATOM      8  N   UNL     1      48.052   7.682  18.464  0.00  0.00    +0.000 NA
ATOM      9  C   UNL     1      47.351   8.707  19.248  0.00  0.00    +0.000 C 
BRANCH   8  10
ATOM     10  C   UNL     1      48.635   6.638  19.333  0.00  0.00    +0.000 C 
BRANCH  10  14
ATOM     11  C   UNL     1      49.692   2.977  17.278  0.00  0.00    +0.000 A 
ATOM     12  C   UNL     1      48.367   3.409  17.309  0.00  0.00    +0.000 A 
ATOM     13  C   UNL     1      48.036   4.611  17.940  0.00  0.00    +0.000 A 
ATOM     14  C   UNL     1      49.022   5.390  18.561  0.00  0.00    +0.000 A 
ATOM     15  C   UNL     1      50.355   4.968  18.501  0.00  0.00    +0.000 A 
ATOM     16  C   UNL     1      50.684   3.767  17.866  0.00  0.00    +0.000 A 
BRANCH  11  18
ATOM     17  C   UNL     1      51.386   1.318  17.199  0.00  0.00    +0.000 C 
ATOM     18  O   UNL     1      50.142   1.812  16.716  0.00  0.00    +0.000 OA
ENDBRANCH  11  18
ENDBRANCH  10  14
ENDBRANCH   8  10
ENDBRANCH   7   8
ENDBRANCH   1   7
BRANCH   4  19
ATOM     19  C   UNL     1      47.859   7.761  11.956  0.00  0.00    +0.000 C 
BRANCH  19  20
ATOM     20  N   UNL     1      47.117   6.544  11.761  0.00  0.00    +0.000 N 
ATOM     21  C   UNL     1      45.747   6.535  11.785  0.00  0.00    +0.000 C 
ATOM     22  O   UNL     1      45.090   7.563  11.931  0.00  0.00    +0.000 OA
ATOM     23  H   UNL     1      47.627   5.675  11.876  0.00  0.00    +0.000 HD
BRANCH  21  24
ATOM     24  C   UNL     1      45.101   5.237  11.557  0.00  0.00    +0.000 A 
ATOM     25  C   UNL     1      44.406   4.625  12.592  0.00  0.00    +0.000 A 
ATOM     26  S   UNL     1      43.660   3.159  12.138  0.00  0.00    +0.000 S 
ATOM     27  C   UNL     1      44.286   3.266  10.559  0.00  0.00    +0.000 A 
ATOM     28  N   UNL     1      44.034   2.297   9.639  0.00  0.00    +0.000 NA
ATOM     29  C   UNL     1      44.589   2.493   8.491  0.00  0.00    +0.000 A 
ATOM     30  N   UNL     1      45.373   3.570   8.176  0.00  0.00    +0.000 N 
ATOM     31  C   UNL     1      45.641   4.578   9.068  0.00  0.00    +0.000 A 
ATOM     32  O   UNL     1      46.329   5.540   8.746  0.00  0.00    +0.000 OA
ATOM     33  C   UNL     1      45.042   4.410  10.376  0.00  0.00    +0.000 A 
ATOM     34  H   UNL     1      45.778   3.668   7.257  0.00  0.00    +0.000 HD
ENDBRANCH  21  24
ENDBRANCH  19  20
ENDBRANCH   4  19
TORSDOF 8
ENDMDL
MODEL 5
REMARK VINA RESULT:    -7.283      4.161      8.643
REMARK INTER + INTRA:         -11.475
REMARK INTER:                  -9.559
REMARK INTRA:                  -1.916
REMARK UNBOUND:                -0.786
REMARK  Name = 
REMARK  10 active torsions:
REMARK  status: ('A' for Active; 'I' for Inactive)
REMARK    1  A    between atoms: C_1  and  O_2
REMARK    2  A    between atoms: O_2  and  C_3
REMARK    3  A    between atoms: C_6  and  C_7
REMARK    4  A    between atoms: C_7  and  N_8
REMARK    5  A    between atoms: N_8  and  C_9
REMARK    6  A    between atoms: N_8  and  C_10
REMARK    7  A    between atoms: C_10  and  C_11
REMARK    8  A    between atoms: C_14  and  C_15
REMARK    9  A    between atoms: C_15  and  N_16
REMARK   10  A    between atoms: C_17  and  C_19
REMARK                            x       y       z     vdW  Elec       q    Type
REMARK                         _______ _______ _______ _____ _____    ______ ____
ROOT
ATOM      1  C   UNL     1      48.904   8.599  18.802  0.00  0.00    +0.000 A 
ATOM      2  C   UNL     1      47.938   9.213  17.993  0.00  0.00    +0.000 A 
ATOM      3  C   UNL     1      48.048   9.173  16.599  0.00  0.00    +0.000 A 
ATOM      4  C   UNL     1      49.123   8.510  15.991  0.00  0.00    +0.000 A 
ATOM      5  C   UNL     1      50.122   7.956  16.801  0.00  0.00    +0.000 A 
ATOM      6  C   UNL     1      50.013   7.997  18.192  0.00  0.00    +0.000 A 
ENDROOT
BRANCH   1   7
ATOM      7  C   UNL     1      48.750   8.561  20.309  0.00  0.00    +0.000 C 
BRANCH   7   8
ATOM      8  N   UNL     1      47.494   7.939  20.770  0.00  0.00    +0.000 NA
ATOM      9  C   UNL     1      46.981   8.699  21.917  0.00  0.00    +0.000 C 
BRANCH   8  10
ATOM     10  C   UNL     1      47.682   6.512  21.105  0.00  0.00    +0.000 C 
BRANCH  10  14
ATOM     11  C   UNL     1      48.435   3.961  17.689  0.00  0.00    +0.000 A 
ATOM     12  C   UNL     1      47.293   4.759  17.733  0.00  0.00    +0.000 A 
ATOM     13  C   UNL     1      47.074   5.610  18.819  0.00  0.00    +0.000 A 
ATOM     14  C   UNL     1      47.984   5.664  19.883  0.00  0.00    +0.000 A 
ATOM     15  C   UNL     1      49.144   4.883  19.821  0.00  0.00    +0.000 A 
ATOM     16  C   UNL     1      49.363   4.036  18.731  0.00  0.00    +0.000 A 
BRANCH  11  18
ATOM     17  C   UNL     1      49.846   2.199  16.959  0.00  0.00    +0.000 C 
ATOM     18  O   UNL     1      48.753   3.071  16.698  0.00  0.00    +0.000 OA
ENDBRANCH  11  18
ENDBRANCH  10  14
ENDBRANCH   8  10
ENDBRANCH   7   8
ENDBRANCH   1   7
BRANCH   4  19
ATOM     19  C   UNL     1      49.225   8.405  14.492  0.00  0.00    +0.000 C 
BRANCH  19  20
ATOM     20  N   UNL     1      47.988   7.947  13.917  0.00  0.00    +0.000 N 
ATOM     21  C   UNL     1      47.942   6.826  13.131  0.00  0.00    +0.000 C 
ATOM     22  O   UNL     1      48.936   6.139  12.914  0.00  0.00    +0.000 OA
ATOM     23  H   UNL     1      47.224   8.614  13.886  0.00  0.00    +0.000 HD
BRANCH  21  24
ATOM     24  C   UNL     1      46.621   6.448  12.615  0.00  0.00    +0.000 A 
ATOM     25  C   UNL     1      45.802   7.416  12.048  0.00  0.00    +0.000 A 
ATOM     26  S   UNL     1      44.335   6.797  11.437  0.00  0.00    +0.000 S 
ATOM     27  C   UNL     1      44.720   5.223  11.958  0.00  0.00    +0.000 A 
ATOM     28  N   UNL     1      43.859   4.189  11.758  0.00  0.00    +0.000 NA
ATOM     29  C   UNL     1      44.266   3.056  12.223  0.00  0.00    +0.000 A 
ATOM     30  N   UNL     1      45.458   2.861  12.869  0.00  0.00    +0.000 N 
ATOM     31  C   UNL     1      46.362   3.871  13.079  0.00  0.00    +0.000 A 
ATOM     32  O   UNL     1      47.430   3.656  13.642  0.00  0.00    +0.000 OA
ATOM     33  C   UNL     1      45.956   5.168  12.576  0.00  0.00    +0.000 A 
ATOM     34  H   UNL     1      45.721   1.948  13.209  0.00  0.00    +0.000 HD
ENDBRANCH  21  24
ENDBRANCH  19  20
ENDBRANCH   4  19
TORSDOF 8
ENDMDL
MODEL 6
REMARK VINA RESULT:    -7.282      3.606      4.370
REMARK INTER + INTRA:         -11.474
REMARK INTER:                 -10.711
REMARK INTRA:                  -0.763
REMARK UNBOUND:                -0.786
REMARK  Name = 
REMARK  10 active torsions:
REMARK  status: ('A' for Active; 'I' for Inactive)
REMARK    1  A    between atoms: C_1  and  O_2
REMARK    2  A    between atoms: O_2  and  C_3
REMARK    3  A    between atoms: C_6  and  C_7
REMARK    4  A    between atoms: C_7  and  N_8
REMARK    5  A    between atoms: N_8  and  C_9
REMARK    6  A    between atoms: N_8  and  C_10
REMARK    7  A    between atoms: C_10  and  C_11
REMARK    8  A    between atoms: C_14  and  C_15
REMARK    9  A    between atoms: C_15  and  N_16
REMARK   10  A    between atoms: C_17  and  C_19
REMARK                            x       y       z     vdW  Elec       q    Type
REMARK                         _______ _______ _______ _____ _____    ______ ____
ROOT
ATOM      1  C   UNL     1      46.309   6.113  12.358  0.00  0.00    +0.000 A 
ATOM      2  C   UNL     1      47.422   5.881  13.178  0.00  0.00    +0.000 A 
ATOM      3  C   UNL     1      47.986   6.923  13.921  0.00  0.00    +0.000 A 
ATOM      4  C   UNL     1      47.441   8.213  13.863  0.00  0.00    +0.000 A 
ATOM      5  C   UNL     1      46.372   8.456  12.991  0.00  0.00    +0.000 A 
ATOM      6  C   UNL     1      45.810   7.417  12.249  0.00  0.00    +0.000 A 
ENDROOT
BRANCH   1   7
ATOM      7  C   UNL     1      45.637   4.975  11.616  0.00  0.00    +0.000 C 
BRANCH   7   8
ATOM      8  N   UNL     1      44.162   5.019  11.657  0.00  0.00    +0.000 NA
ATOM      9  C   UNL     1      43.692   4.174  12.762  0.00  0.00    +0.000 C 
BRANCH   8  10
ATOM     10  C   UNL     1      43.568   4.606  10.368  0.00  0.00    +0.000 C 
BRANCH  10  14
ATOM     11  C   UNL     1      46.219   2.378   7.769  0.00  0.00    +0.000 A 
ATOM     12  C   UNL     1      46.136   3.766   7.667  0.00  0.00    +0.000 A 
ATOM     13  C   UNL     1      45.309   4.484   8.534  0.00  0.00    +0.000 A 
ATOM     14  C   UNL     1      44.542   3.825   9.504  0.00  0.00    +0.000 A 
ATOM     15  C   UNL     1      44.651   2.434   9.623  0.00  0.00    +0.000 A 
ATOM     16  C   UNL     1      45.483   1.719   8.758  0.00  0.00    +0.000 A 
BRANCH  11  18
ATOM     17  C   UNL     1      48.123   2.143   6.374  0.00  0.00    +0.000 C 
ATOM     18  O   UNL     1      46.970   1.559   6.969  0.00  0.00    +0.000 OA
ENDBRANCH  11  18
ENDBRANCH  10  14
ENDBRANCH   8  10
ENDBRANCH   7   8
ENDBRANCH   1   7
BRANCH   4  19
ATOM     19  C   UNL     1      47.998   9.332  14.702  0.00  0.00    +0.000 C 
BRANCH  19  20
ATOM     20  N   UNL     1      47.703   9.135  16.096  0.00  0.00    +0.000 N 
ATOM     21  C   UNL     1      48.267   9.926  17.062  0.00  0.00    +0.000 C 
ATOM     22  O   UNL     1      49.014  10.862  16.785  0.00  0.00    +0.000 OA
ATOM     23  H   UNL     1      47.292   8.244  16.354  0.00  0.00    +0.000 HD
BRANCH  21  24
ATOM     24  C   UNL     1      47.877   9.639  18.447  0.00  0.00    +0.000 A 
ATOM     25  C   UNL     1      47.434  10.671  19.264  0.00  0.00    +0.000 A 
ATOM     26  S   UNL     1      46.955  10.155  20.817  0.00  0.00    +0.000 S 
ATOM     27  C   UNL     1      47.375   8.543  20.470  0.00  0.00    +0.000 A 
ATOM     28  N   UNL     1      47.228   7.564  21.403  0.00  0.00    +0.000 NA
ATOM     29  C   UNL     1      47.606   6.393  21.015  0.00  0.00    +0.000 A 
ATOM     30  N   UNL     1      48.119   6.109  19.776  0.00  0.00    +0.000 N 
ATOM     31  C   UNL     1      48.271   7.062  18.800  0.00  0.00    +0.000 A 
ATOM     32  O   UNL     1      48.712   6.768  17.695  0.00  0.00    +0.000 OA
ATOM     33  C   UNL     1      47.860   8.398  19.182  0.00  0.00    +0.000 A 
ATOM     34  H   UNL     1      48.395   5.170  19.531  0.00  0.00    +0.000 HD
ENDBRANCH  21  24
ENDBRANCH  19  20
ENDBRANCH   4  19
TORSDOF 8
ENDMDL
MODEL 7
REMARK VINA RESULT:    -7.019      3.741      9.256
REMARK INTER + INTRA:         -11.088
REMARK INTER:                  -9.212
REMARK INTRA:                  -1.876
REMARK UNBOUND:                -0.786
REMARK  Name = 
REMARK  10 active torsions:
REMARK  status: ('A' for Active; 'I' for Inactive)
REMARK    1  A    between atoms: C_1  and  O_2
REMARK    2  A    between atoms: O_2  and  C_3
REMARK    3  A    between atoms: C_6  and  C_7
REMARK    4  A    between atoms: C_7  and  N_8
REMARK    5  A    between atoms: N_8  and  C_9
REMARK    6  A    between atoms: N_8  and  C_10
REMARK    7  A    between atoms: C_10  and  C_11
REMARK    8  A    between atoms: C_14  and  C_15
REMARK    9  A    between atoms: C_15  and  N_16
REMARK   10  A    between atoms: C_17  and  C_19
REMARK                            x       y       z     vdW  Elec       q    Type
REMARK                         _______ _______ _______ _____ _____    ______ ____
ROOT
ATOM      1  C   UNL     1      51.404   3.616  18.168  0.00  0.00    +0.000 A 
ATOM      2  C   UNL     1      50.967   2.514  17.420  0.00  0.00    +0.000 A 
ATOM      3  C   UNL     1      49.622   2.391  17.055  0.00  0.00    +0.000 A 
ATOM      4  C   UNL     1      48.693   3.372  17.426  0.00  0.00    +0.000 A 
ATOM      5  C   UNL     1      49.118   4.436  18.231  0.00  0.00    +0.000 A 
ATOM      6  C   UNL     1      50.459   4.558  18.596  0.00  0.00    +0.000 A 
ENDROOT
BRANCH   1   7
ATOM      7  C   UNL     1      52.871   3.805  18.495  0.00  0.00    +0.000 C 
BRANCH   7   8
ATOM      8  N   UNL     1      53.604   4.630  17.515  0.00  0.00    +0.000 NA
ATOM      9  C   UNL     1      54.918   4.021  17.269  0.00  0.00    +0.000 C 
BRANCH   8  10
ATOM     10  C   UNL     1      53.732   6.030  17.969  0.00  0.00    +0.000 C 
BRANCH  10  14
ATOM     11  C   UNL     1      50.627   8.509  16.250  0.00  0.00    +0.000 A 
ATOM     12  C   UNL     1      50.953   8.625  17.600  0.00  0.00    +0.000 A 
ATOM     13  C   UNL     1      51.982   7.852  18.142  0.00  0.00    +0.000 A 
ATOM     14  C   UNL     1      52.690   6.940  17.346  0.00  0.00    +0.000 A 
ATOM     15  C   UNL     1      52.379   6.848  15.984  0.00  0.00    +0.000 A 
ATOM     16  C   UNL     1      51.352   7.627  15.444  0.00  0.00    +0.000 A 
BRANCH  11  18
ATOM     17  C   UNL     1      49.348  10.500  16.082  0.00  0.00    +0.000 C 
ATOM     18  O   UNL     1      49.628   9.189  15.605  0.00  0.00    +0.000 OA
ENDBRANCH  11  18
ENDBRANCH  10  14
ENDBRANCH   8  10
ENDBRANCH   7   8
ENDBRANCH   1   7
BRANCH   4  19
ATOM     19  C   UNL     1      47.254   3.286  16.990  0.00  0.00    +0.000 C 
BRANCH  19  20
ATOM     20  N   UNL     1      46.935   4.317  16.039  0.00  0.00    +0.000 N 
ATOM     21  C   UNL     1      47.037   4.096  14.690  0.00  0.00    +0.000 C 
ATOM     22  O   UNL     1      47.363   3.005  14.230  0.00  0.00    +0.000 OA
ATOM     23  H   UNL     1      46.898   5.267  16.390  0.00  0.00    +0.000 HD
BRANCH  21  24
ATOM     24  C   UNL     1      46.668   5.217  13.818  0.00  0.00    +0.000 A 
ATOM     25  C   UNL     1      47.554   6.272  13.644  0.00  0.00    +0.000 A 
ATOM     26  S   UNL     1      46.998   7.455  12.547  0.00  0.00    +0.000 S 
ATOM     27  C   UNL     1      45.532   6.624  12.309  0.00  0.00    +0.000 A 
ATOM     28  N   UNL     1      44.574   7.118  11.480  0.00  0.00    +0.000 NA
ATOM     29  C   UNL     1      43.505   6.399  11.411  0.00  0.00    +0.000 A 
ATOM     30  N   UNL     1      43.304   5.229  12.095  0.00  0.00    +0.000 N 
ATOM     31  C   UNL     1      44.249   4.688  12.930  0.00  0.00    +0.000 A 
ATOM     32  O   UNL     1      44.045   3.627  13.509  0.00  0.00    +0.000 OA
ATOM     33  C   UNL     1      45.473   5.454  13.045  0.00  0.00    +0.000 A 
ATOM     34  H   UNL     1      42.444   4.711  11.997  0.00  0.00    +0.000 HD
ENDBRANCH  21  24
ENDBRANCH  19  20
ENDBRANCH   4  19
TORSDOF 8
ENDMDL
MODEL 8
REMARK VINA RESULT:    -6.919      1.911      2.206
REMARK INTER + INTRA:         -10.942
REMARK INTER:                 -10.084
REMARK INTRA:                  -0.858
REMARK UNBOUND:                -0.786
REMARK  Name = 
REMARK  10 active torsions:
REMARK  status: ('A' for Active; 'I' for Inactive)
REMARK    1  A    between atoms: C_1  and  O_2
REMARK    2  A    between atoms: O_2  and  C_3
REMARK    3  A    between atoms: C_6  and  C_7
REMARK    4  A    between atoms: C_7  and  N_8
REMARK    5  A    between atoms: N_8  and  C_9
REMARK    6  A    between atoms: N_8  and  C_10
REMARK    7  A    between atoms: C_10  and  C_11
REMARK    8  A    between atoms: C_14  and  C_15
REMARK    9  A    between atoms: C_15  and  N_16
REMARK   10  A    between atoms: C_17  and  C_19
REMARK                            x       y       z     vdW  Elec       q    Type
REMARK                         _______ _______ _______ _____ _____    ______ ____
ROOT
ATOM      1  C   UNL     1      46.349   5.179  12.823  0.00  0.00    +0.000 A 
ATOM      2  C   UNL     1      46.942   6.289  12.206  0.00  0.00    +0.000 A 
ATOM      3  C   UNL     1      47.946   7.013  12.857  0.00  0.00    +0.000 A 
ATOM      4  C   UNL     1      48.380   6.633  14.135  0.00  0.00    +0.000 A 
ATOM      5  C   UNL     1      47.740   5.566  14.777  0.00  0.00    +0.000 A 
ATOM      6  C   UNL     1      46.737   4.845  14.128  0.00  0.00    +0.000 A 
ENDROOT
BRANCH   1   7
ATOM      7  C   UNL     1      45.323   4.336  12.094  0.00  0.00    +0.000 C 
BRANCH   7   8
ATOM      8  N   UNL     1      44.039   5.024  11.855  0.00  0.00    +0.000 NA
ATOM      9  C   UNL     1      43.119   4.708  12.955  0.00  0.00    +0.000 C 
BRANCH   8  10
ATOM     10  C   UNL     1      43.462   4.661  10.544  0.00  0.00    +0.000 C 
BRANCH  10  14
ATOM     11  C   UNL     1      46.118   2.460   7.928  0.00  0.00    +0.000 A 
ATOM     12  C   UNL     1      46.121   3.855   7.923  0.00  0.00    +0.000 A 
ATOM     13  C   UNL     1      45.291   4.560   8.797  0.00  0.00    +0.000 A 
ATOM     14  C   UNL     1      44.434   3.884   9.676  0.00  0.00    +0.000 A 
ATOM     15  C   UNL     1      44.456   2.484   9.699  0.00  0.00    +0.000 A 
ATOM     16  C   UNL     1      45.291   1.781   8.827  0.00  0.00    +0.000 A 
BRANCH  11  18
ATOM     17  C   UNL     1      48.065   2.215   6.596  0.00  0.00    +0.000 C 
ATOM     18  O   UNL     1      46.863   1.655   7.109  0.00  0.00    +0.000 OA
ENDBRANCH  11  18
ENDBRANCH  10  14
ENDBRANCH   8  10
ENDBRANCH   7   8
ENDBRANCH   1   7
BRANCH   4  19
ATOM     19  C   UNL     1      49.501   7.364  14.825  0.00  0.00    +0.000 C 
BRANCH  19  20
ATOM     20  N   UNL     1      49.976   6.630  15.967  0.00  0.00    +0.000 N 
ATOM     21  C   UNL     1      50.045   7.210  17.207  0.00  0.00    +0.000 C 
ATOM     22  O   UNL     1      49.669   8.362  17.410  0.00  0.00    +0.000 OA
ATOM     23  H   UNL     1      50.501   5.782  15.780  0.00  0.00    +0.000 HD
BRANCH  21  24
ATOM     24  C   UNL     1      50.529   6.356  18.298  0.00  0.00    +0.000 A 
ATOM     25  C   UNL     1      49.781   6.240  19.462  0.00  0.00    +0.000 A 
ATOM     26  S   UNL     1      50.451   5.157  20.598  0.00  0.00    +0.000 S 
ATOM     27  C   UNL     1      51.790   4.848  19.594  0.00  0.00    +0.000 A 
ATOM     28  N   UNL     1      52.778   4.001  19.987  0.00  0.00    +0.000 NA
ATOM     29  C   UNL     1      53.745   3.877  19.141  0.00  0.00    +0.000 A 
ATOM     30  N   UNL     1      53.814   4.522  17.934  0.00  0.00    +0.000 N 
ATOM     31  C   UNL     1      52.833   5.374  17.492  0.00  0.00    +0.000 A 
ATOM     32  O   UNL     1      52.916   5.918  16.396  0.00  0.00    +0.000 OA
ATOM     33  C   UNL     1      51.721   5.550  18.404  0.00  0.00    +0.000 A 
ATOM     34  H   UNL     1      54.597   4.382  17.314  0.00  0.00    +0.000 HD
ENDBRANCH  21  24
ENDBRANCH  19  20
ENDBRANCH   4  19
TORSDOF 8
ENDMDL
MODEL 9
REMARK VINA RESULT:    -6.809      4.000      9.197
REMARK INTER + INTRA:         -10.780
REMARK INTER:                  -8.772
REMARK INTRA:                  -2.008
REMARK UNBOUND:                -0.786
REMARK  Name = 
REMARK  10 active torsions:
REMARK  status: ('A' for Active; 'I' for Inactive)
REMARK    1  A    between atoms: C_1  and  O_2
REMARK    2  A    between atoms: O_2  and  C_3
REMARK    3  A    between atoms: C_6  and  C_7
REMARK    4  A    between atoms: C_7  and  N_8
REMARK    5  A    between atoms: N_8  and  C_9
REMARK    6  A    between atoms: N_8  and  C_10
REMARK    7  A    between atoms: C_10  and  C_11
REMARK    8  A    between atoms: C_14  and  C_15
REMARK    9  A    between atoms: C_15  and  N_16
REMARK   10  A    between atoms: C_17  and  C_19
REMARK                            x       y       z     vdW  Elec       q    Type
REMARK                         _______ _______ _______ _____ _____    ______ ____
ROOT
ATOM      1  C   UNL     1      50.426   5.021  19.261  0.00  0.00    +0.000 A 
ATOM      2  C   UNL     1      50.717   4.325  18.080  0.00  0.00    +0.000 A 
ATOM      3  C   UNL     1      49.689   3.790  17.297  0.00  0.00    +0.000 A 
ATOM      4  C   UNL     1      48.350   3.951  17.679  0.00  0.00    +0.000 A 
ATOM      5  C   UNL     1      48.065   4.588  18.893  0.00  0.00    +0.000 A 
ATOM      6  C   UNL     1      49.091   5.120  19.675  0.00  0.00    +0.000 A 
ENDROOT
BRANCH   1   7
ATOM      7  C   UNL     1      51.525   5.679  20.071  0.00  0.00    +0.000 C 
BRANCH   7   8
ATOM      8  N   UNL     1      52.052   6.921  19.473  0.00  0.00    +0.000 NA
ATOM      9  C   UNL     1      53.355   7.224  20.077  0.00  0.00    +0.000 C 
BRANCH   8  10
ATOM     10  C   UNL     1      51.107   8.046  19.630  0.00  0.00    +0.000 C 
BRANCH  10  14
ATOM     11  C   UNL     1      48.957   8.968  15.987  0.00  0.00    +0.000 A 
ATOM     12  C   UNL     1      50.118   8.196  15.944  0.00  0.00    +0.000 A 
ATOM     13  C   UNL     1      50.786   7.868  17.125  0.00  0.00    +0.000 A 
ATOM     14  C   UNL     1      50.314   8.319  18.365  0.00  0.00    +0.000 A 
ATOM     15  C   UNL     1      49.132   9.069  18.407  0.00  0.00    +0.000 A 
ATOM     16  C   UNL     1      48.462   9.391  17.223  0.00  0.00    +0.000 A 
BRANCH  11  18
ATOM     17  C   UNL     1      48.856  10.306  14.031  0.00  0.00    +0.000 C 
ATOM     18  O   UNL     1      48.226   9.376  14.904  0.00  0.00    +0.000 OA
ENDBRANCH  11  18
ENDBRANCH  10  14
ENDBRANCH   8  10
ENDBRANCH   7   8
ENDBRANCH   1   7
BRANCH   4  19
ATOM     19  C   UNL     1      47.228   3.436  16.817  0.00  0.00    +0.000 C 
BRANCH  19  20
ATOM     20  N   UNL     1      46.810   4.424  15.859  0.00  0.00    +0.000 N 
ATOM     21  C   UNL     1      46.880   4.183  14.513  0.00  0.00    +0.000 C 
ATOM     22  O   UNL     1      47.261   3.106  14.061  0.00  0.00    +0.000 OA
ATOM     23  H   UNL     1      46.722   5.377  16.195  0.00  0.00    +0.000 HD
BRANCH  21  24
ATOM     24  C   UNL     1      46.408   5.260  13.634  0.00  0.00    +0.000 A 
ATOM     25  C   UNL     1      47.224   6.358  13.395  0.00  0.00    +0.000 A 
ATOM     26  S   UNL     1      46.553   7.480  12.299  0.00  0.00    +0.000 S 
ATOM     27  C   UNL     1      45.127   6.564  12.150  0.00  0.00    +0.000 A 
ATOM     28  N   UNL     1      44.106   6.984  11.356  0.00  0.00    +0.000 NA
ATOM     29  C   UNL     1      43.076   6.205  11.353  0.00  0.00    +0.000 A 
ATOM     30  N   UNL     1      42.973   5.044  12.072  0.00  0.00    +0.000 N 
ATOM     31  C   UNL     1      43.984   4.576  12.873  0.00  0.00    +0.000 A 
ATOM     32  O   UNL     1      43.868   3.520  13.485  0.00  0.00    +0.000 OA
ATOM     33  C   UNL     1      45.168   5.411  12.913  0.00  0.00    +0.000 A 
ATOM     34  H   UNL     1      42.140   4.476  12.026  0.00  0.00    +0.000 HD
ENDBRANCH  21  24
ENDBRANCH  19  20
ENDBRANCH   4  19
TORSDOF 8
ENDMDL
