MODEL 1
REMARK VINA RESULT:    -8.584      0.000      0.000
REMARK INTER + INTRA:         -12.458
REMARK INTER:                 -11.595
REMARK INTRA:                  -0.863
REMARK UNBOUND:                -0.863
REMARK  Name = 
REMARK  6 active torsions:
REMARK  status: ('A' for Active; 'I' for Inactive)
REMARK    1  A    between atoms: C_2  and  C_4
REMARK    2  A    between atoms: C_7  and  N_8
REMARK    3  A    between atoms: N_8  and  C_9
REMARK    4  A    between atoms: C_9  and  C_10
REMARK    5  A    between atoms: C_10  and  C_11
REMARK    6  A    between atoms: C_15  and  C_16
REMARK                            x       y       z     vdW  Elec       q    Type
REMARK                         _______ _______ _______ _____ _____    ______ ____
ROOT
ATOM      1  C   UNL     1      45.184   6.811  12.770  0.00  0.00    +0.000 C 
ENDROOT
BRANCH   1   2
ATOM      2  N   UNL     1      46.584   6.391  12.645  0.00  0.00    +0.000 N 
ATOM      3  H   UNL     1      47.222   7.182  12.619  0.00  0.00    +0.000 HD
BRANCH   2   7
ATOM      4  C   UNL     1      47.763   3.656  15.489  0.00  0.00    +0.000 A 
ATOM      5  C   UNL     1      47.907   5.015  15.714  0.00  0.00    +0.000 A 
ATOM      6  N   UNL     1      47.535   5.951  14.800  0.00  0.00    +0.000 NA
ATOM      7  C   UNL     1      47.014   5.494  13.642  0.00  0.00    +0.000 A 
ATOM      8  C   UNL     1      46.863   4.114  13.441  0.00  0.00    +0.000 A 
ATOM      9  N   UNL     1      47.236   3.160  14.336  0.00  0.00    +0.000 NA
BRANCH   4  11
ATOM     10  N   UNL     1      47.588   2.809  17.751  0.00  0.00    +0.000 N 
ATOM     11  C   UNL     1      48.195   2.684  16.530  0.00  0.00    +0.000 C 
ATOM     12  O   UNL     1      49.038   1.823  16.314  0.00  0.00    +0.000 OA
ATOM     13  H   UNL     1      47.842   2.180  18.501  0.00  0.00    +0.000 HD
ATOM     14  H   UNL     1      46.893   3.531  17.901  0.00  0.00    +0.000 HD
ENDBRANCH   4  11
ENDBRANCH   2   7
ENDBRANCH   1   2
BRANCH   1  15
ATOM     15  C   UNL     1      44.493   6.692  11.405  0.00  0.00    +0.000 C 
BRANCH  15  16
ATOM     16  C   UNL     1      44.355   5.266  10.946  0.00  0.00    +0.000 A 
ATOM     17  C   UNL     1      43.489   4.386  11.579  0.00  0.00    +0.000 A 
ATOM     18  N   UNL     1      43.322   3.101  11.208  0.00  0.00    +0.000 NA
ATOM     19  C   UNL     1      44.061   2.668  10.155  0.00  0.00    +0.000 A 
ATOM     20  C   UNL     1      44.983   3.440   9.444  0.00  0.00    +0.000 A 
ATOM     21  C   UNL     1      45.112   4.771   9.876  0.00  0.00    +0.000 A 
BRANCH  20  22
ATOM     22  C   UNL     1      45.779   2.896   8.322  0.00  0.00    +0.000 A 
ATOM     23  C   UNL     1      46.226   1.561   8.319  0.00  0.00    +0.000 A 
ATOM     24  C   UNL     1      46.950   1.033   7.244  0.00  0.00    +0.000 A 
ATOM     25  C   UNL     1      47.257   1.835   6.149  0.00  0.00    +0.000 A 
ATOM     26  C   UNL     1      46.841   3.162   6.131  0.00  0.00    +0.000 A 
ATOM     27  C   UNL     1      46.108   3.684   7.203  0.00  0.00    +0.000 A 
ENDBRANCH  20  22
ENDBRANCH  15  16
ENDBRANCH   1  15
TORSDOF 6
ENDMDL
MODEL 2
REMARK VINA RESULT:    -8.243      3.521      6.990
REMARK INTER + INTRA:         -11.998
REMARK INTER:                 -11.194
REMARK INTRA:                  -0.804
REMARK UNBOUND:                -0.863
REMARK  Name = 
REMARK  6 active torsions:
REMARK  status: ('A' for Active; 'I' for Inactive)
REMARK    1  A    between atoms: C_2  and  C_4
REMARK    2  A    between atoms: C_7  and  N_8
REMARK    3  A    between atoms: N_8  and  C_9
REMARK    4  A    between atoms: C_9  and  C_10
REMARK    5  A    between atoms: C_10  and  C_11
REMARK    6  A    between atoms: C_15  and  C_16
REMARK                            x       y       z     vdW  Elec       q    Type
REMARK                         _______ _______ _______ _____ _____    ______ ____
ROOT
ATOM      1  C   UNL     1      43.324   4.181  11.269  0.00  0.00    +0.000 C 
ENDROOT
BRANCH   1   2
ATOM      2  N   UNL     1      43.763   4.793  10.009  0.00  0.00    +0.000 N 
ATOM      3  H   UNL     1      44.188   5.705  10.153  0.00  0.00    +0.000 HD
BRANCH   2   7
ATOM      4  C   UNL     1      46.314   2.347   7.894  0.00  0.00    +0.000 A 
ATOM      5  C   UNL     1      46.295   3.714   7.668  0.00  0.00    +0.000 A 
ATOM      6  N   UNL     1      45.466   4.557   8.340  0.00  0.00    +0.000 NA
ATOM      7  C   UNL     1      44.643   3.997   9.252  0.00  0.00    +0.000 A 
ATOM      8  C   UNL     1      44.689   2.612   9.477  0.00  0.00    +0.000 A 
ATOM      9  N   UNL     1      45.503   1.750   8.809  0.00  0.00    +0.000 NA
BRANCH   4  11
ATOM     10  N   UNL     1      48.332   2.110   6.577  0.00  0.00    +0.000 N 
ATOM     11  C   UNL     1      47.243   1.481   7.119  0.00  0.00    +0.000 C 
ATOM     12  O   UNL     1      47.053   0.281   6.974  0.00  0.00    +0.000 OA
ATOM     13  H   UNL     1      48.999   1.576   6.036  0.00  0.00    +0.000 HD
ATOM     14  H   UNL     1      48.464   3.106   6.714  0.00  0.00    +0.000 HD
ENDBRANCH   4  11
ENDBRANCH   2   7
ENDBRANCH   1   2
BRANCH   1  15
ATOM     15  C   UNL     1      43.561   5.165  12.422  0.00  0.00    +0.000 C 
BRANCH  15  16
ATOM     16  C   UNL     1      45.022   5.419  12.677  0.00  0.00    +0.000 A 
ATOM     17  C   UNL     1      45.815   4.482  13.323  0.00  0.00    +0.000 A 
ATOM     18  N   UNL     1      47.129   4.655  13.573  0.00  0.00    +0.000 NA
ATOM     19  C   UNL     1      47.679   5.827  13.164  0.00  0.00    +0.000 A 
ATOM     20  C   UNL     1      46.993   6.861  12.523  0.00  0.00    +0.000 A 
ATOM     21  C   UNL     1      45.628   6.621  12.290  0.00  0.00    +0.000 A 
BRANCH  20  22
ATOM     22  C   UNL     1      47.649   8.127  12.130  0.00  0.00    +0.000 A 
ATOM     23  C   UNL     1      46.952   9.350  12.138  0.00  0.00    +0.000 A 
ATOM     24  C   UNL     1      47.579  10.553  11.799  0.00  0.00    +0.000 A 
ATOM     25  C   UNL     1      48.920  10.561  11.428  0.00  0.00    +0.000 A 
ATOM     26  C   UNL     1      49.631   9.366  11.395  0.00  0.00    +0.000 A 
ATOM     27  C   UNL     1      49.003   8.165  11.746  0.00  0.00    +0.000 A 
ENDBRANCH  20  22
ENDBRANCH  15  16
ENDBRANCH   1  15
TORSDOF 6
ENDMDL
MODEL 3
REMARK VINA RESULT:    -7.990      3.329      7.283
REMARK INTER + INTRA:         -11.656
REMARK INTER:                 -10.854
REMARK INTRA:                  -0.801
REMARK UNBOUND:                -0.863
REMARK  Name = 
REMARK  6 active torsions:
REMARK  status: ('A' for Active; 'I' for Inactive)
REMARK    1  A    between atoms: C_2  and  C_4
REMARK    2  A    between atoms: C_7  and  N_8
REMARK    3  A    between atoms: N_8  and  C_9
REMARK    4  A    between atoms: C_9  and  C_10
REMARK    5  A    between atoms: C_10  and  C_11
REMARK    6  A    between atoms: C_15  and  C_16
REMARK                            x       y       z     vdW  Elec       q    Type
REMARK                         _______ _______ _______ _____ _____    ______ ____
ROOT
ATOM      1  C   UNL     1      43.745   3.173  11.791  0.00  0.00    +0.000 C 
ENDROOT
BRANCH   1   2
ATOM      2  N   UNL     1      43.649   3.860  10.498  0.00  0.00    +0.000 N 
ATOM      3  H   UNL     1      43.702   4.871  10.596  0.00  0.00    +0.000 HD
BRANCH   2   7
ATOM      4  C   UNL     1      46.421   2.786   7.649  0.00  0.00    +0.000 A 
ATOM      5  C   UNL     1      45.795   1.824   8.424  0.00  0.00    +0.000 A 
ATOM      6  N   UNL     1      44.877   2.135   9.379  0.00  0.00    +0.000 NA
ATOM      7  C   UNL     1      44.598   3.445   9.547  0.00  0.00    +0.000 A 
ATOM      8  C   UNL     1      45.233   4.403   8.741  0.00  0.00    +0.000 A 
ATOM      9  N   UNL     1      46.160   4.114   7.788  0.00  0.00    +0.000 NA
BRANCH   4  11
ATOM     10  N   UNL     1      47.345   3.030   5.424  0.00  0.00    +0.000 N 
ATOM     11  C   UNL     1      47.420   2.376   6.625  0.00  0.00    +0.000 C 
ATOM     12  O   UNL     1      48.260   1.511   6.837  0.00  0.00    +0.000 OA
ATOM     13  H   UNL     1      47.995   2.794   4.686  0.00  0.00    +0.000 HD
ATOM     14  H   UNL     1      46.639   3.743   5.278  0.00  0.00    +0.000 HD
ENDBRANCH   4  11
ENDBRANCH   2   7
ENDBRANCH   1   2
BRANCH   1  15
ATOM     15  C   UNL     1      43.748   4.211  12.921  0.00  0.00    +0.000 C 
BRANCH  15  16
ATOM     16  C   UNL     1      45.040   4.977  13.002  0.00  0.00    +0.000 A 
ATOM     17  C   UNL     1      46.207   4.377  13.450  0.00  0.00    +0.000 A 
ATOM     18  N   UNL     1      47.392   5.014  13.539  0.00  0.00    +0.000 NA
ATOM     19  C   UNL     1      47.413   6.319  13.168  0.00  0.00    +0.000 A 
ATOM     20  C   UNL     1      46.310   7.049  12.719  0.00  0.00    +0.000 A 
ATOM     21  C   UNL     1      45.105   6.331  12.647  0.00  0.00    +0.000 A 
BRANCH  20  22
ATOM     22  C   UNL     1      46.398   8.481  12.357  0.00  0.00    +0.000 A 
ATOM     23  C   UNL     1      47.640   9.117  12.171  0.00  0.00    +0.000 A 
ATOM     24  C   UNL     1      47.725  10.462  11.795  0.00  0.00    +0.000 A 
ATOM     25  C   UNL     1      46.567  11.209  11.611  0.00  0.00    +0.000 A 
ATOM     26  C   UNL     1      45.326  10.612  11.804  0.00  0.00    +0.000 A 
ATOM     27  C   UNL     1      45.243   9.264  12.169  0.00  0.00    +0.000 A 
ENDBRANCH  20  22
ENDBRANCH  15  16
ENDBRANCH   1  15
TORSDOF 6
ENDMDL
MODEL 4
REMARK VINA RESULT:    -7.691      2.483      2.919
REMARK INTER + INTRA:         -11.252
REMARK INTER:                 -10.553
REMARK INTRA:                  -0.699
REMARK UNBOUND:                -0.863
REMARK  Name = 
REMARK  6 active torsions:
REMARK  status: ('A' for Active; 'I' for Inactive)
REMARK    1  A    between atoms: C_2  and  C_4
REMARK    2  A    between atoms: C_7  and  N_8
REMARK    3  A    between atoms: N_8  and  C_9
REMARK    4  A    between atoms: C_9  and  C_10
REMARK    5  A    between atoms: C_10  and  C_11
REMARK    6  A    between atoms: C_15  and  C_16
REMARK                            x       y       z     vdW  Elec       q    Type
REMARK                         _______ _______ _______ _____ _____    ______ ____
ROOT
ATOM      1  C   UNL     1      44.604   7.265  11.328  0.00  0.00    +0.000 C 
ENDROOT
BRANCH   1   2
ATOM      2  N   UNL     1      44.871   7.353  12.768  0.00  0.00    +0.000 N 
ATOM      3  H   UNL     1      44.459   6.579  13.283  0.00  0.00    +0.000 HD
BRANCH   2   7
ATOM      4  C   UNL     1      48.871   7.472  13.739  0.00  0.00    +0.000 A 
ATOM      5  C   UNL     1      48.068   8.587  13.914  0.00  0.00    +0.000 A 
ATOM      6  N   UNL     1      46.744   8.593  13.602  0.00  0.00    +0.000 NA
ATOM      7  C   UNL     1      46.235   7.446  13.102  0.00  0.00    +0.000 A 
ATOM      8  C   UNL     1      47.063   6.324  12.948  0.00  0.00    +0.000 A 
ATOM      9  N   UNL     1      48.390   6.299  13.244  0.00  0.00    +0.000 NA
BRANCH   4  11
ATOM     10  N   UNL     1      51.161   7.927  13.094  0.00  0.00    +0.000 N 
ATOM     11  C   UNL     1      50.314   7.536  14.097  0.00  0.00    +0.000 C 
ATOM     12  O   UNL     1      50.725   7.260  15.217  0.00  0.00    +0.000 OA
ATOM     13  H   UNL     1      52.153   7.987  13.274  0.00  0.00    +0.000 HD
ATOM     14  H   UNL     1      50.791   8.151  12.177  0.00  0.00    +0.000 HD
ENDBRANCH   4  11
ENDBRANCH   2   7
ENDBRANCH   1   2
BRANCH   1  15
ATOM     15  C   UNL     1      43.333   6.439  11.095  0.00  0.00    +0.000 C 
BRANCH  15  16
ATOM     16  C   UNL     1      43.624   4.989  10.820  0.00  0.00    +0.000 A 
ATOM     17  C   UNL     1      43.087   3.982  11.609  0.00  0.00    +0.000 A 
ATOM     18  N   UNL     1      43.311   2.669  11.406  0.00  0.00    +0.000 NA
ATOM     19  C   UNL     1      44.119   2.341  10.365  0.00  0.00    +0.000 A 
ATOM     20  C   UNL     1      44.741   3.252   9.507  0.00  0.00    +0.000 A 
ATOM     21  C   UNL     1      44.468   4.605   9.769  0.00  0.00    +0.000 A 
BRANCH  20  22
ATOM     22  C   UNL     1      45.635   2.826   8.408  0.00  0.00    +0.000 A 
ATOM     23  C   UNL     1      46.130   1.510   8.332  0.00  0.00    +0.000 A 
ATOM     24  C   UNL     1      46.948   1.095   7.275  0.00  0.00    +0.000 A 
ATOM     25  C   UNL     1      47.303   1.993   6.274  0.00  0.00    +0.000 A 
ATOM     26  C   UNL     1      46.842   3.304   6.331  0.00  0.00    +0.000 A 
ATOM     27  C   UNL     1      46.015   3.713   7.383  0.00  0.00    +0.000 A 
ENDBRANCH  20  22
ENDBRANCH  15  16
ENDBRANCH   1  15
TORSDOF 6
ENDMDL
MODEL 5
REMARK VINA RESULT:    -7.689      1.796      2.555
REMARK INTER + INTRA:         -11.250
REMARK INTER:                 -10.612
REMARK INTRA:                  -0.637
REMARK UNBOUND:                -0.863
REMARK  Name = 
REMARK  6 active torsions:
REMARK  status: ('A' for Active; 'I' for Inactive)
REMARK    1  A    between atoms: C_2  and  C_4
REMARK    2  A    between atoms: C_7  and  N_8
REMARK    3  A    between atoms: N_8  and  C_9
REMARK    4  A    between atoms: C_9  and  C_10
REMARK    5  A    between atoms: C_10  and  C_11
REMARK    6  A    between atoms: C_15  and  C_16
REMARK                            x       y       z     vdW  Elec       q    Type
REMARK                         _______ _______ _______ _____ _____    ______ ____
ROOT
ATOM      1  C   UNL     1      46.714   5.121  13.535  0.00  0.00    +0.000 C 
ENDROOT
BRANCH   1   2
ATOM      2  N   UNL     1      46.764   3.898  14.345  0.00  0.00    +0.000 N 
ATOM      3  H   UNL     1      47.289   3.157  13.888  0.00  0.00    +0.000 HD
BRANCH   2   7
ATOM      4  C   UNL     1      48.338   4.557  18.093  0.00  0.00    +0.000 A 
ATOM      5  C   UNL     1      47.686   3.371  17.799  0.00  0.00    +0.000 A 
ATOM      6  N   UNL     1      47.147   3.114  16.576  0.00  0.00    +0.000 NA
ATOM      7  C   UNL     1      47.274   4.082  15.643  0.00  0.00    +0.000 A 
ATOM      8  C   UNL     1      47.952   5.270  15.958  0.00  0.00    +0.000 A 
ATOM      9  N   UNL     1      48.490   5.551  17.175  0.00  0.00    +0.000 NA
BRANCH   4  11
ATOM     10  N   UNL     1      48.563   3.839  20.395  0.00  0.00    +0.000 N 
ATOM     11  C   UNL     1      48.901   4.774  19.453  0.00  0.00    +0.000 C 
ATOM     12  O   UNL     1      49.622   5.727  19.720  0.00  0.00    +0.000 OA
ATOM     13  H   UNL     1      48.911   3.933  21.339  0.00  0.00    +0.000 HD
ATOM     14  H   UNL     1      47.964   3.061  20.145  0.00  0.00    +0.000 HD
ENDBRANCH   4  11
ENDBRANCH   2   7
ENDBRANCH   1   2
BRANCH   1  15
ATOM     15  C   UNL     1      45.269   5.373  13.083  0.00  0.00    +0.000 C 
BRANCH  15  16
ATOM     16  C   UNL     1      44.773   4.332  12.117  0.00  0.00    +0.000 A 
ATOM     17  C   UNL     1      43.652   3.564  12.395  0.00  0.00    +0.000 A 
ATOM     18  N   UNL     1      43.162   2.622  11.565  0.00  0.00    +0.000 NA
ATOM     19  C   UNL     1      43.829   2.431  10.398  0.00  0.00    +0.000 A 
ATOM     20  C   UNL     1      44.979   3.117  10.003  0.00  0.00    +0.000 A 
ATOM     21  C   UNL     1      45.440   4.087  10.909  0.00  0.00    +0.000 A 
BRANCH  20  22
ATOM     22  C   UNL     1      45.673   2.837   8.726  0.00  0.00    +0.000 A 
ATOM     23  C   UNL     1      45.924   3.857   7.788  0.00  0.00    +0.000 A 
ATOM     24  C   UNL     1      46.610   3.602   6.596  0.00  0.00    +0.000 A 
ATOM     25  C   UNL     1      47.051   2.315   6.306  0.00  0.00    +0.000 A 
ATOM     26  C   UNL     1      46.803   1.284   7.207  0.00  0.00    +0.000 A 
ATOM     27  C   UNL     1      46.126   1.544   8.403  0.00  0.00    +0.000 A 
ENDBRANCH  20  22
ENDBRANCH  15  16
ENDBRANCH   1  15
TORSDOF 6
ENDMDL
MODEL 6
REMARK VINA RESULT:    -7.510      3.409      7.714
REMARK INTER + INTRA:         -11.007
REMARK INTER:                 -10.380
REMARK INTRA:                  -0.628
REMARK UNBOUND:                -0.863
REMARK  Name = 
REMARK  6 active torsions:
REMARK  status: ('A' for Active; 'I' for Inactive)
REMARK    1  A    between atoms: C_2  and  C_4
REMARK    2  A    between atoms: C_7  and  N_8
REMARK    3  A    between atoms: N_8  and  C_9
REMARK    4  A    between atoms: C_9  and  C_10
REMARK    5  A    between atoms: C_10  and  C_11
REMARK    6  A    between atoms: C_15  and  C_16
REMARK                            x       y       z     vdW  Elec       q    Type
REMARK                         _______ _______ _______ _____ _____    ______ ____
ROOT
ATOM      1  C   UNL     1      44.229   5.055  11.117  0.00  0.00    +0.000 C 
ENDROOT
BRANCH   1   2
ATOM      2  N   UNL     1      43.933   4.938   9.685  0.00  0.00    +0.000 N 
ATOM      3  H   UNL     1      43.906   5.843   9.223  0.00  0.00    +0.000 HD
BRANCH   2   7
ATOM      4  C   UNL     1      46.466   2.354   7.718  0.00  0.00    +0.000 A 
ATOM      5  C   UNL     1      46.470   3.708   7.425  0.00  0.00    +0.000 A 
ATOM      6  N   UNL     1      45.648   4.595   8.047  0.00  0.00    +0.000 NA
ATOM      7  C   UNL     1      44.808   4.093   8.977  0.00  0.00    +0.000 A 
ATOM      8  C   UNL     1      44.830   2.720   9.269  0.00  0.00    +0.000 A 
ATOM      9  N   UNL     1      45.637   1.815   8.653  0.00  0.00    +0.000 NA
BRANCH   4  11
ATOM     10  N   UNL     1      48.532   2.009   6.504  0.00  0.00    +0.000 N 
ATOM     11  C   UNL     1      47.389   1.438   6.996  0.00  0.00    +0.000 C 
ATOM     12  O   UNL     1      47.149   0.246   6.850  0.00  0.00    +0.000 OA
ATOM     13  H   UNL     1      49.199   1.438   6.001  0.00  0.00    +0.000 HD
ATOM     14  H   UNL     1      48.705   2.998   6.641  0.00  0.00    +0.000 HD
ENDBRANCH   4  11
ENDBRANCH   2   7
ENDBRANCH   1   2
BRANCH   1  15
ATOM     15  C   UNL     1      45.531   5.845  11.305  0.00  0.00    +0.000 C 
BRANCH  15  16
ATOM     16  C   UNL     1      46.213   5.538  12.609  0.00  0.00    +0.000 A 
ATOM     17  C   UNL     1      45.878   4.416  13.353  0.00  0.00    +0.000 A 
ATOM     18  N   UNL     1      46.460   4.090  14.524  0.00  0.00    +0.000 NA
ATOM     19  C   UNL     1      47.421   4.931  14.983  0.00  0.00    +0.000 A 
ATOM     20  C   UNL     1      47.840   6.103  14.348  0.00  0.00    +0.000 A 
ATOM     21  C   UNL     1      47.198   6.388  13.131  0.00  0.00    +0.000 A 
BRANCH  20  22
ATOM     22  C   UNL     1      48.876   6.991  14.920  0.00  0.00    +0.000 A 
ATOM     23  C   UNL     1      48.875   7.337  16.285  0.00  0.00    +0.000 A 
ATOM     24  C   UNL     1      49.872   8.149  16.835  0.00  0.00    +0.000 A 
ATOM     25  C   UNL     1      50.890   8.648  16.028  0.00  0.00    +0.000 A 
ATOM     26  C   UNL     1      50.908   8.336  14.673  0.00  0.00    +0.000 A 
ATOM     27  C   UNL     1      49.915   7.515  14.128  0.00  0.00    +0.000 A 
ENDBRANCH  20  22
ENDBRANCH  15  16
ENDBRANCH   1  15
TORSDOF 6
ENDMDL
MODEL 7
REMARK VINA RESULT:    -7.356      2.880      7.642
REMARK INTER + INTRA:         -10.800
REMARK INTER:                 -10.910
REMARK INTRA:                   0.110
REMARK UNBOUND:                -0.863
REMARK  Name = 
REMARK  6 active torsions:
REMARK  status: ('A' for Active; 'I' for Inactive)
REMARK    1  A    between atoms: C_2  and  C_4
REMARK    2  A    between atoms: C_7  and  N_8
REMARK    3  A    between atoms: N_8  and  C_9
REMARK    4  A    between atoms: C_9  and  C_10
REMARK    5  A    between atoms: C_10  and  C_11
REMARK    6  A    between atoms: C_15  and  C_16
REMARK                            x       y       z     vdW  Elec       q    Type
REMARK                         _______ _______ _______ _____ _____    ______ ____
ROOT
ATOM      1  C   UNL     1      43.822   4.894  11.220  0.00  0.00    +0.000 C 
ENDROOT
BRANCH   1   2
ATOM      2  N   UNL     1      43.692   4.885   9.759  0.00  0.00    +0.000 N 
ATOM      3  H   UNL     1      43.787   5.815   9.359  0.00  0.00    +0.000 HD
BRANCH   2   7
ATOM      4  C   UNL     1      46.252   2.228   7.929  0.00  0.00    +0.000 A 
ATOM      5  C   UNL     1      46.381   3.591   7.720  0.00  0.00    +0.000 A 
ATOM      6  N   UNL     1      45.554   4.503   8.300  0.00  0.00    +0.000 NA
ATOM      7  C   UNL     1      44.583   4.016   9.101  0.00  0.00    +0.000 A 
ATOM      8  C   UNL     1      44.480   2.632   9.311  0.00  0.00    +0.000 A 
ATOM      9  N   UNL     1      45.289   1.704   8.734  0.00  0.00    +0.000 NA
BRANCH   4  11
ATOM     10  N   UNL     1      48.288   1.852   6.672  0.00  0.00    +0.000 N 
ATOM     11  C   UNL     1      47.188   1.285   7.259  0.00  0.00    +0.000 C 
ATOM     12  O   UNL     1      46.993   0.077   7.232  0.00  0.00    +0.000 OA
ATOM     13  H   UNL     1      48.960   1.264   6.198  0.00  0.00    +0.000 HD
ATOM     14  H   UNL     1      48.423   2.856   6.712  0.00  0.00    +0.000 HD
ENDBRANCH   4  11
ENDBRANCH   2   7
ENDBRANCH   1   2
BRANCH   1  15
ATOM     15  C   UNL     1      45.077   4.110  11.625  0.00  0.00    +0.000 C 
BRANCH  15  16
ATOM     16  C   UNL     1      46.014   4.916  12.482  0.00  0.00    +0.000 A 
ATOM     17  C   UNL     1      46.533   6.126  12.044  0.00  0.00    +0.000 A 
ATOM     18  N   UNL     1      47.372   6.890  12.771  0.00  0.00    +0.000 NA
ATOM     19  C   UNL     1      47.717   6.422  13.997  0.00  0.00    +0.000 A 
ATOM     20  C   UNL     1      47.285   5.215  14.551  0.00  0.00    +0.000 A 
ATOM     21  C   UNL     1      46.413   4.463  13.747  0.00  0.00    +0.000 A 
BRANCH  20  22
ATOM     22  C   UNL     1      47.725   4.750  15.885  0.00  0.00    +0.000 A 
ATOM     23  C   UNL     1      47.375   3.476  16.371  0.00  0.00    +0.000 A 
ATOM     24  C   UNL     1      47.818   3.021  17.618  0.00  0.00    +0.000 A 
ATOM     25  C   UNL     1      48.610   3.837  18.417  0.00  0.00    +0.000 A 
ATOM     26  C   UNL     1      48.958   5.108  17.971  0.00  0.00    +0.000 A 
ATOM     27  C   UNL     1      48.524   5.556  16.719  0.00  0.00    +0.000 A 
ENDBRANCH  20  22
ENDBRANCH  15  16
ENDBRANCH   1  15
TORSDOF 6
ENDMDL
MODEL 8
REMARK VINA RESULT:    -7.305      3.525      7.050
REMARK INTER + INTRA:         -10.730
REMARK INTER:                 -10.071
REMARK INTRA:                  -0.659
REMARK UNBOUND:                -0.863
REMARK  Name = 
REMARK  6 active torsions:
REMARK  status: ('A' for Active; 'I' for Inactive)
REMARK    1  A    between atoms: C_2  and  C_4
REMARK    2  A    between atoms: C_7  and  N_8
REMARK    3  A    between atoms: N_8  and  C_9
REMARK    4  A    between atoms: C_9  and  C_10
REMARK    5  A    between atoms: C_10  and  C_11
REMARK    6  A    between atoms: C_15  and  C_16
REMARK                            x       y       z     vdW  Elec       q    Type
REMARK                         _______ _______ _______ _____ _____    ______ ____
ROOT
ATOM      1  C   UNL     1      44.029   3.109  11.815  0.00  0.00    +0.000 C 
ENDROOT
BRANCH   1   2
ATOM      2  N   UNL     1      43.684   3.534  10.454  0.00  0.00    +0.000 N 
ATOM      3  H   UNL     1      43.482   4.529  10.402  0.00  0.00    +0.000 HD
BRANCH   2   7
ATOM      4  C   UNL     1      46.497   2.747   7.551  0.00  0.00    +0.000 A 
ATOM      5  C   UNL     1      45.947   1.719   8.299  0.00  0.00    +0.000 A 
ATOM      6  N   UNL     1      45.019   1.935   9.270  0.00  0.00    +0.000 NA
ATOM      7  C   UNL     1      44.651   3.217   9.482  0.00  0.00    +0.000 A 
ATOM      8  C   UNL     1      45.210   4.241   8.703  0.00  0.00    +0.000 A 
ATOM      9  N   UNL     1      46.146   4.049   7.734  0.00  0.00    +0.000 NA
BRANCH   4  11
ATOM     10  N   UNL     1      47.367   3.109   5.320  0.00  0.00    +0.000 N 
ATOM     11  C   UNL     1      47.512   2.441   6.507  0.00  0.00    +0.000 C 
ATOM     12  O   UNL     1      48.424   1.645   6.692  0.00  0.00    +0.000 OA
ATOM     13  H   UNL     1      48.023   2.941   4.570  0.00  0.00    +0.000 HD
ATOM     14  H   UNL     1      46.603   3.763   5.196  0.00  0.00    +0.000 HD
ENDBRANCH   4  11
ENDBRANCH   2   7
ENDBRANCH   1   2
BRANCH   1  15
ATOM     15  C   UNL     1      43.700   4.238  12.800  0.00  0.00    +0.000 C 
BRANCH  15  16
ATOM     16  C   UNL     1      44.341   5.545  12.420  0.00  0.00    +0.000 A 
ATOM     17  C   UNL     1      43.640   6.517  11.723  0.00  0.00    +0.000 A 
ATOM     18  N   UNL     1      44.162   7.706  11.361  0.00  0.00    +0.000 NA
ATOM     19  C   UNL     1      45.455   7.935  11.707  0.00  0.00    +0.000 A 
ATOM     20  C   UNL     1      46.280   7.038  12.389  0.00  0.00    +0.000 A 
ATOM     21  C   UNL     1      45.678   5.817  12.740  0.00  0.00    +0.000 A 
BRANCH  20  22
ATOM     22  C   UNL     1      47.692   7.341  12.709  0.00  0.00    +0.000 A 
ATOM     23  C   UNL     1      48.201   7.180  14.012  0.00  0.00    +0.000 A 
ATOM     24  C   UNL     1      49.544   7.433  14.311  0.00  0.00    +0.000 A 
ATOM     25  C   UNL     1      50.409   7.870  13.314  0.00  0.00    +0.000 A 
ATOM     26  C   UNL     1      49.932   8.054  12.020  0.00  0.00    +0.000 A 
ATOM     27  C   UNL     1      48.591   7.789  11.723  0.00  0.00    +0.000 A 
ENDBRANCH  20  22
ENDBRANCH  15  16
ENDBRANCH   1  15
TORSDOF 6
ENDMDL
MODEL 9
REMARK VINA RESULT:    -7.257      1.818      2.336
REMARK INTER + INTRA:         -10.666
REMARK INTER:                 -10.164
REMARK INTRA:                  -0.501
REMARK UNBOUND:                -0.863
REMARK  Name = 
REMARK  6 active torsions:
REMARK  status: ('A' for Active; 'I' for Inactive)
REMARK    1  A    between atoms: C_2  and  C_4
REMARK    2  A    between atoms: C_7  and  N_8
REMARK    3  A    between atoms: N_8  and  C_9
REMARK    4  A    between atoms: C_9  and  C_10
REMARK    5  A    between atoms: C_10  and  C_11
REMARK    6  A    between atoms: C_15  and  C_16
REMARK                            x       y       z     vdW  Elec       q    Type
REMARK                         _______ _______ _______ _____ _____    ______ ____
ROOT
ATOM      1  C   UNL     1      46.522   4.402  14.001  0.00  0.00    +0.000 C 
ENDROOT
BRANCH   1   2
ATOM      2  N   UNL     1      46.679   4.594  15.447  0.00  0.00    +0.000 N 
ATOM      3  H   UNL     1      45.866   4.273  15.967  0.00  0.00    +0.000 HD
BRANCH   2   7
ATOM      4  C   UNL     1      49.991   2.706  17.005  0.00  0.00    +0.000 A 
ATOM      5  C   UNL     1      49.754   4.046  17.263  0.00  0.00    +0.000 A 
ATOM      6  N   UNL     1      48.676   4.710  16.765  0.00  0.00    +0.000 NA
ATOM      7  C   UNL     1      47.831   3.996  15.991  0.00  0.00    +0.000 A 
ATOM      8  C   UNL     1      48.081   2.636  15.754  0.00  0.00    +0.000 A 
ATOM      9  N   UNL     1      49.157   1.956  16.234  0.00  0.00    +0.000 NA
BRANCH   4  11
ATOM     10  N   UNL     1      51.953   2.810  18.421  0.00  0.00    +0.000 N 
ATOM     11  C   UNL     1      51.193   2.043  17.578  0.00  0.00    +0.000 C 
ATOM     12  O   UNL     1      51.490   0.884  17.318  0.00  0.00    +0.000 OA
ATOM     13  H   UNL     1      52.784   2.417  18.840  0.00  0.00    +0.000 HD
ATOM     14  H   UNL     1      51.682   3.767  18.619  0.00  0.00    +0.000 HD
ENDBRANCH   4  11
ENDBRANCH   2   7
ENDBRANCH   1   2
BRANCH   1  15
ATOM     15  C   UNL     1      45.724   5.575  13.415  0.00  0.00    +0.000 C 
BRANCH  15  16
ATOM     16  C   UNL     1      45.006   5.211  12.145  0.00  0.00    +0.000 A 
ATOM     17  C   UNL     1      43.677   5.552  11.944  0.00  0.00    +0.000 A 
ATOM     18  N   UNL     1      42.987   5.256  10.824  0.00  0.00    +0.000 NA
ATOM     19  C   UNL     1      43.656   4.579   9.856  0.00  0.00    +0.000 A 
ATOM     20  C   UNL     1      44.985   4.158   9.936  0.00  0.00    +0.000 A 
ATOM     21  C   UNL     1      45.651   4.497  11.126  0.00  0.00    +0.000 A 
BRANCH  20  22
ATOM     22  C   UNL     1      45.645   3.397   8.853  0.00  0.00    +0.000 A 
ATOM     23  C   UNL     1      45.738   1.993   8.893  0.00  0.00    +0.000 A 
ATOM     24  C   UNL     1      46.331   1.268   7.854  0.00  0.00    +0.000 A 
ATOM     25  C   UNL     1      46.860   1.933   6.752  0.00  0.00    +0.000 A 
ATOM     26  C   UNL     1      46.796   3.321   6.692  0.00  0.00    +0.000 A 
ATOM     27  C   UNL     1      46.192   4.042   7.728  0.00  0.00    +0.000 A 
ENDBRANCH  20  22
ENDBRANCH  15  16
ENDBRANCH   1  15
TORSDOF 6
ENDMDL
