MODEL 1
REMARK VINA RESULT:    -7.695      0.000      0.000
REMARK INTER + INTRA:         -11.268
REMARK INTER:                 -10.620
REMARK INTRA:                  -0.648
REMARK UNBOUND:                -0.648
REMARK  Name = 
REMARK  7 active torsions:
REMARK  status: ('A' for Active; 'I' for Inactive)
REMARK    1  A    between atoms: N_1  and  C_2
REMARK    2  A    between atoms: C_2  and  C_3
REMARK    3  A    between atoms: C_7  and  O_8
REMARK    4  A    between atoms: O_8  and  C_9
REMARK    5  A    between atoms: C_9  and  C_10
REMARK    6  A    between atoms: C_10  and  C_11
REMARK    7  A    between atoms: C_15  and  C_16
REMARK                            x       y       z     vdW  Elec       q    Type
REMARK                         _______ _______ _______ _____ _____    ______ ____
ROOT
ATOM      1  C   UNL     1      43.655   4.274  10.426  0.00  0.00    +0.000 C 
ENDROOT
BRANCH   1   2
ATOM      2  O   UNL     1      44.235   4.477   9.130  0.00  0.00    +0.000 OA
BRANCH   2   7
ATOM      3  C   UNL     1      46.671   2.695   7.050  0.00  0.00    +0.000 A 
ATOM      4  C   UNL     1      46.562   1.389   7.547  0.00  0.00    +0.000 A 
ATOM      5  C   UNL     1      45.661   1.091   8.563  0.00  0.00    +0.000 A 
ATOM      6  C   UNL     1      44.867   2.099   9.107  0.00  0.00    +0.000 A 
ATOM      7  C   UNL     1      44.967   3.415   8.645  0.00  0.00    +0.000 A 
ATOM      8  C   UNL     1      45.868   3.704   7.612  0.00  0.00    +0.000 A 
BRANCH   3   9
ATOM      9  C   UNL     1      47.659   2.990   5.948  0.00  0.00    +0.000 C 
BRANCH   9  10
ATOM     10  N   UNL     1      48.524   1.845   5.684  0.00  0.00    +0.000 NA
ATOM     11  H   UNL     1      48.782   1.837   4.700  0.00  0.00    +0.000 HD
ATOM     12  H   UNL     1      47.997   0.990   5.854  0.00  0.00    +0.000 HD
ENDBRANCH   9  10
ENDBRANCH   3   9
ENDBRANCH   2   7
ENDBRANCH   1   2
BRANCH   1  13
ATOM     13  C   UNL     1      43.695   5.556  11.256  0.00  0.00    +0.000 C 
BRANCH  13  14
ATOM     14  C   UNL     1      45.048   5.732  11.912  0.00  0.00    +0.000 A 
ATOM     15  C   UNL     1      45.970   6.654  11.396  0.00  0.00    +0.000 A 
ATOM     16  C   UNL     1      47.244   6.778  11.954  0.00  0.00    +0.000 A 
ATOM     17  C   UNL     1      47.610   5.985  13.040  0.00  0.00    +0.000 A 
ATOM     18  C   UNL     1      46.701   5.068  13.578  0.00  0.00    +0.000 A 
ATOM     19  C   UNL     1      45.427   4.931  13.003  0.00  0.00    +0.000 A 
BRANCH  18  20
ATOM     20  C   UNL     1      47.140   4.255  14.744  0.00  0.00    +0.000 C 
ATOM     21  N   UNL     1      47.193   4.876  15.961  0.00  0.00    +0.000 N 
ATOM     22  O   UNL     1      47.488   3.088  14.621  0.00  0.00    +0.000 OA
ATOM     23  H   UNL     1      47.169   5.883  16.054  0.00  0.00    +0.000 HD
ATOM     24  H   UNL     1      47.631   4.350  16.705  0.00  0.00    +0.000 HD
ENDBRANCH  18  20
ENDBRANCH  13  14
ENDBRANCH   1  13
TORSDOF 7
ENDMDL
MODEL 2
REMARK VINA RESULT:    -7.596      2.339      6.418
REMARK INTER + INTRA:         -11.130
REMARK INTER:                 -10.202
REMARK INTRA:                  -0.928
REMARK UNBOUND:                -0.648
REMARK  Name = 
REMARK  7 active torsions:
REMARK  status: ('A' for Active; 'I' for Inactive)
REMARK    1  A    between atoms: N_1  and  C_2
REMARK    2  A    between atoms: C_2  and  C_3
REMARK    3  A    between atoms: C_7  and  O_8
REMARK    4  A    between atoms: O_8  and  C_9
REMARK    5  A    between atoms: C_9  and  C_10
REMARK    6  A    between atoms: C_10  and  C_11
REMARK    7  A    between atoms: C_15  and  C_16
REMARK                            x       y       z     vdW  Elec       q    Type
REMARK                         _______ _______ _______ _____ _____    ______ ____
ROOT
ATOM      1  C   UNL     1      43.123   4.122  11.318  0.00  0.00    +0.000 C 
ENDROOT
BRANCH   1   2
ATOM      2  O   UNL     1      43.465   4.396  12.684  0.00  0.00    +0.000 OA
BRANCH   2   7
ATOM      3  C   UNL     1      45.830   7.196  12.627  0.00  0.00    +0.000 A 
ATOM      4  C   UNL     1      46.977   6.606  13.177  0.00  0.00    +0.000 A 
ATOM      5  C   UNL     1      46.974   5.267  13.550  0.00  0.00    +0.000 A 
ATOM      6  C   UNL     1      45.819   4.502  13.392  0.00  0.00    +0.000 A 
ATOM      7  C   UNL     1      44.655   5.068  12.863  0.00  0.00    +0.000 A 
ATOM      8  C   UNL     1      44.669   6.415  12.478  0.00  0.00    +0.000 A 
BRANCH   3   9
ATOM      9  C   UNL     1      45.860   8.652  12.232  0.00  0.00    +0.000 C 
BRANCH   9  10
ATOM     10  N   UNL     1      44.771   9.398  12.856  0.00  0.00    +0.000 NA
ATOM     11  H   UNL     1      45.009  10.387  12.879  0.00  0.00    +0.000 HD
ATOM     12  H   UNL     1      44.683   9.098  13.826  0.00  0.00    +0.000 HD
ENDBRANCH   9  10
ENDBRANCH   3   9
ENDBRANCH   2   7
ENDBRANCH   1   2
BRANCH   1  13
ATOM     13  C   UNL     1      43.744   2.807  10.846  0.00  0.00    +0.000 C 
BRANCH  13  14
ATOM     14  C   UNL     1      44.732   3.050   9.725  0.00  0.00    +0.000 A 
ATOM     15  C   UNL     1      44.943   4.348   9.238  0.00  0.00    +0.000 A 
ATOM     16  C   UNL     1      45.803   4.576   8.161  0.00  0.00    +0.000 A 
ATOM     17  C   UNL     1      46.468   3.508   7.562  0.00  0.00    +0.000 A 
ATOM     18  C   UNL     1      46.281   2.207   8.041  0.00  0.00    +0.000 A 
ATOM     19  C   UNL     1      45.400   1.978   9.110  0.00  0.00    +0.000 A 
BRANCH  18  20
ATOM     20  C   UNL     1      47.024   1.106   7.371  0.00  0.00    +0.000 C 
ATOM     21  N   UNL     1      46.655  -0.175   7.671  0.00  0.00    +0.000 N 
ATOM     22  O   UNL     1      47.962   1.328   6.617  0.00  0.00    +0.000 OA
ATOM     23  H   UNL     1      46.078  -0.398   8.470  0.00  0.00    +0.000 HD
ATOM     24  H   UNL     1      47.265  -0.902   7.320  0.00  0.00    +0.000 HD
ENDBRANCH  18  20
ENDBRANCH  13  14
ENDBRANCH   1  13
TORSDOF 7
ENDMDL
MODEL 3
REMARK VINA RESULT:    -7.546      2.306      2.958
REMARK INTER + INTRA:         -11.062
REMARK INTER:                 -10.195
REMARK INTRA:                  -0.867
REMARK UNBOUND:                -0.648
REMARK  Name = 
REMARK  7 active torsions:
REMARK  status: ('A' for Active; 'I' for Inactive)
REMARK    1  A    between atoms: N_1  and  C_2
REMARK    2  A    between atoms: C_2  and  C_3
REMARK    3  A    between atoms: C_7  and  O_8
REMARK    4  A    between atoms: O_8  and  C_9
REMARK    5  A    between atoms: C_9  and  C_10
REMARK    6  A    between atoms: C_10  and  C_11
REMARK    7  A    between atoms: C_15  and  C_16
REMARK                            x       y       z     vdW  Elec       q    Type
REMARK                         _______ _______ _______ _____ _____    ______ ____
ROOT
ATOM      1  C   UNL     1      43.337   3.396  11.108  0.00  0.00    +0.000 C 
ENDROOT
BRANCH   1   2
ATOM      2  O   UNL     1      43.924   2.377  10.287  0.00  0.00    +0.000 OA
BRANCH   2   7
ATOM      3  C   UNL     1      46.506   2.207   7.691  0.00  0.00    +0.000 A 
ATOM      4  C   UNL     1      46.679   3.562   7.378  0.00  0.00    +0.000 A 
ATOM      5  C   UNL     1      45.952   4.541   8.045  0.00  0.00    +0.000 A 
ATOM      6  C   UNL     1      45.029   4.177   9.025  0.00  0.00    +0.000 A 
ATOM      7  C   UNL     1      44.821   2.832   9.346  0.00  0.00    +0.000 A 
ATOM      8  C   UNL     1      45.568   1.852   8.678  0.00  0.00    +0.000 A 
BRANCH   3   9
ATOM      9  C   UNL     1      47.307   1.164   6.949  0.00  0.00    +0.000 C 
BRANCH   9  10
ATOM     10  N   UNL     1      48.454   1.756   6.269  0.00  0.00    +0.000 NA
ATOM     11  H   UNL     1      48.853   1.075   5.626  0.00  0.00    +0.000 HD
ATOM     12  H   UNL     1      49.174   1.961   6.959  0.00  0.00    +0.000 HD
ENDBRANCH   9  10
ENDBRANCH   3   9
ENDBRANCH   2   7
ENDBRANCH   1   2
BRANCH   1  13
ATOM     13  C   UNL     1      43.883   3.340  12.535  0.00  0.00    +0.000 C 
BRANCH  13  14
ATOM     14  C   UNL     1      44.938   4.405  12.749  0.00  0.00    +0.000 A 
ATOM     15  C   UNL     1      46.202   4.058  13.248  0.00  0.00    +0.000 A 
ATOM     16  C   UNL     1      47.160   5.040  13.510  0.00  0.00    +0.000 A 
ATOM     17  C   UNL     1      46.868   6.381  13.271  0.00  0.00    +0.000 A 
ATOM     18  C   UNL     1      45.618   6.747  12.762  0.00  0.00    +0.000 A 
ATOM     19  C   UNL     1      44.648   5.760  12.518  0.00  0.00    +0.000 A 
BRANCH  18  20
ATOM     20  C   UNL     1      45.363   8.192  12.514  0.00  0.00    +0.000 C 
ATOM     21  N   UNL     1      44.325   8.515  11.686  0.00  0.00    +0.000 N 
ATOM     22  O   UNL     1      46.078   9.063  12.991  0.00  0.00    +0.000 OA
ATOM     23  H   UNL     1      43.888   7.836  11.077  0.00  0.00    +0.000 HD
ATOM     24  H   UNL     1      44.263   9.489  11.417  0.00  0.00    +0.000 HD
ENDBRANCH  18  20
ENDBRANCH  13  14
ENDBRANCH   1  13
TORSDOF 7
ENDMDL
MODEL 4
REMARK VINA RESULT:    -7.315      1.604      2.126
REMARK INTER + INTRA:         -10.743
REMARK INTER:                  -9.910
REMARK INTRA:                  -0.833
REMARK UNBOUND:                -0.648
REMARK  Name = 
REMARK  7 active torsions:
REMARK  status: ('A' for Active; 'I' for Inactive)
REMARK    1  A    between atoms: N_1  and  C_2
REMARK    2  A    between atoms: C_2  and  C_3
REMARK    3  A    between atoms: C_7  and  O_8
REMARK    4  A    between atoms: O_8  and  C_9
REMARK    5  A    between atoms: C_9  and  C_10
REMARK    6  A    between atoms: C_10  and  C_11
REMARK    7  A    between atoms: C_15  and  C_16
REMARK                            x       y       z     vdW  Elec       q    Type
REMARK                         _______ _______ _______ _____ _____    ______ ____
ROOT
ATOM      1  C   UNL     1      44.015   3.101  11.874  0.00  0.00    +0.000 C 
ENDROOT
BRANCH   1   2
ATOM      2  O   UNL     1      43.598   2.802  10.535  0.00  0.00    +0.000 OA
BRANCH   2   7
ATOM      3  C   UNL     1      46.190   2.094   8.042  0.00  0.00    +0.000 A 
ATOM      4  C   UNL     1      46.466   3.377   7.551  0.00  0.00    +0.000 A 
ATOM      5  C   UNL     1      45.806   4.488   8.064  0.00  0.00    +0.000 A 
ATOM      6  C   UNL     1      44.848   4.328   9.064  0.00  0.00    +0.000 A 
ATOM      7  C   UNL     1      44.537   3.058   9.560  0.00  0.00    +0.000 A 
ATOM      8  C   UNL     1      45.217   1.946   9.047  0.00  0.00    +0.000 A 
BRANCH   3   9
ATOM      9  C   UNL     1      46.921   0.905   7.467  0.00  0.00    +0.000 C 
BRANCH   9  10
ATOM     10  N   UNL     1      48.075   1.319   6.674  0.00  0.00    +0.000 NA
ATOM     11  H   UNL     1      48.627   0.500   6.430  0.00  0.00    +0.000 HD
ATOM     12  H   UNL     1      48.672   1.911   7.249  0.00  0.00    +0.000 HD
ENDBRANCH   9  10
ENDBRANCH   3   9
ENDBRANCH   2   7
ENDBRANCH   1   2
BRANCH   1  13
ATOM     13  C   UNL     1      43.387   4.403  12.371  0.00  0.00    +0.000 C 
BRANCH  13  14
ATOM     14  C   UNL     1      44.414   5.516  12.411  0.00  0.00    +0.000 A 
ATOM     15  C   UNL     1      44.195   6.705  11.701  0.00  0.00    +0.000 A 
ATOM     16  C   UNL     1      45.163   7.712  11.679  0.00  0.00    +0.000 A 
ATOM     17  C   UNL     1      46.360   7.543  12.372  0.00  0.00    +0.000 A 
ATOM     18  C   UNL     1      46.593   6.369  13.096  0.00  0.00    +0.000 A 
ATOM     19  C   UNL     1      45.626   5.350  13.101  0.00  0.00    +0.000 A 
BRANCH  18  20
ATOM     20  C   UNL     1      47.883   6.247  13.827  0.00  0.00    +0.000 C 
ATOM     21  N   UNL     1      48.924   7.024  13.401  0.00  0.00    +0.000 N 
ATOM     22  O   UNL     1      48.031   5.450  14.743  0.00  0.00    +0.000 OA
ATOM     23  H   UNL     1      48.919   7.487  12.502  0.00  0.00    +0.000 HD
ATOM     24  H   UNL     1      49.824   6.818  13.813  0.00  0.00    +0.000 HD
ENDBRANCH  18  20
ENDBRANCH  13  14
ENDBRANCH   1  13
TORSDOF 7
ENDMDL
MODEL 5
REMARK VINA RESULT:    -7.272      2.155      6.369
REMARK INTER + INTRA:         -10.683
REMARK INTER:                  -9.847
REMARK INTRA:                  -0.836
REMARK UNBOUND:                -0.648
REMARK  Name = 
REMARK  7 active torsions:
REMARK  status: ('A' for Active; 'I' for Inactive)
REMARK    1  A    between atoms: N_1  and  C_2
REMARK    2  A    between atoms: C_2  and  C_3
REMARK    3  A    between atoms: C_7  and  O_8
REMARK    4  A    between atoms: O_8  and  C_9
REMARK    5  A    between atoms: C_9  and  C_10
REMARK    6  A    between atoms: C_10  and  C_11
REMARK    7  A    between atoms: C_15  and  C_16
REMARK                            x       y       z     vdW  Elec       q    Type
REMARK                         _______ _______ _______ _____ _____    ______ ____
ROOT
ATOM      1  C   UNL     1      44.495   3.322  12.158  0.00  0.00    +0.000 C 
ENDROOT
BRANCH   1   2
ATOM      2  O   UNL     1      43.906   4.535  12.645  0.00  0.00    +0.000 OA
BRANCH   2   7
ATOM      3  C   UNL     1      46.828   6.689  13.150  0.00  0.00    +0.000 A 
ATOM      4  C   UNL     1      46.471   7.826  12.413  0.00  0.00    +0.000 A 
ATOM      5  C   UNL     1      45.245   7.889  11.761  0.00  0.00    +0.000 A 
ATOM      6  C   UNL     1      44.365   6.809  11.825  0.00  0.00    +0.000 A 
ATOM      7  C   UNL     1      44.703   5.654  12.537  0.00  0.00    +0.000 A 
ATOM      8  C   UNL     1      45.935   5.604  13.202  0.00  0.00    +0.000 A 
BRANCH   3   9
ATOM      9  C   UNL     1      48.167   6.646  13.847  0.00  0.00    +0.000 C 
BRANCH   9  10
ATOM     10  N   UNL     1      49.263   6.510  12.892  0.00  0.00    +0.000 NA
ATOM     11  H   UNL     1      49.576   5.542  12.874  0.00  0.00    +0.000 HD
ATOM     12  H   UNL     1      50.052   7.066  13.219  0.00  0.00    +0.000 HD
ENDBRANCH   9  10
ENDBRANCH   3   9
ENDBRANCH   2   7
ENDBRANCH   1   2
BRANCH   1  13
ATOM     13  C   UNL     1      43.854   2.886  10.840  0.00  0.00    +0.000 C 
BRANCH  13  14
ATOM     14  C   UNL     1      44.814   3.082   9.685  0.00  0.00    +0.000 A 
ATOM     15  C   UNL     1      45.021   4.360   9.146  0.00  0.00    +0.000 A 
ATOM     16  C   UNL     1      45.854   4.542   8.040  0.00  0.00    +0.000 A 
ATOM     17  C   UNL     1      46.496   3.449   7.463  0.00  0.00    +0.000 A 
ATOM     18  C   UNL     1      46.313   2.167   7.993  0.00  0.00    +0.000 A 
ATOM     19  C   UNL     1      45.458   1.983   9.092  0.00  0.00    +0.000 A 
BRANCH  18  20
ATOM     20  C   UNL     1      47.031   1.037   7.344  0.00  0.00    +0.000 C 
ATOM     21  N   UNL     1      46.626  -0.230   7.660  0.00  0.00    +0.000 N 
ATOM     22  O   UNL     1      47.978   1.223   6.592  0.00  0.00    +0.000 OA
ATOM     23  H   UNL     1      46.038  -0.425   8.459  0.00  0.00    +0.000 HD
ATOM     24  H   UNL     1      47.219  -0.978   7.324  0.00  0.00    +0.000 HD
ENDBRANCH  18  20
ENDBRANCH  13  14
ENDBRANCH   1  13
TORSDOF 7
ENDMDL
MODEL 6
REMARK VINA RESULT:    -7.038      1.579      1.992
REMARK INTER + INTRA:         -10.361
REMARK INTER:                  -9.713
REMARK INTRA:                  -0.648
REMARK UNBOUND:                -0.648
REMARK  Name = 
REMARK  7 active torsions:
REMARK  status: ('A' for Active; 'I' for Inactive)
REMARK    1  A    between atoms: N_1  and  C_2
REMARK    2  A    between atoms: C_2  and  C_3
REMARK    3  A    between atoms: C_7  and  O_8
REMARK    4  A    between atoms: O_8  and  C_9
REMARK    5  A    between atoms: C_9  and  C_10
REMARK    6  A    between atoms: C_10  and  C_11
REMARK    7  A    between atoms: C_15  and  C_16
REMARK                            x       y       z     vdW  Elec       q    Type
REMARK                         _______ _______ _______ _____ _____    ______ ____
ROOT
ATOM      1  C   UNL     1      43.675   4.167  10.296  0.00  0.00    +0.000 C 
ENDROOT
BRANCH   1   2
ATOM      2  O   UNL     1      44.192   4.352   8.971  0.00  0.00    +0.000 OA
BRANCH   2   7
ATOM      3  C   UNL     1      46.560   2.597   6.792  0.00  0.00    +0.000 A 
ATOM      4  C   UNL     1      46.618   1.335   7.399  0.00  0.00    +0.000 A 
ATOM      5  C   UNL     1      45.851   1.055   8.524  0.00  0.00    +0.000 A 
ATOM      6  C   UNL     1      45.028   2.040   9.068  0.00  0.00    +0.000 A 
ATOM      7  C   UNL     1      44.964   3.314   8.496  0.00  0.00    +0.000 A 
ATOM      8  C   UNL     1      45.730   3.584   7.355  0.00  0.00    +0.000 A 
BRANCH   3   9
ATOM      9  C   UNL     1      47.405   2.875   5.572  0.00  0.00    +0.000 C 
BRANCH   9  10
ATOM     10  N   UNL     1      48.493   1.911   5.444  0.00  0.00    +0.000 NA
ATOM     11  H   UNL     1      48.971   2.058   4.558  0.00  0.00    +0.000 HD
ATOM     12  H   UNL     1      48.097   0.973   5.409  0.00  0.00    +0.000 HD
ENDBRANCH   9  10
ENDBRANCH   3   9
ENDBRANCH   2   7
ENDBRANCH   1   2
BRANCH   1  13
ATOM     13  C   UNL     1      43.828   5.438  11.131  0.00  0.00    +0.000 C 
BRANCH  13  14
ATOM     14  C   UNL     1      45.038   5.344  12.037  0.00  0.00    +0.000 A 
ATOM     15  C   UNL     1      45.448   4.102  12.542  0.00  0.00    +0.000 A 
ATOM     16  C   UNL     1      46.523   4.012  13.429  0.00  0.00    +0.000 A 
ATOM     17  C   UNL     1      47.206   5.164  13.817  0.00  0.00    +0.000 A 
ATOM     18  C   UNL     1      46.821   6.411  13.314  0.00  0.00    +0.000 A 
ATOM     19  C   UNL     1      45.727   6.501  12.438  0.00  0.00    +0.000 A 
BRANCH  18  20
ATOM     20  C   UNL     1      47.591   7.606  13.753  0.00  0.00    +0.000 C 
ATOM     21  N   UNL     1      46.883   8.736  14.052  0.00  0.00    +0.000 N 
ATOM     22  O   UNL     1      48.814   7.601  13.801  0.00  0.00    +0.000 OA
ATOM     23  H   UNL     1      45.918   8.857  13.777  0.00  0.00    +0.000 HD
ATOM     24  H   UNL     1      47.432   9.571  14.205  0.00  0.00    +0.000 HD
ENDBRANCH  18  20
ENDBRANCH  13  14
ENDBRANCH   1  13
TORSDOF 7
ENDMDL
MODEL 7
REMARK VINA RESULT:    -6.687      1.641      6.799
REMARK INTER + INTRA:          -9.876
REMARK INTER:                  -9.225
REMARK INTRA:                  -0.651
REMARK UNBOUND:                -0.648
REMARK  Name = 
REMARK  7 active torsions:
REMARK  status: ('A' for Active; 'I' for Inactive)
REMARK    1  A    between atoms: N_1  and  C_2
REMARK    2  A    between atoms: C_2  and  C_3
REMARK    3  A    between atoms: C_7  and  O_8
REMARK    4  A    between atoms: O_8  and  C_9
REMARK    5  A    between atoms: C_9  and  C_10
REMARK    6  A    between atoms: C_10  and  C_11
REMARK    7  A    between atoms: C_15  and  C_16
REMARK                            x       y       z     vdW  Elec       q    Type
REMARK                         _______ _______ _______ _____ _____    ______ ____
ROOT
ATOM      1  C   UNL     1      43.431   4.449  10.573  0.00  0.00    +0.000 C 
ENDROOT
BRANCH   1   2
ATOM      2  O   UNL     1      43.322   5.614  11.402  0.00  0.00    +0.000 OA
BRANCH   2   7
ATOM      3  C   UNL     1      46.305   5.408  13.521  0.00  0.00    +0.000 A 
ATOM      4  C   UNL     1      46.906   6.652  13.283  0.00  0.00    +0.000 A 
ATOM      5  C   UNL     1      46.308   7.575  12.432  0.00  0.00    +0.000 A 
ATOM      6  C   UNL     1      45.109   7.259  11.794  0.00  0.00    +0.000 A 
ATOM      7  C   UNL     1      44.497   6.018  11.997  0.00  0.00    +0.000 A 
ATOM      8  C   UNL     1      45.099   5.100  12.867  0.00  0.00    +0.000 A 
BRANCH   3   9
ATOM      9  C   UNL     1      46.977   4.425  14.449  0.00  0.00    +0.000 C 
BRANCH   9  10
ATOM     10  N   UNL     1      47.692   5.105  15.523  0.00  0.00    +0.000 NA
ATOM     11  H   UNL     1      47.025   5.588  16.121  0.00  0.00    +0.000 HD
ATOM     12  H   UNL     1      48.290   5.823  15.116  0.00  0.00    +0.000 HD
ENDBRANCH   9  10
ENDBRANCH   3   9
ENDBRANCH   2   7
ENDBRANCH   1   2
BRANCH   1  13
ATOM     13  C   UNL     1      44.214   4.750   9.295  0.00  0.00    +0.000 C 
BRANCH  13  14
ATOM     14  C   UNL     1      44.885   3.499   8.767  0.00  0.00    +0.000 A 
ATOM     15  C   UNL     1      44.570   2.245   9.310  0.00  0.00    +0.000 A 
ATOM     16  C   UNL     1      45.228   1.093   8.875  0.00  0.00    +0.000 A 
ATOM     17  C   UNL     1      46.206   1.180   7.886  0.00  0.00    +0.000 A 
ATOM     18  C   UNL     1      46.525   2.420   7.322  0.00  0.00    +0.000 A 
ATOM     19  C   UNL     1      45.876   3.580   7.775  0.00  0.00    +0.000 A 
BRANCH  18  20
ATOM     20  C   UNL     1      47.569   2.454   6.261  0.00  0.00    +0.000 C 
ATOM     21  N   UNL     1      47.354   3.279   5.193  0.00  0.00    +0.000 N 
ATOM     22  O   UNL     1      48.561   1.739   6.311  0.00  0.00    +0.000 OA
ATOM     23  H   UNL     1      46.446   3.675   4.991  0.00  0.00    +0.000 HD
ATOM     24  H   UNL     1      47.999   3.176   4.421  0.00  0.00    +0.000 HD
ENDBRANCH  18  20
ENDBRANCH  13  14
ENDBRANCH   1  13
TORSDOF 7
ENDMDL
MODEL 8
REMARK VINA RESULT:    -6.546      3.987      6.395
REMARK INTER + INTRA:          -9.681
REMARK INTER:                  -9.299
REMARK INTRA:                  -0.382
REMARK UNBOUND:                -0.648
REMARK  Name = 
REMARK  7 active torsions:
REMARK  status: ('A' for Active; 'I' for Inactive)
REMARK    1  A    between atoms: N_1  and  C_2
REMARK    2  A    between atoms: C_2  and  C_3
REMARK    3  A    between atoms: C_7  and  O_8
REMARK    4  A    between atoms: O_8  and  C_9
REMARK    5  A    between atoms: C_9  and  C_10
REMARK    6  A    between atoms: C_10  and  C_11
REMARK    7  A    between atoms: C_15  and  C_16
REMARK                            x       y       z     vdW  Elec       q    Type
REMARK                         _______ _______ _______ _____ _____    ______ ____
ROOT
ATOM      1  C   UNL     1      47.346   4.296  15.550  0.00  0.00    +0.000 C 
ENDROOT
BRANCH   1   2
ATOM      2  O   UNL     1      47.142   3.478  14.390  0.00  0.00    +0.000 OA
BRANCH   2   7
ATOM      3  C   UNL     1      44.899   3.873  11.519  0.00  0.00    +0.000 A 
ATOM      4  C   UNL     1      45.118   5.214  11.174  0.00  0.00    +0.000 A 
ATOM      5  C   UNL     1      46.030   5.987  11.882  0.00  0.00    +0.000 A 
ATOM      6  C   UNL     1      46.726   5.434  12.957  0.00  0.00    +0.000 A 
ATOM      7  C   UNL     1      46.514   4.105  13.336  0.00  0.00    +0.000 A 
ATOM      8  C   UNL     1      45.602   3.329  12.609  0.00  0.00    +0.000 A 
BRANCH   3   9
ATOM      9  C   UNL     1      43.900   3.058  10.734  0.00  0.00    +0.000 C 
BRANCH   9  10
ATOM     10  N   UNL     1      43.059   2.252  11.613  0.00  0.00    +0.000 NA
ATOM     11  H   UNL     1      42.101   2.268  11.270  0.00  0.00    +0.000 HD
ATOM     12  H   UNL     1      43.044   2.682  12.536  0.00  0.00    +0.000 HD
ENDBRANCH   9  10
ENDBRANCH   3   9
ENDBRANCH   2   7
ENDBRANCH   1   2
BRANCH   1  13
ATOM     13  C   UNL     1      47.647   3.444  16.782  0.00  0.00    +0.000 C 
BRANCH  13  14
ATOM     14  C   UNL     1      49.113   3.529  17.151  0.00  0.00    +0.000 A 
ATOM     15  C   UNL     1      49.719   4.777  17.358  0.00  0.00    +0.000 A 
ATOM     16  C   UNL     1      51.084   4.871  17.636  0.00  0.00    +0.000 A 
ATOM     17  C   UNL     1      51.861   3.716  17.715  0.00  0.00    +0.000 A 
ATOM     18  C   UNL     1      51.274   2.461  17.525  0.00  0.00    +0.000 A 
ATOM     19  C   UNL     1      49.904   2.370  17.226  0.00  0.00    +0.000 A 
BRANCH  18  20
ATOM     20  C   UNL     1      52.147   1.261  17.632  0.00  0.00    +0.000 C 
ATOM     21  N   UNL     1      51.599   0.131  18.174  0.00  0.00    +0.000 N 
ATOM     22  O   UNL     1      53.323   1.288  17.296  0.00  0.00    +0.000 OA
ATOM     23  H   UNL     1      50.733   0.147  18.694  0.00  0.00    +0.000 HD
ATOM     24  H   UNL     1      52.247  -0.620  18.371  0.00  0.00    +0.000 HD
ENDBRANCH  18  20
ENDBRANCH  13  14
ENDBRANCH   1  13
TORSDOF 7
ENDMDL
MODEL 9
REMARK VINA RESULT:    -6.359      2.510      6.832
REMARK INTER + INTRA:          -9.423
REMARK INTER:                  -8.824
REMARK INTRA:                  -0.599
REMARK UNBOUND:                -0.648
REMARK  Name = 
REMARK  7 active torsions:
REMARK  status: ('A' for Active; 'I' for Inactive)
REMARK    1  A    between atoms: N_1  and  C_2
REMARK    2  A    between atoms: C_2  and  C_3
REMARK    3  A    between atoms: C_7  and  O_8
REMARK    4  A    between atoms: O_8  and  C_9
REMARK    5  A    between atoms: C_9  and  C_10
REMARK    6  A    between atoms: C_10  and  C_11
REMARK    7  A    between atoms: C_15  and  C_16
REMARK                            x       y       z     vdW  Elec       q    Type
REMARK                         _______ _______ _______ _____ _____    ______ ____
ROOT
ATOM      1  C   UNL     1      44.876   5.249  11.172  0.00  0.00    +0.000 C 
ENDROOT
BRANCH   1   2
ATOM      2  O   UNL     1      46.073   5.454  11.935  0.00  0.00    +0.000 OA
BRANCH   2   7
ATOM      3  C   UNL     1      48.372   8.308  11.901  0.00  0.00    +0.000 A 
ATOM      4  C   UNL     1      47.502   9.373  12.173  0.00  0.00    +0.000 A 
ATOM      5  C   UNL     1      46.149   9.143  12.391  0.00  0.00    +0.000 A 
ATOM      6  C   UNL     1      45.643   7.845  12.323  0.00  0.00    +0.000 A 
ATOM      7  C   UNL     1      46.484   6.765  12.035  0.00  0.00    +0.000 A 
ATOM      8  C   UNL     1      47.849   7.004  11.830  0.00  0.00    +0.000 A 
BRANCH   3   9
ATOM      9  C   UNL     1      49.837   8.587  11.667  0.00  0.00    +0.000 C 
BRANCH   9  10
ATOM     10  N   UNL     1      50.592   7.353  11.474  0.00  0.00    +0.000 NA
ATOM     11  H   UNL     1      50.713   6.888  12.370  0.00  0.00    +0.000 HD
ATOM     12  H   UNL     1      51.525   7.590  11.140  0.00  0.00    +0.000 HD
ENDBRANCH   9  10
ENDBRANCH   3   9
ENDBRANCH   2   7
ENDBRANCH   1   2
BRANCH   1  13
ATOM     13  C   UNL     1      45.146   5.385   9.674  0.00  0.00    +0.000 C 
BRANCH  13  14
ATOM     14  C   UNL     1      45.395   4.029   9.046  0.00  0.00    +0.000 A 
ATOM     15  C   UNL     1      44.732   2.893   9.531  0.00  0.00    +0.000 A 
ATOM     16  C   UNL     1      45.003   1.629   9.003  0.00  0.00    +0.000 A 
ATOM     17  C   UNL     1      45.936   1.486   7.978  0.00  0.00    +0.000 A 
ATOM     18  C   UNL     1      46.598   2.609   7.471  0.00  0.00    +0.000 A 
ATOM     19  C   UNL     1      46.340   3.877   8.017  0.00  0.00    +0.000 A 
BRANCH  18  20
ATOM     20  C   UNL     1      47.576   2.401   6.369  0.00  0.00    +0.000 C 
ATOM     21  N   UNL     1      47.427   3.162   5.243  0.00  0.00    +0.000 N 
ATOM     22  O   UNL     1      48.454   1.551   6.438  0.00  0.00    +0.000 OA
ATOM     23  H   UNL     1      46.577   3.673   5.046  0.00  0.00    +0.000 HD
ATOM     24  H   UNL     1      48.007   2.903   4.457  0.00  0.00    +0.000 HD
ENDBRANCH  18  20
ENDBRANCH  13  14
ENDBRANCH   1  13
TORSDOF 7
ENDMDL
