MODEL 1
REMARK VINA RESULT:    -8.450      0.000      0.000
REMARK INTER + INTRA:         -12.759
REMARK INTER:                 -11.908
REMARK INTRA:                  -0.851
REMARK UNBOUND:                -0.851
REMARK  Name = 
REMARK  8 active torsions:
REMARK  status: ('A' for Active; 'I' for Inactive)
REMARK    1  A    between atoms: C_1  and  N_2
REMARK    2  A    between atoms: N_2  and  C_3
REMARK    3  A    between atoms: N_2  and  C_24
REMARK    4  A    between atoms: C_3  and  C_4
REMARK    5  A    between atoms: C_7  and  C_8
REMARK    6  A    between atoms: C_8  and  N_9
REMARK    7  A    between atoms: C_10  and  C_12
REMARK    8  A    between atoms: C_24  and  C_25
REMARK                            x       y       z     vdW  Elec       q    Type
REMARK                         _______ _______ _______ _____ _____    ______ ____
ROOT
ATOM      1  C   UNL     1      44.578   5.390  10.845  0.00  0.00    +0.000 A 
ATOM      2  C   UNL     1      44.165   5.792  12.126  0.00  0.00    +0.000 A 
ATOM      3  C   UNL     1      44.955   6.641  12.900  0.00  0.00    +0.000 A 
ATOM      4  C   UNL     1      46.190   7.089  12.420  0.00  0.00    +0.000 A 
ATOM      5  C   UNL     1      46.632   6.646  11.165  0.00  0.00    +0.000 A 
ATOM      6  C   UNL     1      45.826   5.820  10.378  0.00  0.00    +0.000 A 
ENDROOT
BRANCH   1   7
ATOM      7  C   UNL     1      43.670   4.536   9.980  0.00  0.00    +0.000 C 
BRANCH   7   9
ATOM      8  C   UNL     1      43.473   2.613  11.468  0.00  0.00    +0.000 C 
ATOM      9  N   UNL     1      43.872   3.078  10.136  0.00  0.00    +0.000 NA
BRANCH   9  10
ATOM     10  C   UNL     1      45.294   2.755   9.868  0.00  0.00    +0.000 C 
BRANCH  10  11
ATOM     11  C   UNL     1      45.632   2.379   8.406  0.00  0.00    +0.000 C 
ATOM     12  C   UNL     1      46.205   3.566   7.626  0.00  0.00    +0.000 C 
ATOM     13  C   UNL     1      46.581   3.142   6.210  0.00  0.00    +0.000 C 
ATOM     14  C   UNL     1      47.466   1.903   6.239  0.00  0.00    +0.000 C 
ATOM     15  C   UNL     1      46.840   0.812   7.098  0.00  0.00    +0.000 C 
ATOM     16  O   UNL     1      46.581   1.298   8.417  0.00  0.00    +0.000 OA
ENDBRANCH  10  11
ENDBRANCH   9  10
ENDBRANCH   7   9
ENDBRANCH   1   7
BRANCH   4  17
ATOM     17  C   UNL     1      47.047   8.003  13.253  0.00  0.00    +0.000 C 
BRANCH  17  18
ATOM     18  N   UNL     1      47.456   7.359  14.474  0.00  0.00    +0.000 N 
ATOM     19  C   UNL     1      48.706   6.811  14.594  0.00  0.00    +0.000 C 
ATOM     20  O   UNL     1      49.538   6.881  13.695  0.00  0.00    +0.000 OA
ATOM     21  H   UNL     1      46.725   7.107  15.132  0.00  0.00    +0.000 HD
BRANCH  19  22
ATOM     22  C   UNL     1      49.021   6.174  15.881  0.00  0.00    +0.000 A 
ATOM     23  C   UNL     1      50.057   6.681  16.655  0.00  0.00    +0.000 A 
ATOM     24  S   UNL     1      50.270   5.861  18.134  0.00  0.00    +0.000 S 
ATOM     25  C   UNL     1      49.015   4.771  17.772  0.00  0.00    +0.000 A 
ATOM     26  N   UNL     1      48.691   3.770  18.633  0.00  0.00    +0.000 NA
ATOM     27  C   UNL     1      47.739   3.002  18.220  0.00  0.00    +0.000 A 
ATOM     28  N   UNL     1      47.078   3.144  17.028  0.00  0.00    +0.000 N 
ATOM     29  C   UNL     1      47.352   4.158  16.141  0.00  0.00    +0.000 A 
ATOM     30  O   UNL     1      46.710   4.287  15.103  0.00  0.00    +0.000 OA
ATOM     31  C   UNL     1      48.428   5.044  16.548  0.00  0.00    +0.000 A 
ATOM     32  H   UNL     1      46.336   2.512  16.770  0.00  0.00    +0.000 HD
ENDBRANCH  19  22
ENDBRANCH  17  18
ENDBRANCH   4  17
TORSDOF 7
ENDMDL
MODEL 2
REMARK VINA RESULT:    -7.776      2.452      2.981
REMARK INTER + INTRA:         -11.810
REMARK INTER:                 -10.935
REMARK INTRA:                  -0.875
REMARK UNBOUND:                -0.851
REMARK  Name = 
REMARK  8 active torsions:
REMARK  status: ('A' for Active; 'I' for Inactive)
REMARK    1  A    between atoms: C_1  and  N_2
REMARK    2  A    between atoms: N_2  and  C_3
REMARK    3  A    between atoms: N_2  and  C_24
REMARK    4  A    between atoms: C_3  and  C_4
REMARK    5  A    between atoms: C_7  and  C_8
REMARK    6  A    between atoms: C_8  and  N_9
REMARK    7  A    between atoms: C_10  and  C_12
REMARK    8  A    between atoms: C_24  and  C_25
REMARK                            x       y       z     vdW  Elec       q    Type
REMARK                         _______ _______ _______ _____ _____    ______ ____
ROOT
ATOM      1  C   UNL     1      46.014   4.622  12.760  0.00  0.00    +0.000 A 
ATOM      2  C   UNL     1      46.455   4.155  14.009  0.00  0.00    +0.000 A 
ATOM      3  C   UNL     1      47.312   4.920  14.799  0.00  0.00    +0.000 A 
ATOM      4  C   UNL     1      47.768   6.163  14.346  0.00  0.00    +0.000 A 
ATOM      5  C   UNL     1      47.376   6.608  13.076  0.00  0.00    +0.000 A 
ATOM      6  C   UNL     1      46.492   5.854  12.299  0.00  0.00    +0.000 A 
ENDROOT
BRANCH   1   7
ATOM      7  C   UNL     1      45.014   3.817  11.951  0.00  0.00    +0.000 C 
BRANCH   7   9
ATOM      8  C   UNL     1      43.138   5.189  11.212  0.00  0.00    +0.000 C 
ATOM      9  N   UNL     1      44.403   4.557  10.824  0.00  0.00    +0.000 NA
BRANCH   9  10
ATOM     10  C   UNL     1      44.202   3.627   9.687  0.00  0.00    +0.000 C 
BRANCH  10  11
ATOM     11  C   UNL     1      45.481   3.229   8.913  0.00  0.00    +0.000 C 
ATOM     12  C   UNL     1      45.497   1.739   8.560  0.00  0.00    +0.000 C 
ATOM     13  C   UNL     1      46.742   1.397   7.748  0.00  0.00    +0.000 C 
ATOM     14  C   UNL     1      46.883   2.341   6.561  0.00  0.00    +0.000 C 
ATOM     15  C   UNL     1      46.781   3.792   7.011  0.00  0.00    +0.000 C 
ATOM     16  O   UNL     1      45.556   4.016   7.712  0.00  0.00    +0.000 OA
ENDBRANCH  10  11
ENDBRANCH   9  10
ENDBRANCH   7   9
ENDBRANCH   1   7
BRANCH   4  17
ATOM     17  C   UNL     1      48.695   6.991  15.194  0.00  0.00    +0.000 C 
BRANCH  17  18
ATOM     18  N   UNL     1      49.759   6.187  15.735  0.00  0.00    +0.000 N 
ATOM     19  C   UNL     1      49.771   5.835  17.059  0.00  0.00    +0.000 C 
ATOM     20  O   UNL     1      48.865   6.149  17.825  0.00  0.00    +0.000 OA
ATOM     21  H   UNL     1      50.605   6.104  15.180  0.00  0.00    +0.000 HD
BRANCH  19  22
ATOM     22  C   UNL     1      50.905   5.016  17.510  0.00  0.00    +0.000 A 
ATOM     23  C   UNL     1      52.020   5.639  18.053  0.00  0.00    +0.000 A 
ATOM     24  S   UNL     1      53.230   4.551  18.565  0.00  0.00    +0.000 S 
ATOM     25  C   UNL     1      52.324   3.212  18.038  0.00  0.00    +0.000 A 
ATOM     26  N   UNL     1      52.811   1.949  18.161  0.00  0.00    +0.000 NA
ATOM     27  C   UNL     1      52.031   1.031  17.697  0.00  0.00    +0.000 A 
ATOM     28  N   UNL     1      50.807   1.259  17.124  0.00  0.00    +0.000 N 
ATOM     29  C   UNL     1      50.263   2.515  17.006  0.00  0.00    +0.000 A 
ATOM     30  O   UNL     1      49.142   2.681  16.531  0.00  0.00    +0.000 OA
ATOM     31  C   UNL     1      51.105   3.589  17.498  0.00  0.00    +0.000 A 
ATOM     32  H   UNL     1      50.243   0.493  16.788  0.00  0.00    +0.000 HD
ENDBRANCH  19  22
ENDBRANCH  17  18
ENDBRANCH   4  17
TORSDOF 7
ENDMDL
MODEL 3
REMARK VINA RESULT:    -7.708      1.797      2.173
REMARK INTER + INTRA:         -11.712
REMARK INTER:                 -10.928
REMARK INTRA:                  -0.784
REMARK UNBOUND:                -0.851
REMARK  Name = 
REMARK  8 active torsions:
REMARK  status: ('A' for Active; 'I' for Inactive)
REMARK    1  A    between atoms: C_1  and  N_2
REMARK    2  A    between atoms: N_2  and  C_3
REMARK    3  A    between atoms: N_2  and  C_24
REMARK    4  A    between atoms: C_3  and  C_4
REMARK    5  A    between atoms: C_7  and  C_8
REMARK    6  A    between atoms: C_8  and  N_9
REMARK    7  A    between atoms: C_10  and  C_12
REMARK    8  A    between atoms: C_24  and  C_25
REMARK                            x       y       z     vdW  Elec       q    Type
REMARK                         _______ _______ _______ _____ _____    ______ ____
ROOT
ATOM      1  C   UNL     1      45.983   4.514  12.423  0.00  0.00    +0.000 A 
ATOM      2  C   UNL     1      46.582   4.349  13.683  0.00  0.00    +0.000 A 
ATOM      3  C   UNL     1      47.360   5.361  14.244  0.00  0.00    +0.000 A 
ATOM      4  C   UNL     1      47.580   6.553  13.546  0.00  0.00    +0.000 A 
ATOM      5  C   UNL     1      47.031   6.699  12.264  0.00  0.00    +0.000 A 
ATOM      6  C   UNL     1      46.226   5.698  11.716  0.00  0.00    +0.000 A 
ENDROOT
BRANCH   1   7
ATOM      7  C   UNL     1      45.069   3.440  11.863  0.00  0.00    +0.000 C 
BRANCH   7   9
ATOM      8  C   UNL     1      43.257   4.477  10.602  0.00  0.00    +0.000 C 
ATOM      9  N   UNL     1      44.523   3.741  10.521  0.00  0.00    +0.000 NA
BRANCH   9  10
ATOM     10  C   UNL     1      44.349   2.473   9.773  0.00  0.00    +0.000 C 
BRANCH  10  11
ATOM     11  C   UNL     1      45.153   2.357   8.456  0.00  0.00    +0.000 C 
ATOM     12  C   UNL     1      45.766   3.697   8.038  0.00  0.00    +0.000 C 
ATOM     13  C   UNL     1      46.598   3.530   6.771  0.00  0.00    +0.000 C 
ATOM     14  C   UNL     1      47.594   2.388   6.931  0.00  0.00    +0.000 C 
ATOM     15  C   UNL     1      46.894   1.126   7.417  0.00  0.00    +0.000 C 
ATOM     16  O   UNL     1      46.192   1.379   8.637  0.00  0.00    +0.000 OA
ENDBRANCH  10  11
ENDBRANCH   9  10
ENDBRANCH   7   9
ENDBRANCH   1   7
BRANCH   4  17
ATOM     17  C   UNL     1      48.421   7.646  14.146  0.00  0.00    +0.000 C 
BRANCH  17  18
ATOM     18  N   UNL     1      48.374   7.604  15.585  0.00  0.00    +0.000 N 
ATOM     19  C   UNL     1      49.383   7.020  16.304  0.00  0.00    +0.000 C 
ATOM     20  O   UNL     1      50.381   6.550  15.765  0.00  0.00    +0.000 OA
ATOM     21  H   UNL     1      47.478   7.788  16.024  0.00  0.00    +0.000 HD
BRANCH  19  22
ATOM     22  C   UNL     1      49.235   7.028  17.766  0.00  0.00    +0.000 A 
ATOM     23  C   UNL     1      49.328   8.231  18.453  0.00  0.00    +0.000 A 
ATOM     24  S   UNL     1      49.093   8.079  20.135  0.00  0.00    +0.000 S 
ATOM     25  C   UNL     1      48.904   6.393  20.010  0.00  0.00    +0.000 A 
ATOM     26  N   UNL     1      48.695   5.631  21.116  0.00  0.00    +0.000 NA
ATOM     27  C   UNL     1      48.595   4.366  20.879  0.00  0.00    +0.000 A 
ATOM     28  N   UNL     1      48.681   3.793  19.637  0.00  0.00    +0.000 N 
ATOM     29  C   UNL     1      48.862   4.526  18.489  0.00  0.00    +0.000 A 
ATOM     30  O   UNL     1      48.887   3.987  17.386  0.00  0.00    +0.000 OA
ATOM     31  C   UNL     1      48.997   5.956  18.699  0.00  0.00    +0.000 A 
ATOM     32  H   UNL     1      48.586   2.795  19.521  0.00  0.00    +0.000 HD
ENDBRANCH  19  22
ENDBRANCH  17  18
ENDBRANCH   4  17
TORSDOF 7
ENDMDL
MODEL 4
REMARK VINA RESULT:    -7.625      2.044      2.429
REMARK INTER + INTRA:         -11.597
REMARK INTER:                 -11.074
REMARK INTRA:                  -0.522
REMARK UNBOUND:                -0.851
REMARK  Name = 
REMARK  8 active torsions:
REMARK  status: ('A' for Active; 'I' for Inactive)
REMARK    1  A    between atoms: C_1  and  N_2
REMARK    2  A    between atoms: N_2  and  C_3
REMARK    3  A    between atoms: N_2  and  C_24
REMARK    4  A    between atoms: C_3  and  C_4
REMARK    5  A    between atoms: C_7  and  C_8
REMARK    6  A    between atoms: C_8  and  N_9
REMARK    7  A    between atoms: C_10  and  C_12
REMARK    8  A    between atoms: C_24  and  C_25
REMARK                            x       y       z     vdW  Elec       q    Type
REMARK                         _______ _______ _______ _____ _____    ______ ____
ROOT
ATOM      1  C   UNL     1      44.901   5.168  11.349  0.00  0.00    +0.000 A 
ATOM      2  C   UNL     1      45.072   4.794  12.691  0.00  0.00    +0.000 A 
ATOM      3  C   UNL     1      46.094   5.346  13.464  0.00  0.00    +0.000 A 
ATOM      4  C   UNL     1      46.985   6.268  12.904  0.00  0.00    +0.000 A 
ATOM      5  C   UNL     1      46.852   6.602  11.548  0.00  0.00    +0.000 A 
ATOM      6  C   UNL     1      45.809   6.072  10.783  0.00  0.00    +0.000 A 
ENDROOT
BRANCH   1   7
ATOM      7  C   UNL     1      43.734   4.625  10.545  0.00  0.00    +0.000 C 
BRANCH   7   9
ATOM      8  C   UNL     1      43.218   2.422  11.457  0.00  0.00    +0.000 C 
ATOM      9  N   UNL     1      43.775   3.163  10.320  0.00  0.00    +0.000 NA
BRANCH   9  10
ATOM     10  C   UNL     1      45.175   2.753  10.058  0.00  0.00    +0.000 C 
BRANCH  10  11
ATOM     11  C   UNL     1      45.518   2.449   8.579  0.00  0.00    +0.000 C 
ATOM     12  C   UNL     1      46.128   3.662   7.872  0.00  0.00    +0.000 C 
ATOM     13  C   UNL     1      46.507   3.308   6.437  0.00  0.00    +0.000 C 
ATOM     14  C   UNL     1      47.361   2.047   6.405  0.00  0.00    +0.000 C 
ATOM     15  C   UNL     1      46.700   0.927   7.197  0.00  0.00    +0.000 C 
ATOM     16  O   UNL     1      46.440   1.346   8.539  0.00  0.00    +0.000 OA
ENDBRANCH  10  11
ENDBRANCH   9  10
ENDBRANCH   7   9
ENDBRANCH   1   7
BRANCH   4  17
ATOM     17  C   UNL     1      48.089   6.863  13.733  0.00  0.00    +0.000 C 
BRANCH  17  18
ATOM     18  N   UNL     1      47.951   6.498  15.119  0.00  0.00    +0.000 N 
ATOM     19  C   UNL     1      49.048   6.400  15.933  0.00  0.00    +0.000 C 
ATOM     20  O   UNL     1      50.181   6.657  15.534  0.00  0.00    +0.000 OA
ATOM     21  H   UNL     1      47.069   6.080  15.401  0.00  0.00    +0.000 HD
BRANCH  19  22
ATOM     22  C   UNL     1      48.797   6.016  17.329  0.00  0.00    +0.000 A 
ATOM     23  C   UNL     1      49.015   4.703  17.723  0.00  0.00    +0.000 A 
ATOM     24  S   UNL     1      48.718   4.427  19.379  0.00  0.00    +0.000 S 
ATOM     25  C   UNL     1      48.244   6.043  19.619  0.00  0.00    +0.000 A 
ATOM     26  N   UNL     1      47.833   6.476  20.839  0.00  0.00    +0.000 NA
ATOM     27  C   UNL     1      47.477   7.716  20.872  0.00  0.00    +0.000 A 
ATOM     28  N   UNL     1      47.499   8.566  19.797  0.00  0.00    +0.000 N 
ATOM     29  C   UNL     1      47.935   8.180  18.552  0.00  0.00    +0.000 A 
ATOM     30  O   UNL     1      47.988   8.978  17.620  0.00  0.00    +0.000 OA
ATOM     31  C   UNL     1      48.333   6.788  18.453  0.00  0.00    +0.000 A 
ATOM     32  H   UNL     1      47.215   9.529  19.893  0.00  0.00    +0.000 HD
ENDBRANCH  19  22
ENDBRANCH  17  18
ENDBRANCH   4  17
TORSDOF 7
ENDMDL
MODEL 5
REMARK VINA RESULT:    -7.434      2.907      8.248
REMARK INTER + INTRA:         -11.327
REMARK INTER:                  -9.769
REMARK INTRA:                  -1.558
REMARK UNBOUND:                -0.851
REMARK  Name = 
REMARK  8 active torsions:
REMARK  status: ('A' for Active; 'I' for Inactive)
REMARK    1  A    between atoms: C_1  and  N_2
REMARK    2  A    between atoms: N_2  and  C_3
REMARK    3  A    between atoms: N_2  and  C_24
REMARK    4  A    between atoms: C_3  and  C_4
REMARK    5  A    between atoms: C_7  and  C_8
REMARK    6  A    between atoms: C_8  and  N_9
REMARK    7  A    between atoms: C_10  and  C_12
REMARK    8  A    between atoms: C_24  and  C_25
REMARK                            x       y       z     vdW  Elec       q    Type
REMARK                         _______ _______ _______ _____ _____    ______ ____
ROOT
ATOM      1  C   UNL     1      48.846   7.974  16.156  0.00  0.00    +0.000 A 
ATOM      2  C   UNL     1      48.466   9.138  15.468  0.00  0.00    +0.000 A 
ATOM      3  C   UNL     1      48.047   9.080  14.139  0.00  0.00    +0.000 A 
ATOM      4  C   UNL     1      48.021   7.858  13.459  0.00  0.00    +0.000 A 
ATOM      5  C   UNL     1      48.452   6.702  14.124  0.00  0.00    +0.000 A 
ATOM      6  C   UNL     1      48.843   6.756  15.465  0.00  0.00    +0.000 A 
ENDROOT
BRANCH   1   7
ATOM      7  C   UNL     1      49.217   8.039  17.626  0.00  0.00    +0.000 C 
BRANCH   7   9
ATOM      8  C   UNL     1      47.757   7.930  19.577  0.00  0.00    +0.000 C 
ATOM      9  N   UNL     1      48.402   7.169  18.502  0.00  0.00    +0.000 NA
BRANCH   9  10
ATOM     10  C   UNL     1      49.263   6.098  19.057  0.00  0.00    +0.000 C 
BRANCH  10  11
ATOM     11  C   UNL     1      48.907   4.657  18.619  0.00  0.00    +0.000 C 
ATOM     12  C   UNL     1      47.552   4.593  17.908  0.00  0.00    +0.000 C 
ATOM     13  C   UNL     1      47.263   3.170  17.439  0.00  0.00    +0.000 C 
ATOM     14  C   UNL     1      48.437   2.622  16.638  0.00  0.00    +0.000 C 
ATOM     15  C   UNL     1      49.742   2.800  17.402  0.00  0.00    +0.000 C 
ATOM     16  O   UNL     1      49.941   4.174  17.744  0.00  0.00    +0.000 OA
ENDBRANCH  10  11
ENDBRANCH   9  10
ENDBRANCH   7   9
ENDBRANCH   1   7
BRANCH   4  17
ATOM     17  C   UNL     1      47.572   7.792  12.025  0.00  0.00    +0.000 C 
BRANCH  17  18
ATOM     18  N   UNL     1      46.889   6.554  11.752  0.00  0.00    +0.000 N 
ATOM     19  C   UNL     1      45.524   6.470  11.845  0.00  0.00    +0.000 C 
ATOM     20  O   UNL     1      44.828   7.442  12.120  0.00  0.00    +0.000 OA
ATOM     21  H   UNL     1      47.451   5.709  11.738  0.00  0.00    +0.000 HD
BRANCH  19  22
ATOM     22  C   UNL     1      44.927   5.159  11.551  0.00  0.00    +0.000 A 
ATOM     23  C   UNL     1      44.208   4.502  12.540  0.00  0.00    +0.000 A 
ATOM     24  S   UNL     1      43.545   3.016  12.031  0.00  0.00    +0.000 S 
ATOM     25  C   UNL     1      44.234   3.176  10.485  0.00  0.00    +0.000 A 
ATOM     26  N   UNL     1      44.070   2.209   9.544  0.00  0.00    +0.000 NA
ATOM     27  C   UNL     1      44.669   2.449   8.426  0.00  0.00    +0.000 A 
ATOM     28  N   UNL     1      45.414   3.567   8.159  0.00  0.00    +0.000 N 
ATOM     29  C   UNL     1      45.583   4.583   9.069  0.00  0.00    +0.000 A 
ATOM     30  O   UNL     1      46.216   5.596   8.783  0.00  0.00    +0.000 OA
ATOM     31  C   UNL     1      44.943   4.360  10.353  0.00  0.00    +0.000 A 
ATOM     32  H   UNL     1      45.849   3.696   7.259  0.00  0.00    +0.000 HD
ENDBRANCH  19  22
ENDBRANCH  17  18
ENDBRANCH   4  17
TORSDOF 7
ENDMDL
MODEL 6
REMARK VINA RESULT:    -7.354      2.193      2.674
REMARK INTER + INTRA:         -11.215
REMARK INTER:                 -10.189
REMARK INTRA:                  -1.026
REMARK UNBOUND:                -0.851
REMARK  Name = 
REMARK  8 active torsions:
REMARK  status: ('A' for Active; 'I' for Inactive)
REMARK    1  A    between atoms: C_1  and  N_2
REMARK    2  A    between atoms: N_2  and  C_3
REMARK    3  A    between atoms: N_2  and  C_24
REMARK    4  A    between atoms: C_3  and  C_4
REMARK    5  A    between atoms: C_7  and  C_8
REMARK    6  A    between atoms: C_8  and  N_9
REMARK    7  A    between atoms: C_10  and  C_12
REMARK    8  A    between atoms: C_24  and  C_25
REMARK                            x       y       z     vdW  Elec       q    Type
REMARK                         _______ _______ _______ _____ _____    ______ ____
ROOT
ATOM      1  C   UNL     1      45.975   4.977  12.592  0.00  0.00    +0.000 A 
ATOM      2  C   UNL     1      46.774   4.800  13.734  0.00  0.00    +0.000 A 
ATOM      3  C   UNL     1      47.758   5.728  14.071  0.00  0.00    +0.000 A 
ATOM      4  C   UNL     1      47.984   6.845  13.259  0.00  0.00    +0.000 A 
ATOM      5  C   UNL     1      47.227   6.996  12.088  0.00  0.00    +0.000 A 
ATOM      6  C   UNL     1      46.220   6.081  11.768  0.00  0.00    +0.000 A 
ENDROOT
BRANCH   1   7
ATOM      7  C   UNL     1      44.852   4.004  12.285  0.00  0.00    +0.000 C 
BRANCH   7   9
ATOM      8  C   UNL     1      42.938   4.840  11.024  0.00  0.00    +0.000 C 
ATOM      9  N   UNL     1      44.244   4.176  10.947  0.00  0.00    +0.000 NA
BRANCH   9  10
ATOM     10  C   UNL     1      44.123   2.849  10.296  0.00  0.00    +0.000 C 
BRANCH  10  11
ATOM     11  C   UNL     1      44.837   2.706   8.931  0.00  0.00    +0.000 C 
ATOM     12  C   UNL     1      45.533   4.004   8.509  0.00  0.00    +0.000 C 
ATOM     13  C   UNL     1      46.275   3.807   7.191  0.00  0.00    +0.000 C 
ATOM     14  C   UNL     1      47.181   2.584   7.264  0.00  0.00    +0.000 C 
ATOM     15  C   UNL     1      46.410   1.369   7.762  0.00  0.00    +0.000 C 
ATOM     16  O   UNL     1      45.802   1.644   9.026  0.00  0.00    +0.000 OA
ENDBRANCH  10  11
ENDBRANCH   9  10
ENDBRANCH   7   9
ENDBRANCH   1   7
BRANCH   4  17
ATOM     17  C   UNL     1      49.046   7.848  13.618  0.00  0.00    +0.000 C 
BRANCH  17  18
ATOM     18  N   UNL     1      50.142   7.217  14.307  0.00  0.00    +0.000 N 
ATOM     19  C   UNL     1      50.286   7.345  15.663  0.00  0.00    +0.000 C 
ATOM     20  O   UNL     1      49.475   7.960  16.350  0.00  0.00    +0.000 OA
ATOM     21  H   UNL     1      50.921   6.896  13.741  0.00  0.00    +0.000 HD
BRANCH  19  22
ATOM     22  C   UNL     1      51.440   6.665  16.267  0.00  0.00    +0.000 A 
ATOM     23  C   UNL     1      52.702   7.234  16.151  0.00  0.00    +0.000 A 
ATOM     24  S   UNL     1      53.927   6.348  16.939  0.00  0.00    +0.000 S 
ATOM     25  C   UNL     1      52.823   5.149  17.424  0.00  0.00    +0.000 A 
ATOM     26  N   UNL     1      53.237   4.064  18.129  0.00  0.00    +0.000 NA
ATOM     27  C   UNL     1      52.299   3.221  18.408  0.00  0.00    +0.000 A 
ATOM     28  N   UNL     1      50.985   3.366  18.050  0.00  0.00    +0.000 N 
ATOM     29  C   UNL     1      50.516   4.460  17.363  0.00  0.00    +0.000 A 
ATOM     30  O   UNL     1      49.323   4.583  17.098  0.00  0.00    +0.000 OA
ATOM     31  C   UNL     1      51.532   5.434  17.008  0.00  0.00    +0.000 A 
ATOM     32  H   UNL     1      50.299   2.672  18.308  0.00  0.00    +0.000 HD
ENDBRANCH  19  22
ENDBRANCH  17  18
ENDBRANCH   4  17
TORSDOF 7
ENDMDL
MODEL 7
REMARK VINA RESULT:    -7.041      3.353      7.936
REMARK INTER + INTRA:         -10.773
REMARK INTER:                  -9.351
REMARK INTRA:                  -1.422
REMARK UNBOUND:                -0.851
REMARK  Name = 
REMARK  8 active torsions:
REMARK  status: ('A' for Active; 'I' for Inactive)
REMARK    1  A    between atoms: C_1  and  N_2
REMARK    2  A    between atoms: N_2  and  C_3
REMARK    3  A    between atoms: N_2  and  C_24
REMARK    4  A    between atoms: C_3  and  C_4
REMARK    5  A    between atoms: C_7  and  C_8
REMARK    6  A    between atoms: C_8  and  N_9
REMARK    7  A    between atoms: C_10  and  C_12
REMARK    8  A    between atoms: C_24  and  C_25
REMARK                            x       y       z     vdW  Elec       q    Type
REMARK                         _______ _______ _______ _____ _____    ______ ____
ROOT
ATOM      1  C   UNL     1      50.065   7.223  15.729  0.00  0.00    +0.000 A 
ATOM      2  C   UNL     1      48.882   6.583  15.324  0.00  0.00    +0.000 A 
ATOM      3  C   UNL     1      48.307   6.859  14.084  0.00  0.00    +0.000 A 
ATOM      4  C   UNL     1      48.890   7.801  13.229  0.00  0.00    +0.000 A 
ATOM      5  C   UNL     1      50.040   8.482  13.653  0.00  0.00    +0.000 A 
ATOM      6  C   UNL     1      50.632   8.183  14.883  0.00  0.00    +0.000 A 
ENDROOT
BRANCH   1   7
ATOM      7  C   UNL     1      50.726   6.850  17.044  0.00  0.00    +0.000 C 
BRANCH   7   9
ATOM      8  C   UNL     1      49.657   7.653  19.084  0.00  0.00    +0.000 C 
ATOM      9  N   UNL     1      49.778   6.539  18.138  0.00  0.00    +0.000 NA
BRANCH   9  10
ATOM     10  C   UNL     1      50.224   5.306  18.829  0.00  0.00    +0.000 C 
BRANCH  10  11
ATOM     11  C   UNL     1      49.547   3.995  18.362  0.00  0.00    +0.000 C 
ATOM     12  C   UNL     1      48.079   4.211  17.984  0.00  0.00    +0.000 C 
ATOM     13  C   UNL     1      47.463   2.912  17.473  0.00  0.00    +0.000 C 
ATOM     14  C   UNL     1      48.328   2.305  16.375  0.00  0.00    +0.000 C 
ATOM     15  C   UNL     1      49.779   2.202  16.827  0.00  0.00    +0.000 C 
ATOM     16  O   UNL     1      50.272   3.481  17.231  0.00  0.00    +0.000 OA
ENDBRANCH  10  11
ENDBRANCH   9  10
ENDBRANCH   7   9
ENDBRANCH   1   7
BRANCH   4  17
ATOM     17  C   UNL     1      48.272   8.103  11.891  0.00  0.00    +0.000 C 
BRANCH  17  18
ATOM     18  N   UNL     1      47.588   6.950  11.365  0.00  0.00    +0.000 N 
ATOM     19  C   UNL     1      46.221   6.926  11.272  0.00  0.00    +0.000 C 
ATOM     20  O   UNL     1      45.529   7.889  11.589  0.00  0.00    +0.000 OA
ATOM     21  H   UNL     1      48.117   6.086  11.304  0.00  0.00    +0.000 HD
BRANCH  19  22
ATOM     22  C   UNL     1      45.623   5.700  10.725  0.00  0.00    +0.000 A 
ATOM     23  C   UNL     1      45.790   5.405   9.378  0.00  0.00    +0.000 A 
ATOM     24  S   UNL     1      45.074   3.931   8.907  0.00  0.00    +0.000 S 
ATOM     25  C   UNL     1      44.476   3.657  10.476  0.00  0.00    +0.000 A 
ATOM     26  N   UNL     1      43.732   2.556  10.757  0.00  0.00    +0.000 NA
ATOM     27  C   UNL     1      43.322   2.488  11.979  0.00  0.00    +0.000 A 
ATOM     28  N   UNL     1      43.591   3.420  12.948  0.00  0.00    +0.000 N 
ATOM     29  C   UNL     1      44.363   4.533  12.717  0.00  0.00    +0.000 A 
ATOM     30  O   UNL     1      44.625   5.325  13.619  0.00  0.00    +0.000 OA
ATOM     31  C   UNL     1      44.838   4.668  11.352  0.00  0.00    +0.000 A 
ATOM     32  H   UNL     1      43.246   3.301  13.888  0.00  0.00    +0.000 HD
ENDBRANCH  19  22
ENDBRANCH  17  18
ENDBRANCH   4  17
TORSDOF 7
ENDMDL
MODEL 8
REMARK VINA RESULT:    -6.780      3.607      8.087
REMARK INTER + INTRA:         -10.405
REMARK INTER:                  -8.701
REMARK INTRA:                  -1.704
REMARK UNBOUND:                -0.851
REMARK  Name = 
REMARK  8 active torsions:
REMARK  status: ('A' for Active; 'I' for Inactive)
REMARK    1  A    between atoms: C_1  and  N_2
REMARK    2  A    between atoms: N_2  and  C_3
REMARK    3  A    between atoms: N_2  and  C_24
REMARK    4  A    between atoms: C_3  and  C_4
REMARK    5  A    between atoms: C_7  and  C_8
REMARK    6  A    between atoms: C_8  and  N_9
REMARK    7  A    between atoms: C_10  and  C_12
REMARK    8  A    between atoms: C_24  and  C_25
REMARK                            x       y       z     vdW  Elec       q    Type
REMARK                         _______ _______ _______ _____ _____    ______ ____
ROOT
ATOM      1  C   UNL     1      49.296   7.469  17.850  0.00  0.00    +0.000 A 
ATOM      2  C   UNL     1      49.590   6.731  16.692  0.00  0.00    +0.000 A 
ATOM      3  C   UNL     1      49.180   7.175  15.435  0.00  0.00    +0.000 A 
ATOM      4  C   UNL     1      48.443   8.358  15.310  0.00  0.00    +0.000 A 
ATOM      5  C   UNL     1      48.099   9.069  16.468  0.00  0.00    +0.000 A 
ATOM      6  C   UNL     1      48.537   8.639  17.724  0.00  0.00    +0.000 A 
ENDROOT
BRANCH   1   7
ATOM      7  C   UNL     1      49.822   7.019  19.200  0.00  0.00    +0.000 C 
BRANCH   7   9
ATOM      8  C   UNL     1      48.640   6.921  21.331  0.00  0.00    +0.000 C 
ATOM      9  N   UNL     1      48.838   6.284  20.025  0.00  0.00    +0.000 NA
BRANCH   9  10
ATOM     10  C   UNL     1      49.292   4.882  20.186  0.00  0.00    +0.000 C 
BRANCH  10  11
ATOM     11  C   UNL     1      48.766   3.882  19.127  0.00  0.00    +0.000 C 
ATOM     12  C   UNL     1      47.525   4.413  18.405  0.00  0.00    +0.000 C 
ATOM     13  C   UNL     1      47.072   3.429  17.330  0.00  0.00    +0.000 C 
ATOM     14  C   UNL     1      48.236   3.057  16.421  0.00  0.00    +0.000 C 
ATOM     15  C   UNL     1      49.441   2.613  17.241  0.00  0.00    +0.000 C 
ATOM     16  O   UNL     1      49.814   3.628  18.176  0.00  0.00    +0.000 OA
ENDBRANCH  10  11
ENDBRANCH   9  10
ENDBRANCH   7   9
ENDBRANCH   1   7
BRANCH   4  17
ATOM     17  C   UNL     1      47.996   8.839  13.956  0.00  0.00    +0.000 C 
BRANCH  17  18
ATOM     18  N   UNL     1      46.804   8.153  13.531  0.00  0.00    +0.000 N 
ATOM     19  C   UNL     1      46.839   7.263  12.490  0.00  0.00    +0.000 C 
ATOM     20  O   UNL     1      47.883   6.981  11.908  0.00  0.00    +0.000 OA
ATOM     21  H   UNL     1      45.916   8.527  13.849  0.00  0.00    +0.000 HD
BRANCH  19  22
ATOM     22  C   UNL     1      45.566   6.620  12.133  0.00  0.00    +0.000 A 
ATOM     23  C   UNL     1      44.555   7.384  11.566  0.00  0.00    +0.000 A 
ATOM     24  S   UNL     1      43.159   6.487  11.171  0.00  0.00    +0.000 S 
ATOM     25  C   UNL     1      43.841   5.055  11.786  0.00  0.00    +0.000 A 
ATOM     26  N   UNL     1      43.140   3.890  11.778  0.00  0.00    +0.000 NA
ATOM     27  C   UNL     1      43.768   2.889  12.298  0.00  0.00    +0.000 A 
ATOM     28  N   UNL     1      45.033   2.945  12.822  0.00  0.00    +0.000 N 
ATOM     29  C   UNL     1      45.788   4.092  12.825  0.00  0.00    +0.000 A 
ATOM     30  O   UNL     1      46.937   4.098  13.259  0.00  0.00    +0.000 OA
ATOM     31  C   UNL     1      45.125   5.256  12.266  0.00  0.00    +0.000 A 
ATOM     32  H   UNL     1      45.469   2.120  13.207  0.00  0.00    +0.000 HD
ENDBRANCH  19  22
ENDBRANCH  17  18
ENDBRANCH   4  17
TORSDOF 7
ENDMDL
MODEL 9
REMARK VINA RESULT:    -6.658      3.737      8.492
REMARK INTER + INTRA:         -10.234
REMARK INTER:                  -8.290
REMARK INTRA:                  -1.944
REMARK UNBOUND:                -0.851
REMARK  Name = 
REMARK  8 active torsions:
REMARK  status: ('A' for Active; 'I' for Inactive)
REMARK    1  A    between atoms: C_1  and  N_2
REMARK    2  A    between atoms: N_2  and  C_3
REMARK    3  A    between atoms: N_2  and  C_24
REMARK    4  A    between atoms: C_3  and  C_4
REMARK    5  A    between atoms: C_7  and  C_8
REMARK    6  A    between atoms: C_8  and  N_9
REMARK    7  A    between atoms: C_10  and  C_12
REMARK    8  A    between atoms: C_24  and  C_25
REMARK                            x       y       z     vdW  Elec       q    Type
REMARK                         _______ _______ _______ _____ _____    ______ ____
ROOT
ATOM      1  C   UNL     1      49.666   8.082  18.444  0.00  0.00    +0.000 A 
ATOM      2  C   UNL     1      48.538   8.872  18.164  0.00  0.00    +0.000 A 
ATOM      3  C   UNL     1      48.111   9.072  16.852  0.00  0.00    +0.000 A 
ATOM      4  C   UNL     1      48.818   8.506  15.785  0.00  0.00    +0.000 A 
ATOM      5  C   UNL     1      49.976   7.764  16.056  0.00  0.00    +0.000 A 
ATOM      6  C   UNL     1      50.385   7.538  17.373  0.00  0.00    +0.000 A 
ENDROOT
BRANCH   1   7
ATOM      7  C   UNL     1      50.068   7.803  19.880  0.00  0.00    +0.000 C 
BRANCH   7   9
ATOM      8  C   UNL     1      48.947   7.414  22.012  0.00  0.00    +0.000 C 
ATOM      9  N   UNL     1      49.113   6.955  20.629  0.00  0.00    +0.000 NA
BRANCH   9  10
ATOM     10  C   UNL     1      49.582   5.549  20.592  0.00  0.00    +0.000 C 
BRANCH  10  11
ATOM     11  C   UNL     1      48.943   4.659  19.499  0.00  0.00    +0.000 C 
ATOM     12  C   UNL     1      47.725   5.328  18.855  0.00  0.00    +0.000 C 
ATOM     13  C   UNL     1      47.160   4.448  17.743  0.00  0.00    +0.000 C 
ATOM     14  C   UNL     1      48.259   4.041  16.772  0.00  0.00    +0.000 C 
ATOM     15  C   UNL     1      49.450   3.456  17.519  0.00  0.00    +0.000 C 
ATOM     16  O   UNL     1      49.935   4.381  18.495  0.00  0.00    +0.000 OA
ENDBRANCH  10  11
ENDBRANCH   9  10
ENDBRANCH   7   9
ENDBRANCH   1   7
BRANCH   4  17
ATOM     17  C   UNL     1      48.362   8.722  14.368  0.00  0.00    +0.000 C 
BRANCH  17  18
ATOM     18  N   UNL     1      47.353   7.764  13.997  0.00  0.00    +0.000 N 
ATOM     19  C   UNL     1      47.682   6.634  13.295  0.00  0.00    +0.000 C 
ATOM     20  O   UNL     1      48.841   6.369  12.991  0.00  0.00    +0.000 OA
ATOM     21  H   UNL     1      46.386   8.067  14.049  0.00  0.00    +0.000 HD
BRANCH  19  22
ATOM     22  C   UNL     1      46.576   5.724  12.964  0.00  0.00    +0.000 A 
ATOM     23  C   UNL     1      46.699   4.371  13.253  0.00  0.00    +0.000 A 
ATOM     24  S   UNL     1      45.319   3.456  12.847  0.00  0.00    +0.000 S 
ATOM     25  C   UNL     1      44.525   4.828  12.229  0.00  0.00    +0.000 A 
ATOM     26  N   UNL     1      43.282   4.730  11.688  0.00  0.00    +0.000 NA
ATOM     27  C   UNL     1      42.811   5.843  11.235  0.00  0.00    +0.000 A 
ATOM     28  N   UNL     1      43.466   7.046  11.275  0.00  0.00    +0.000 N 
ATOM     29  C   UNL     1      44.710   7.197  11.839  0.00  0.00    +0.000 A 
ATOM     30  O   UNL     1      45.251   8.298  11.903  0.00  0.00    +0.000 OA
ATOM     31  C   UNL     1      45.296   5.973  12.351  0.00  0.00    +0.000 A 
ATOM     32  H   UNL     1      43.035   7.882  10.909  0.00  0.00    +0.000 HD
ENDBRANCH  19  22
ENDBRANCH  17  18
ENDBRANCH   4  17
TORSDOF 7
ENDMDL
