MODEL 1
REMARK VINA RESULT:    -8.552      0.000      0.000
REMARK INTER + INTRA:         -12.677
REMARK INTER:                 -11.552
REMARK INTRA:                  -1.126
REMARK UNBOUND:                -1.126
REMARK  Name = 
REMARK  6 active torsions:
REMARK  status: ('A' for Active; 'I' for Inactive)
REMARK    1  A    between atoms: C_2  and  C_4
REMARK    2  A    between atoms: C_7  and  C_8
REMARK    3  A    between atoms: C_8  and  C_9
REMARK    4  A    between atoms: C_9  and  N_10
REMARK    5  A    between atoms: N_10  and  C_11
REMARK    6  A    between atoms: C_15  and  C_16
REMARK                            x       y       z     vdW  Elec       q    Type
REMARK                         _______ _______ _______ _____ _____    ______ ____
ROOT
ATOM      1  N   UNL     1      43.717   5.691  12.234  0.00  0.00    +0.000 N 
ATOM      2  H   UNL     1      43.211   5.291  13.021  0.00  0.00    +0.000 HD
ENDROOT
BRANCH   1   3
ATOM      3  C   UNL     1      45.096   5.754  12.507  0.00  0.00    +0.000 A 
ATOM      4  C   UNL     1      45.962   6.626  11.837  0.00  0.00    +0.000 A 
ATOM      5  C   UNL     1      47.312   6.707  12.174  0.00  0.00    +0.000 A 
ATOM      6  C   UNL     1      47.809   5.955  13.232  0.00  0.00    +0.000 A 
ATOM      7  C   UNL     1      46.966   5.132  13.999  0.00  0.00    +0.000 A 
ATOM      8  C   UNL     1      45.613   5.037  13.603  0.00  0.00    +0.000 A 
BRANCH   7   9
ATOM      9  C   UNL     1      47.476   4.438  15.201  0.00  0.00    +0.000 A 
ATOM     10  C   UNL     1      47.689   5.118  16.405  0.00  0.00    +0.000 A 
ATOM     11  C   UNL     1      48.167   4.427  17.514  0.00  0.00    +0.000 A 
ATOM     12  C   UNL     1      48.419   3.069  17.404  0.00  0.00    +0.000 A 
ATOM     13  C   UNL     1      48.177   2.460  16.184  0.00  0.00    +0.000 A 
ATOM     14  N   UNL     1      47.710   3.107  15.089  0.00  0.00    +0.000 NA
ENDBRANCH   7   9
ENDBRANCH   1   3
BRANCH   1  15
ATOM     15  C   UNL     1      43.299   5.142  10.940  0.00  0.00    +0.000 C 
BRANCH  15  16
ATOM     16  C   UNL     1      43.609   3.644  10.852  0.00  0.00    +0.000 C 
BRANCH  16  20
ATOM     17  C   UNL     1      46.377   2.771   7.650  0.00  0.00    +0.000 A 
ATOM     18  C   UNL     1      46.019   4.094   7.927  0.00  0.00    +0.000 A 
ATOM     19  C   UNL     1      45.119   4.375   8.961  0.00  0.00    +0.000 A 
ATOM     20  C   UNL     1      44.572   3.337   9.728  0.00  0.00    +0.000 A 
ATOM     21  C   UNL     1      44.903   2.011   9.415  0.00  0.00    +0.000 A 
ATOM     22  C   UNL     1      45.798   1.728   8.379  0.00  0.00    +0.000 A 
BRANCH  17  24
ATOM     23  N   UNL     1      47.362   3.229   5.471  0.00  0.00    +0.000 N 
ATOM     24  C   UNL     1      47.360   2.435   6.586  0.00  0.00    +0.000 C 
ATOM     25  O   UNL     1      48.167   1.525   6.714  0.00  0.00    +0.000 OA
ATOM     26  H   UNL     1      48.118   3.076   4.816  0.00  0.00    +0.000 HD
ATOM     27  H   UNL     1      46.906   4.131   5.455  0.00  0.00    +0.000 HD
ENDBRANCH  17  24
ENDBRANCH  16  20
ENDBRANCH  15  16
ENDBRANCH   1  15
TORSDOF 6
ENDMDL
MODEL 2
REMARK VINA RESULT:    -8.247      1.996      4.161
REMARK INTER + INTRA:         -12.265
REMARK INTER:                 -11.268
REMARK INTRA:                  -0.997
REMARK UNBOUND:                -1.126
REMARK  Name = 
REMARK  6 active torsions:
REMARK  status: ('A' for Active; 'I' for Inactive)
REMARK    1  A    between atoms: C_2  and  C_4
REMARK    2  A    between atoms: C_7  and  C_8
REMARK    3  A    between atoms: C_8  and  C_9
REMARK    4  A    between atoms: C_9  and  N_10
REMARK    5  A    between atoms: N_10  and  C_11
REMARK    6  A    between atoms: C_15  and  C_16
REMARK                            x       y       z     vdW  Elec       q    Type
REMARK                         _______ _______ _______ _____ _____    ______ ____
ROOT
ATOM      1  N   UNL     1      43.599   4.961  12.663  0.00  0.00    +0.000 N 
ATOM      2  H   UNL     1      43.086   4.720  13.509  0.00  0.00    +0.000 HD
ENDROOT
BRANCH   1   3
ATOM      3  C   UNL     1      44.910   5.365  12.972  0.00  0.00    +0.000 A 
ATOM      4  C   UNL     1      45.869   4.490  13.496  0.00  0.00    +0.000 A 
ATOM      5  C   UNL     1      47.177   4.906  13.735  0.00  0.00    +0.000 A 
ATOM      6  C   UNL     1      47.566   6.198  13.399  0.00  0.00    +0.000 A 
ATOM      7  C   UNL     1      46.670   7.091  12.786  0.00  0.00    +0.000 A 
ATOM      8  C   UNL     1      45.339   6.653  12.599  0.00  0.00    +0.000 A 
BRANCH   7   9
ATOM      9  C   UNL     1      47.127   8.415  12.314  0.00  0.00    +0.000 A 
ATOM     10  C   UNL     1      48.447   8.633  11.906  0.00  0.00    +0.000 A 
ATOM     11  C   UNL     1      48.835   9.895  11.466  0.00  0.00    +0.000 A 
ATOM     12  C   UNL     1      47.898  10.915  11.434  0.00  0.00    +0.000 A 
ATOM     13  C   UNL     1      46.608  10.625  11.844  0.00  0.00    +0.000 A 
ATOM     14  N   UNL     1      46.201   9.407  12.276  0.00  0.00    +0.000 NA
ENDBRANCH   7   9
ENDBRANCH   1   3
BRANCH   1  15
ATOM     15  C   UNL     1      43.418   3.987  11.581  0.00  0.00    +0.000 C 
BRANCH  15  16
ATOM     16  C   UNL     1      43.625   4.642  10.211  0.00  0.00    +0.000 C 
BRANCH  16  20
ATOM     17  C   UNL     1      46.416   2.420   7.773  0.00  0.00    +0.000 A 
ATOM     18  C   UNL     1      45.601   1.752   8.691  0.00  0.00    +0.000 A 
ATOM     19  C   UNL     1      44.701   2.474   9.484  0.00  0.00    +0.000 A 
ATOM     20  C   UNL     1      44.606   3.867   9.363  0.00  0.00    +0.000 A 
ATOM     21  C   UNL     1      45.459   4.533   8.470  0.00  0.00    +0.000 A 
ATOM     22  C   UNL     1      46.362   3.814   7.681  0.00  0.00    +0.000 A 
BRANCH  17  24
ATOM     23  N   UNL     1      48.481   2.354   6.484  0.00  0.00    +0.000 N 
ATOM     24  C   UNL     1      47.356   1.685   6.885  0.00  0.00    +0.000 C 
ATOM     25  O   UNL     1      47.167   0.520   6.565  0.00  0.00    +0.000 OA
ATOM     26  H   UNL     1      49.174   1.805   5.992  0.00  0.00    +0.000 HD
ATOM     27  H   UNL     1      48.793   3.199   6.940  0.00  0.00    +0.000 HD
ENDBRANCH  17  24
ENDBRANCH  16  20
ENDBRANCH  15  16
ENDBRANCH   1  15
TORSDOF 6
ENDMDL
MODEL 3
REMARK VINA RESULT:    -8.011      2.451      7.334
REMARK INTER + INTRA:         -11.946
REMARK INTER:                 -10.842
REMARK INTRA:                  -1.104
REMARK UNBOUND:                -1.126
REMARK  Name = 
REMARK  6 active torsions:
REMARK  status: ('A' for Active; 'I' for Inactive)
REMARK    1  A    between atoms: C_2  and  C_4
REMARK    2  A    between atoms: C_7  and  C_8
REMARK    3  A    between atoms: C_8  and  C_9
REMARK    4  A    between atoms: C_9  and  N_10
REMARK    5  A    between atoms: N_10  and  C_11
REMARK    6  A    between atoms: C_15  and  C_16
REMARK                            x       y       z     vdW  Elec       q    Type
REMARK                         _______ _______ _______ _____ _____    ______ ____
ROOT
ATOM      1  N   UNL     1      44.397   6.659  11.039  0.00  0.00    +0.000 N 
ATOM      2  H   UNL     1      44.667   7.137  10.183  0.00  0.00    +0.000 HD
ENDROOT
BRANCH   1   3
ATOM      3  C   UNL     1      44.345   5.267  10.837  0.00  0.00    +0.000 A 
ATOM      4  C   UNL     1      43.435   4.438  11.503  0.00  0.00    +0.000 A 
ATOM      5  C   UNL     1      43.369   3.072  11.236  0.00  0.00    +0.000 A 
ATOM      6  C   UNL     1      44.177   2.519  10.248  0.00  0.00    +0.000 A 
ATOM      7  C   UNL     1      45.043   3.319   9.484  0.00  0.00    +0.000 A 
ATOM      8  C   UNL     1      45.120   4.692   9.811  0.00  0.00    +0.000 A 
BRANCH   7   9
ATOM      9  C   UNL     1      45.800   2.746   8.351  0.00  0.00    +0.000 A 
ATOM     10  C   UNL     1      46.138   3.515   7.232  0.00  0.00    +0.000 A 
ATOM     11  C   UNL     1      46.855   2.937   6.188  0.00  0.00    +0.000 A 
ATOM     12  C   UNL     1      47.226   1.605   6.281  0.00  0.00    +0.000 A 
ATOM     13  C   UNL     1      46.865   0.908   7.422  0.00  0.00    +0.000 A 
ATOM     14  N   UNL     1      46.169   1.445   8.454  0.00  0.00    +0.000 NA
ENDBRANCH   7   9
ENDBRANCH   1   3
BRANCH   1  15
ATOM     15  C   UNL     1      45.103   7.154  12.225  0.00  0.00    +0.000 C 
BRANCH  15  16
ATOM     16  C   UNL     1      46.585   6.768  12.184  0.00  0.00    +0.000 C 
BRANCH  16  20
ATOM     17  C   UNL     1      47.639   4.169  15.471  0.00  0.00    +0.000 A 
ATOM     18  C   UNL     1      48.065   5.501  15.466  0.00  0.00    +0.000 A 
ATOM     19  C   UNL     1      47.726   6.340  14.398  0.00  0.00    +0.000 A 
ATOM     20  C   UNL     1      46.959   5.856  13.330  0.00  0.00    +0.000 A 
ATOM     21  C   UNL     1      46.574   4.508  13.323  0.00  0.00    +0.000 A 
ATOM     22  C   UNL     1      46.916   3.667  14.387  0.00  0.00    +0.000 A 
BRANCH  17  24
ATOM     23  N   UNL     1      46.934   3.018  17.498  0.00  0.00    +0.000 N 
ATOM     24  C   UNL     1      47.945   3.258  16.606  0.00  0.00    +0.000 C 
ATOM     25  O   UNL     1      49.030   2.705  16.718  0.00  0.00    +0.000 OA
ATOM     26  H   UNL     1      47.110   2.298  18.187  0.00  0.00    +0.000 HD
ATOM     27  H   UNL     1      45.971   3.238  17.288  0.00  0.00    +0.000 HD
ENDBRANCH  17  24
ENDBRANCH  16  20
ENDBRANCH  15  16
ENDBRANCH   1  15
TORSDOF 6
ENDMDL
MODEL 4
REMARK VINA RESULT:    -7.323      3.569      6.967
REMARK INTER + INTRA:         -11.018
REMARK INTER:                 -10.099
REMARK INTRA:                  -0.919
REMARK UNBOUND:                -1.126
REMARK  Name = 
REMARK  6 active torsions:
REMARK  status: ('A' for Active; 'I' for Inactive)
REMARK    1  A    between atoms: C_2  and  C_4
REMARK    2  A    between atoms: C_7  and  C_8
REMARK    3  A    between atoms: C_8  and  C_9
REMARK    4  A    between atoms: C_9  and  N_10
REMARK    5  A    between atoms: N_10  and  C_11
REMARK    6  A    between atoms: C_15  and  C_16
REMARK                            x       y       z     vdW  Elec       q    Type
REMARK                         _______ _______ _______ _____ _____    ______ ____
ROOT
ATOM      1  N   UNL     1      43.407   6.662  11.161  0.00  0.00    +0.000 N 
ATOM      2  H   UNL     1      42.804   6.956  10.395  0.00  0.00    +0.000 HD
ENDROOT
BRANCH   1   3
ATOM      3  C   UNL     1      43.681   5.285  11.079  0.00  0.00    +0.000 A 
ATOM      4  C   UNL     1      43.051   4.337  11.893  0.00  0.00    +0.000 A 
ATOM      5  C   UNL     1      43.300   2.974  11.747  0.00  0.00    +0.000 A 
ATOM      6  C   UNL     1      44.146   2.529  10.736  0.00  0.00    +0.000 A 
ATOM      7  C   UNL     1      44.734   3.428   9.831  0.00  0.00    +0.000 A 
ATOM      8  C   UNL     1      44.497   4.807  10.036  0.00  0.00    +0.000 A 
BRANCH   7   9
ATOM      9  C   UNL     1      45.525   2.937   8.682  0.00  0.00    +0.000 A 
ATOM     10  C   UNL     1      45.879   3.779   7.623  0.00  0.00    +0.000 A 
ATOM     11  C   UNL     1      46.627   3.277   6.562  0.00  0.00    +0.000 A 
ATOM     12  C   UNL     1      47.013   1.946   6.580  0.00  0.00    +0.000 A 
ATOM     13  C   UNL     1      46.635   1.174   7.666  0.00  0.00    +0.000 A 
ATOM     14  N   UNL     1      45.908   1.636   8.712  0.00  0.00    +0.000 NA
ENDBRANCH   7   9
ENDBRANCH   1   3
BRANCH   1  15
ATOM     15  C   UNL     1      44.534   7.574  11.390  0.00  0.00    +0.000 C 
BRANCH  15  16
ATOM     16  C   UNL     1      45.397   7.097  12.562  0.00  0.00    +0.000 C 
BRANCH  16  20
ATOM     17  C   UNL     1      49.571   8.032  11.948  0.00  0.00    +0.000 A 
ATOM     18  C   UNL     1      49.197   6.773  12.429  0.00  0.00    +0.000 A 
ATOM     19  C   UNL     1      47.845   6.474  12.632  0.00  0.00    +0.000 A 
ATOM     20  C   UNL     1      46.857   7.428  12.353  0.00  0.00    +0.000 A 
ATOM     21  C   UNL     1      47.244   8.702  11.914  0.00  0.00    +0.000 A 
ATOM     22  C   UNL     1      48.595   9.004  11.715  0.00  0.00    +0.000 A 
BRANCH  17  24
ATOM     23  N   UNL     1      51.762   7.411  11.087  0.00  0.00    +0.000 N 
ATOM     24  C   UNL     1      50.994   8.374  11.682  0.00  0.00    +0.000 C 
ATOM     25  O   UNL     1      51.451   9.480  11.934  0.00  0.00    +0.000 OA
ATOM     26  H   UNL     1      52.687   7.698  10.792  0.00  0.00    +0.000 HD
ATOM     27  H   UNL     1      51.355   6.607  10.630  0.00  0.00    +0.000 HD
ENDBRANCH  17  24
ENDBRANCH  16  20
ENDBRANCH  15  16
ENDBRANCH   1  15
TORSDOF 6
ENDMDL
MODEL 5
REMARK VINA RESULT:    -7.127      3.112      7.403
REMARK INTER + INTRA:         -10.753
REMARK INTER:                  -9.596
REMARK INTRA:                  -1.156
REMARK UNBOUND:                -1.126
REMARK  Name = 
REMARK  6 active torsions:
REMARK  status: ('A' for Active; 'I' for Inactive)
REMARK    1  A    between atoms: C_2  and  C_4
REMARK    2  A    between atoms: C_7  and  C_8
REMARK    3  A    between atoms: C_8  and  C_9
REMARK    4  A    between atoms: C_9  and  N_10
REMARK    5  A    between atoms: N_10  and  C_11
REMARK    6  A    between atoms: C_15  and  C_16
REMARK                            x       y       z     vdW  Elec       q    Type
REMARK                         _______ _______ _______ _____ _____    ______ ____
ROOT
ATOM      1  N   UNL     1      45.570   3.681  13.355  0.00  0.00    +0.000 N 
ATOM      2  H   UNL     1      44.984   3.113  13.964  0.00  0.00    +0.000 HD
ENDROOT
BRANCH   1   3
ATOM      3  C   UNL     1      44.960   3.856  12.100  0.00  0.00    +0.000 A 
ATOM      4  C   UNL     1      43.857   4.694  11.903  0.00  0.00    +0.000 A 
ATOM      5  C   UNL     1      43.313   4.892  10.636  0.00  0.00    +0.000 A 
ATOM      6  C   UNL     1      43.905   4.296   9.527  0.00  0.00    +0.000 A 
ATOM      7  C   UNL     1      45.069   3.519   9.653  0.00  0.00    +0.000 A 
ATOM      8  C   UNL     1      45.567   3.300  10.957  0.00  0.00    +0.000 A 
BRANCH   7   9
ATOM      9  C   UNL     1      45.764   2.998   8.456  0.00  0.00    +0.000 A 
ATOM     10  C   UNL     1      46.145   1.656   8.357  0.00  0.00    +0.000 A 
ATOM     11  C   UNL     1      46.796   1.206   7.212  0.00  0.00    +0.000 A 
ATOM     12  C   UNL     1      47.048   2.101   6.185  0.00  0.00    +0.000 A 
ATOM     13  C   UNL     1      46.634   3.412   6.348  0.00  0.00    +0.000 A 
ATOM     14  N   UNL     1      45.998   3.878   7.450  0.00  0.00    +0.000 NA
ENDBRANCH   7   9
ENDBRANCH   1   3
BRANCH   1  15
ATOM     15  C   UNL     1      46.119   4.866  14.022  0.00  0.00    +0.000 C 
BRANCH  15  16
ATOM     16  C   UNL     1      47.307   5.436  13.241  0.00  0.00    +0.000 C 
BRANCH  16  20
ATOM     17  C   UNL     1      46.645   9.556  12.117  0.00  0.00    +0.000 A 
ATOM     18  C   UNL     1      45.578   8.771  12.567  0.00  0.00    +0.000 A 
ATOM     19  C   UNL     1      45.794   7.436  12.926  0.00  0.00    +0.000 A 
ATOM     20  C   UNL     1      47.076   6.875  12.841  0.00  0.00    +0.000 A 
ATOM     21  C   UNL     1      48.130   7.657  12.348  0.00  0.00    +0.000 A 
ATOM     22  C   UNL     1      47.915   8.990  11.984  0.00  0.00    +0.000 A 
BRANCH  17  24
ATOM     23  N   UNL     1      45.293  11.581  12.157  0.00  0.00    +0.000 N 
ATOM     24  C   UNL     1      46.463  10.989  11.765  0.00  0.00    +0.000 C 
ATOM     25  O   UNL     1      47.335  11.631  11.195  0.00  0.00    +0.000 OA
ATOM     26  H   UNL     1      45.236  12.583  12.030  0.00  0.00    +0.000 HD
ATOM     27  H   UNL     1      44.687  11.163  12.849  0.00  0.00    +0.000 HD
ENDBRANCH  17  24
ENDBRANCH  16  20
ENDBRANCH  15  16
ENDBRANCH   1  15
TORSDOF 6
ENDMDL
MODEL 6
REMARK VINA RESULT:    -6.662      3.468      8.662
REMARK INTER + INTRA:         -10.124
REMARK INTER:                  -9.496
REMARK INTRA:                  -0.627
REMARK UNBOUND:                -1.126
REMARK  Name = 
REMARK  6 active torsions:
REMARK  status: ('A' for Active; 'I' for Inactive)
REMARK    1  A    between atoms: C_2  and  C_4
REMARK    2  A    between atoms: C_7  and  C_8
REMARK    3  A    between atoms: C_8  and  C_9
REMARK    4  A    between atoms: C_9  and  N_10
REMARK    5  A    between atoms: N_10  and  C_11
REMARK    6  A    between atoms: C_15  and  C_16
REMARK                            x       y       z     vdW  Elec       q    Type
REMARK                         _______ _______ _______ _____ _____    ______ ____
ROOT
ATOM      1  N   UNL     1      45.277   4.681  14.083  0.00  0.00    +0.000 N 
ATOM      2  H   UNL     1      44.858   5.355  14.720  0.00  0.00    +0.000 HD
ENDROOT
BRANCH   1   3
ATOM      3  C   UNL     1      44.609   4.681  12.845  0.00  0.00    +0.000 A 
ATOM      4  C   UNL     1      43.436   5.409  12.618  0.00  0.00    +0.000 A 
ATOM      5  C   UNL     1      42.831   5.437  11.363  0.00  0.00    +0.000 A 
ATOM      6  C   UNL     1      43.426   4.780  10.292  0.00  0.00    +0.000 A 
ATOM      7  C   UNL     1      44.653   4.109  10.440  0.00  0.00    +0.000 A 
ATOM      8  C   UNL     1      45.216   4.062  11.736  0.00  0.00    +0.000 A 
BRANCH   7   9
ATOM      9  C   UNL     1      45.342   3.525   9.270  0.00  0.00    +0.000 A 
ATOM     10  C   UNL     1      45.503   2.143   9.129  0.00  0.00    +0.000 A 
ATOM     11  C   UNL     1      46.156   1.634   8.011  0.00  0.00    +0.000 A 
ATOM     12  C   UNL     1      46.632   2.512   7.050  0.00  0.00    +0.000 A 
ATOM     13  C   UNL     1      46.428   3.868   7.251  0.00  0.00    +0.000 A 
ATOM     14  N   UNL     1      45.795   4.391   8.329  0.00  0.00    +0.000 NA
ENDBRANCH   7   9
ENDBRANCH   1   3
BRANCH   1  15
ATOM     15  C   UNL     1      46.743   4.732  14.072  0.00  0.00    +0.000 C 
BRANCH  15  16
ATOM     16  C   UNL     1      47.341   3.502  14.762  0.00  0.00    +0.000 C 
BRANCH  16  20
ATOM     17  C   UNL     1      48.736   4.412  18.750  0.00  0.00    +0.000 A 
ATOM     18  C   UNL     1      48.483   3.087  18.381  0.00  0.00    +0.000 A 
ATOM     19  C   UNL     1      48.027   2.795  17.090  0.00  0.00    +0.000 A 
ATOM     20  C   UNL     1      47.823   3.822  16.159  0.00  0.00    +0.000 A 
ATOM     21  C   UNL     1      48.037   5.151  16.552  0.00  0.00    +0.000 A 
ATOM     22  C   UNL     1      48.488   5.446  17.842  0.00  0.00    +0.000 A 
BRANCH  17  24
ATOM     23  N   UNL     1      48.575   4.265  21.175  0.00  0.00    +0.000 N 
ATOM     24  C   UNL     1      49.260   4.760  20.098  0.00  0.00    +0.000 C 
ATOM     25  O   UNL     1      50.282   5.414  20.247  0.00  0.00    +0.000 OA
ATOM     26  H   UNL     1      49.011   4.395  22.078  0.00  0.00    +0.000 HD
ATOM     27  H   UNL     1      47.904   3.515  21.085  0.00  0.00    +0.000 HD
ENDBRANCH  17  24
ENDBRANCH  16  20
ENDBRANCH  15  16
ENDBRANCH   1  15
TORSDOF 6
ENDMDL
MODEL 7
REMARK VINA RESULT:    -6.565      2.960      5.170
REMARK INTER + INTRA:          -9.993
REMARK INTER:                  -9.160
REMARK INTRA:                  -0.833
REMARK UNBOUND:                -1.126
REMARK  Name = 
REMARK  6 active torsions:
REMARK  status: ('A' for Active; 'I' for Inactive)
REMARK    1  A    between atoms: C_2  and  C_4
REMARK    2  A    between atoms: C_7  and  C_8
REMARK    3  A    between atoms: C_8  and  C_9
REMARK    4  A    between atoms: C_9  and  N_10
REMARK    5  A    between atoms: N_10  and  C_11
REMARK    6  A    between atoms: C_15  and  C_16
REMARK                            x       y       z     vdW  Elec       q    Type
REMARK                         _______ _______ _______ _____ _____    ______ ____
ROOT
ATOM      1  N   UNL     1      48.282   6.557  15.830  0.00  0.00    +0.000 N 
ATOM      2  H   UNL     1      47.473   7.104  16.118  0.00  0.00    +0.000 HD
ENDROOT
BRANCH   1   3
ATOM      3  C   UNL     1      48.318   5.325  16.509  0.00  0.00    +0.000 A 
ATOM      4  C   UNL     1      47.168   4.572  16.773  0.00  0.00    +0.000 A 
ATOM      5  C   UNL     1      47.244   3.327  17.394  0.00  0.00    +0.000 A 
ATOM      6  C   UNL     1      48.485   2.784  17.711  0.00  0.00    +0.000 A 
ATOM      7  C   UNL     1      49.676   3.455  17.385  0.00  0.00    +0.000 A 
ATOM      8  C   UNL     1      49.563   4.735  16.798  0.00  0.00    +0.000 A 
BRANCH   7   9
ATOM      9  C   UNL     1      50.990   2.814  17.607  0.00  0.00    +0.000 A 
ATOM     10  C   UNL     1      52.085   3.536  18.093  0.00  0.00    +0.000 A 
ATOM     11  C   UNL     1      53.304   2.893  18.290  0.00  0.00    +0.000 A 
ATOM     12  C   UNL     1      53.406   1.542  18.004  0.00  0.00    +0.000 A 
ATOM     13  C   UNL     1      52.279   0.889  17.535  0.00  0.00    +0.000 A 
ATOM     14  N   UNL     1      51.080   1.488  17.335  0.00  0.00    +0.000 NA
ENDBRANCH   7   9
ENDBRANCH   1   3
BRANCH   1  15
ATOM     15  C   UNL     1      48.484   6.546  14.377  0.00  0.00    +0.000 C 
BRANCH  15  16
ATOM     16  C   UNL     1      47.285   7.165  13.651  0.00  0.00    +0.000 C 
BRANCH  16  20
ATOM     17  C   UNL     1      44.999   4.174  11.528  0.00  0.00    +0.000 A 
ATOM     18  C   UNL     1      45.453   5.315  10.860  0.00  0.00    +0.000 A 
ATOM     19  C   UNL     1      46.189   6.285  11.550  0.00  0.00    +0.000 A 
ATOM     20  C   UNL     1      46.479   6.121  12.911  0.00  0.00    +0.000 A 
ATOM     21  C   UNL     1      45.982   4.996  13.583  0.00  0.00    +0.000 A 
ATOM     22  C   UNL     1      45.242   4.028  12.896  0.00  0.00    +0.000 A 
BRANCH  17  24
ATOM     23  N   UNL     1      44.935   2.379   9.884  0.00  0.00    +0.000 N 
ATOM     24  C   UNL     1      44.248   3.103  10.821  0.00  0.00    +0.000 C 
ATOM     25  O   UNL     1      43.084   2.841  11.091  0.00  0.00    +0.000 OA
ATOM     26  H   UNL     1      44.457   1.572   9.506  0.00  0.00    +0.000 HD
ATOM     27  H   UNL     1      45.944   2.389   9.834  0.00  0.00    +0.000 HD
ENDBRANCH  17  24
ENDBRANCH  16  20
ENDBRANCH  15  16
ENDBRANCH   1  15
TORSDOF 6
ENDMDL
MODEL 8
REMARK VINA RESULT:    -6.556      3.185      6.976
REMARK INTER + INTRA:          -9.981
REMARK INTER:                  -8.911
REMARK INTRA:                  -1.069
REMARK UNBOUND:                -1.126
REMARK  Name = 
REMARK  6 active torsions:
REMARK  status: ('A' for Active; 'I' for Inactive)
REMARK    1  A    between atoms: C_2  and  C_4
REMARK    2  A    between atoms: C_7  and  C_8
REMARK    3  A    between atoms: C_8  and  C_9
REMARK    4  A    between atoms: C_9  and  N_10
REMARK    5  A    between atoms: N_10  and  C_11
REMARK    6  A    between atoms: C_15  and  C_16
REMARK                            x       y       z     vdW  Elec       q    Type
REMARK                         _______ _______ _______ _____ _____    ______ ____
ROOT
ATOM      1  N   UNL     1      45.428   4.242  13.989  0.00  0.00    +0.000 N 
ATOM      2  H   UNL     1      44.996   4.846  14.685  0.00  0.00    +0.000 HD
ENDROOT
BRANCH   1   3
ATOM      3  C   UNL     1      44.766   4.353  12.753  0.00  0.00    +0.000 A 
ATOM      4  C   UNL     1      43.647   5.172  12.563  0.00  0.00    +0.000 A 
ATOM      5  C   UNL     1      43.051   5.307  11.311  0.00  0.00    +0.000 A 
ATOM      6  C   UNL     1      43.602   4.665  10.208  0.00  0.00    +0.000 A 
ATOM      7  C   UNL     1      44.778   3.904  10.321  0.00  0.00    +0.000 A 
ATOM      8  C   UNL     1      45.332   3.750  11.613  0.00  0.00    +0.000 A 
BRANCH   7   9
ATOM      9  C   UNL     1      45.429   3.334   9.123  0.00  0.00    +0.000 A 
ATOM     10  C   UNL     1      45.857   4.145   8.066  0.00  0.00    +0.000 A 
ATOM     11  C   UNL     1      46.468   3.568   6.956  0.00  0.00    +0.000 A 
ATOM     12  C   UNL     1      46.647   2.195   6.924  0.00  0.00    +0.000 A 
ATOM     13  C   UNL     1      46.208   1.456   8.010  0.00  0.00    +0.000 A 
ATOM     14  N   UNL     1      45.611   1.990   9.103  0.00  0.00    +0.000 NA
ENDBRANCH   7   9
ENDBRANCH   1   3
BRANCH   1  15
ATOM     15  C   UNL     1      46.893   4.313  13.992  0.00  0.00    +0.000 C 
BRANCH  15  16
ATOM     16  C   UNL     1      47.382   5.556  14.741  0.00  0.00    +0.000 C 
BRANCH  16  20
ATOM     17  C   UNL     1      49.519   8.266  12.139  0.00  0.00    +0.000 A 
ATOM     18  C   UNL     1      48.400   7.574  11.665  0.00  0.00    +0.000 A 
ATOM     19  C   UNL     1      47.712   6.693  12.508  0.00  0.00    +0.000 A 
ATOM     20  C   UNL     1      48.134   6.499  13.830  0.00  0.00    +0.000 A 
ATOM     21  C   UNL     1      49.283   7.164  14.283  0.00  0.00    +0.000 A 
ATOM     22  C   UNL     1      49.974   8.040  13.441  0.00  0.00    +0.000 A 
BRANCH  17  24
ATOM     23  N   UNL     1      51.489   8.861  10.838  0.00  0.00    +0.000 N 
ATOM     24  C   UNL     1      50.252   9.239  11.287  0.00  0.00    +0.000 C 
ATOM     25  O   UNL     1      49.761  10.309  10.957  0.00  0.00    +0.000 OA
ATOM     26  H   UNL     1      51.921   9.471  10.156  0.00  0.00    +0.000 HD
ATOM     27  H   UNL     1      51.799   7.900  10.868  0.00  0.00    +0.000 HD
ENDBRANCH  17  24
ENDBRANCH  16  20
ENDBRANCH  15  16
ENDBRANCH   1  15
TORSDOF 6
ENDMDL
MODEL 9
REMARK VINA RESULT:    -6.299      3.126      4.726
REMARK INTER + INTRA:          -9.634
REMARK INTER:                  -8.246
REMARK INTRA:                  -1.388
REMARK UNBOUND:                -1.126
REMARK  Name = 
REMARK  6 active torsions:
REMARK  status: ('A' for Active; 'I' for Inactive)
REMARK    1  A    between atoms: C_2  and  C_4
REMARK    2  A    between atoms: C_7  and  C_8
REMARK    3  A    between atoms: C_8  and  C_9
REMARK    4  A    between atoms: C_9  and  N_10
REMARK    5  A    between atoms: N_10  and  C_11
REMARK    6  A    between atoms: C_15  and  C_16
REMARK                            x       y       z     vdW  Elec       q    Type
REMARK                         _______ _______ _______ _____ _____    ______ ____
ROOT
ATOM      1  N   UNL     1      49.687   8.368  12.916  0.00  0.00    +0.000 N 
ATOM      2  H   UNL     1      49.714   9.354  12.665  0.00  0.00    +0.000 HD
ENDROOT
BRANCH   1   3
ATOM      3  C   UNL     1      49.355   8.209  14.274  0.00  0.00    +0.000 A 
ATOM      4  C   UNL     1      48.916   9.269  15.076  0.00  0.00    +0.000 A 
ATOM      5  C   UNL     1      48.537   9.066  16.402  0.00  0.00    +0.000 A 
ATOM      6  C   UNL     1      48.535   7.781  16.934  0.00  0.00    +0.000 A 
ATOM      7  C   UNL     1      48.878   6.668  16.148  0.00  0.00    +0.000 A 
ATOM      8  C   UNL     1      49.301   6.913  14.822  0.00  0.00    +0.000 A 
BRANCH   7   9
ATOM      9  C   UNL     1      48.748   5.296  16.682  0.00  0.00    +0.000 A 
ATOM     10  C   UNL     1      47.505   4.659  16.773  0.00  0.00    +0.000 A 
ATOM     11  C   UNL     1      47.427   3.366  17.280  0.00  0.00    +0.000 A 
ATOM     12  C   UNL     1      48.590   2.728  17.682  0.00  0.00    +0.000 A 
ATOM     13  C   UNL     1      49.785   3.416  17.554  0.00  0.00    +0.000 A 
ATOM     14  N   UNL     1      49.892   4.674  17.064  0.00  0.00    +0.000 NA
ENDBRANCH   7   9
ENDBRANCH   1   3
BRANCH   1  15
ATOM     15  C   UNL     1      48.977   7.541  11.935  0.00  0.00    +0.000 C 
BRANCH  15  16
ATOM     16  C   UNL     1      47.495   7.922  11.864  0.00  0.00    +0.000 C 
BRANCH  16  20
ATOM     17  C   UNL     1      44.957   4.425  11.963  0.00  0.00    +0.000 A 
ATOM     18  C   UNL     1      45.256   5.040  10.744  0.00  0.00    +0.000 A 
ATOM     19  C   UNL     1      46.074   6.175  10.714  0.00  0.00    +0.000 A 
ATOM     20  C   UNL     1      46.602   6.702  11.901  0.00  0.00    +0.000 A 
ATOM     21  C   UNL     1      46.261   6.105  13.123  0.00  0.00    +0.000 A 
ATOM     22  C   UNL     1      45.439   4.973  13.155  0.00  0.00    +0.000 A 
BRANCH  17  24
ATOM     23  N   UNL     1      44.002   2.463  10.881  0.00  0.00    +0.000 N 
ATOM     24  C   UNL     1      44.124   3.195  12.032  0.00  0.00    +0.000 C 
ATOM     25  O   UNL     1      43.609   2.819  13.076  0.00  0.00    +0.000 OA
ATOM     26  H   UNL     1      43.546   1.565  10.971  0.00  0.00    +0.000 HD
ATOM     27  H   UNL     1      44.621   2.596  10.094  0.00  0.00    +0.000 HD
ENDBRANCH  17  24
ENDBRANCH  16  20
ENDBRANCH  15  16
ENDBRANCH   1  15
TORSDOF 6
ENDMDL
