MODEL 1
REMARK VINA RESULT:    -8.173      0.000      0.000
REMARK INTER + INTRA:         -10.148
REMARK INTER:                  -9.606
REMARK INTRA:                  -0.542
REMARK UNBOUND:                -0.542
REMARK  Name = 
REMARK  3 active torsions:
REMARK  status: ('A' for Active; 'I' for Inactive)
REMARK    1  A    between atoms: C_2  and  C_11
REMARK    2  A    between atoms: N_3  and  C_4
REMARK    3  A    between atoms: C_4  and  C_5
REMARK                            x       y       z     vdW  Elec       q    Type
REMARK                         _______ _______ _______ _____ _____    ______ ____
ROOT
ATOM      1  O   UNL     1      43.487   4.911  10.989  0.00  0.00    +0.000 OA
ATOM      2  C   UNL     1      44.676   5.033  10.704  0.00  0.00    +0.000 C 
ATOM      3  N   UNL     1      45.211   4.576   9.529  0.00  0.00    +0.000 N 
ATOM      4  H   UNL     1      46.186   4.745   9.322  0.00  0.00    +0.000 HD
ENDROOT
BRANCH   2   5
ATOM      5  C   UNL     1      45.633   5.642  11.627  0.00  0.00    +0.000 A 
ATOM      6  C   UNL     1      46.044   6.958  11.460  0.00  0.00    +0.000 A 
ATOM      7  S   UNL     1      47.115   7.491  12.678  0.00  0.00    +0.000 S 
ATOM      8  C   UNL     1      47.088   5.974  13.446  0.00  0.00    +0.000 A 
ATOM      9  N   UNL     1      47.794   5.745  14.591  0.00  0.00    +0.000 NA
ATOM     10  C   UNL     1      47.677   4.548  15.059  0.00  0.00    +0.000 A 
ATOM     11  N   UNL     1      46.929   3.550  14.486  0.00  0.00    +0.000 N 
ATOM     12  C   UNL     1      46.216   3.726  13.332  0.00  0.00    +0.000 A 
ATOM     13  O   UNL     1      45.557   2.807  12.855  0.00  0.00    +0.000 OA
ATOM     14  C   UNL     1      46.284   5.070  12.779  0.00  0.00    +0.000 A 
ATOM     15  H   UNL     1      46.876   2.634  14.903  0.00  0.00    +0.000 HD
ENDBRANCH   2   5
BRANCH   3  16
ATOM     16  C   UNL     1      44.427   4.008   8.463  0.00  0.00    +0.000 C 
BRANCH  16  17
ATOM     17  C   UNL     1      45.233   2.987   7.655  0.00  0.00    +0.000 C 
ATOM     18  C   UNL     1      45.737   1.838   8.547  0.00  0.00    +0.000 C 
ATOM     19  C   UNL     1      46.599   0.855   7.761  0.00  0.00    +0.000 C 
ATOM     20  C   UNL     1      47.763   1.564   7.079  0.00  0.00    +0.000 C 
ATOM     21  C   UNL     1      47.276   2.700   6.186  0.00  0.00    +0.000 C 
ATOM     22  C   UNL     1      46.406   3.687   6.958  0.00  0.00    +0.000 C 
ENDBRANCH  16  17
ENDBRANCH   3  16
TORSDOF 3
ENDMDL
MODEL 2
REMARK VINA RESULT:    -7.855      1.752      2.755
REMARK INTER + INTRA:          -9.775
REMARK INTER:                  -9.139
REMARK INTRA:                  -0.636
REMARK UNBOUND:                -0.542
REMARK  Name = 
REMARK  3 active torsions:
REMARK  status: ('A' for Active; 'I' for Inactive)
REMARK    1  A    between atoms: C_2  and  C_11
REMARK    2  A    between atoms: N_3  and  C_4
REMARK    3  A    between atoms: C_4  and  C_5
REMARK                            x       y       z     vdW  Elec       q    Type
REMARK                         _______ _______ _______ _____ _____    ______ ____
ROOT
ATOM      1  O   UNL     1      44.116   2.794  12.480  0.00  0.00    +0.000 OA
ATOM      2  C   UNL     1      44.847   3.566  11.865  0.00  0.00    +0.000 C 
ATOM      3  N   UNL     1      45.078   3.461  10.519  0.00  0.00    +0.000 N 
ATOM      4  H   UNL     1      45.649   4.152  10.052  0.00  0.00    +0.000 HD
ENDROOT
BRANCH   2   5
ATOM      5  C   UNL     1      45.572   4.644  12.537  0.00  0.00    +0.000 A 
ATOM      6  C   UNL     1      46.619   4.364  13.405  0.00  0.00    +0.000 A 
ATOM      7  S   UNL     1      47.368   5.763  14.034  0.00  0.00    +0.000 S 
ATOM      8  C   UNL     1      46.300   6.784  13.191  0.00  0.00    +0.000 A 
ATOM      9  N   UNL     1      46.402   8.142  13.274  0.00  0.00    +0.000 NA
ATOM     10  C   UNL     1      45.523   8.786  12.581  0.00  0.00    +0.000 A 
ATOM     11  N   UNL     1      44.542   8.202  11.820  0.00  0.00    +0.000 N 
ATOM     12  C   UNL     1      44.390   6.846  11.717  0.00  0.00    +0.000 A 
ATOM     13  O   UNL     1      43.500   6.365  11.022  0.00  0.00    +0.000 OA
ATOM     14  C   UNL     1      45.377   6.070  12.451  0.00  0.00    +0.000 A 
ATOM     15  H   UNL     1      43.886   8.761  11.298  0.00  0.00    +0.000 HD
ENDBRANCH   2   5
BRANCH   3  16
ATOM     16  C   UNL     1      44.410   2.511   9.667  0.00  0.00    +0.000 C 
BRANCH  16  17
ATOM     17  C   UNL     1      45.125   2.363   8.321  0.00  0.00    +0.000 C 
ATOM     18  C   UNL     1      46.163   1.228   8.358  0.00  0.00    +0.000 C 
ATOM     19  C   UNL     1      46.928   1.123   7.042  0.00  0.00    +0.000 C 
ATOM     20  C   UNL     1      47.585   2.449   6.678  0.00  0.00    +0.000 C 
ATOM     21  C   UNL     1      46.564   3.581   6.630  0.00  0.00    +0.000 C 
ATOM     22  C   UNL     1      45.788   3.693   7.938  0.00  0.00    +0.000 C 
ENDBRANCH  16  17
ENDBRANCH   3  16
TORSDOF 3
ENDMDL
MODEL 3
REMARK VINA RESULT:    -7.187      1.451      1.841
REMARK INTER + INTRA:          -8.990
REMARK INTER:                  -8.756
REMARK INTRA:                  -0.234
REMARK UNBOUND:                -0.542
REMARK  Name = 
REMARK  3 active torsions:
REMARK  status: ('A' for Active; 'I' for Inactive)
REMARK    1  A    between atoms: C_2  and  C_11
REMARK    2  A    between atoms: N_3  and  C_4
REMARK    3  A    between atoms: C_4  and  C_5
REMARK                            x       y       z     vdW  Elec       q    Type
REMARK                         _______ _______ _______ _____ _____    ______ ____
ROOT
ATOM      1  O   UNL     1      45.065   3.437  12.352  0.00  0.00    +0.000 OA
ATOM      2  C   UNL     1      45.098   4.328  11.508  0.00  0.00    +0.000 C 
ATOM      3  N   UNL     1      44.906   4.097  10.172  0.00  0.00    +0.000 N 
ATOM      4  H   UNL     1      44.895   4.873   9.524  0.00  0.00    +0.000 HD
ENDROOT
BRANCH   2   5
ATOM      5  C   UNL     1      45.395   5.717  11.861  0.00  0.00    +0.000 A 
ATOM      6  C   UNL     1      44.699   6.764  11.272  0.00  0.00    +0.000 A 
ATOM      7  S   UNL     1      45.157   8.298  11.867  0.00  0.00    +0.000 S 
ATOM      8  C   UNL     1      46.318   7.613  12.904  0.00  0.00    +0.000 A 
ATOM      9  N   UNL     1      47.075   8.389  13.732  0.00  0.00    +0.000 NA
ATOM     10  C   UNL     1      47.914   7.730  14.460  0.00  0.00    +0.000 A 
ATOM     11  N   UNL     1      48.077   6.368  14.432  0.00  0.00    +0.000 N 
ATOM     12  C   UNL     1      47.352   5.550  13.609  0.00  0.00    +0.000 A 
ATOM     13  O   UNL     1      47.528   4.335  13.619  0.00  0.00    +0.000 OA
ATOM     14  C   UNL     1      46.366   6.237  12.791  0.00  0.00    +0.000 A 
ATOM     15  H   UNL     1      48.749   5.912  15.029  0.00  0.00    +0.000 HD
ENDBRANCH   2   5
BRANCH   3  16
ATOM     16  C   UNL     1      44.538   2.814   9.630  0.00  0.00    +0.000 C 
BRANCH  16  17
ATOM     17  C   UNL     1      45.229   2.551   8.289  0.00  0.00    +0.000 C 
ATOM     18  C   UNL     1      46.189   1.351   8.379  0.00  0.00    +0.000 C 
ATOM     19  C   UNL     1      46.934   1.128   7.066  0.00  0.00    +0.000 C 
ATOM     20  C   UNL     1      47.676   2.386   6.631  0.00  0.00    +0.000 C 
ATOM     21  C   UNL     1      46.734   3.582   6.531  0.00  0.00    +0.000 C 
ATOM     22  C   UNL     1      45.978   3.812   7.836  0.00  0.00    +0.000 C 
ENDBRANCH  16  17
ENDBRANCH   3  16
TORSDOF 3
ENDMDL
MODEL 4
REMARK VINA RESULT:    -6.941      2.564      4.152
REMARK INTER + INTRA:          -8.701
REMARK INTER:                  -8.409
REMARK INTRA:                  -0.292
REMARK UNBOUND:                -0.542
REMARK  Name = 
REMARK  3 active torsions:
REMARK  status: ('A' for Active; 'I' for Inactive)
REMARK    1  A    between atoms: C_2  and  C_11
REMARK    2  A    between atoms: N_3  and  C_4
REMARK    3  A    between atoms: C_4  and  C_5
REMARK                            x       y       z     vdW  Elec       q    Type
REMARK                         _______ _______ _______ _____ _____    ______ ____
ROOT
ATOM      1  O   UNL     1      46.937   3.169  13.877  0.00  0.00    +0.000 OA
ATOM      2  C   UNL     1      46.659   4.332  14.159  0.00  0.00    +0.000 C 
ATOM      3  N   UNL     1      45.553   4.974  13.668  0.00  0.00    +0.000 N 
ATOM      4  H   UNL     1      45.343   5.915  13.970  0.00  0.00    +0.000 HD
ENDROOT
BRANCH   2   5
ATOM      5  C   UNL     1      47.520   5.147  15.015  0.00  0.00    +0.000 A 
ATOM      6  C   UNL     1      48.247   6.207  14.489  0.00  0.00    +0.000 A 
ATOM      7  S   UNL     1      49.139   7.064  15.666  0.00  0.00    +0.000 S 
ATOM      8  C   UNL     1      48.607   6.029  16.906  0.00  0.00    +0.000 A 
ATOM      9  N   UNL     1      48.992   6.218  18.201  0.00  0.00    +0.000 NA
ATOM     10  C   UNL     1      48.510   5.354  19.031  0.00  0.00    +0.000 A 
ATOM     11  N   UNL     1      47.687   4.311  18.690  0.00  0.00    +0.000 N 
ATOM     12  C   UNL     1      47.286   4.072  17.403  0.00  0.00    +0.000 A 
ATOM     13  O   UNL     1      46.545   3.129  17.142  0.00  0.00    +0.000 OA
ATOM     14  C   UNL     1      47.772   5.037  16.430  0.00  0.00    +0.000 A 
ATOM     15  H   UNL     1      47.340   3.670  19.387  0.00  0.00    +0.000 HD
ENDBRANCH   2   5
BRANCH   3  16
ATOM     16  C   UNL     1      44.548   4.328  12.864  0.00  0.00    +0.000 C 
BRANCH  16  17
ATOM     17  C   UNL     1      45.062   4.032  11.452  0.00  0.00    +0.000 C 
ATOM     18  C   UNL     1      45.154   5.316  10.608  0.00  0.00    +0.000 C 
ATOM     19  C   UNL     1      45.598   5.017   9.179  0.00  0.00    +0.000 C 
ATOM     20  C   UNL     1      44.680   3.997   8.517  0.00  0.00    +0.000 C 
ATOM     21  C   UNL     1      44.585   2.716   9.341  0.00  0.00    +0.000 C 
ATOM     22  C   UNL     1      44.148   3.002  10.774  0.00  0.00    +0.000 C 
ENDBRANCH  16  17
ENDBRANCH   3  16
TORSDOF 3
ENDMDL
MODEL 5
REMARK VINA RESULT:    -6.860      3.425      6.919
REMARK INTER + INTRA:          -8.605
REMARK INTER:                  -8.034
REMARK INTRA:                  -0.571
REMARK UNBOUND:                -0.542
REMARK  Name = 
REMARK  3 active torsions:
REMARK  status: ('A' for Active; 'I' for Inactive)
REMARK    1  A    between atoms: C_2  and  C_11
REMARK    2  A    between atoms: N_3  and  C_4
REMARK    3  A    between atoms: C_4  and  C_5
REMARK                            x       y       z     vdW  Elec       q    Type
REMARK                         _______ _______ _______ _____ _____    ______ ____
ROOT
ATOM      1  O   UNL     1      48.882   6.149  12.931  0.00  0.00    +0.000 OA
ATOM      2  C   UNL     1      47.802   6.250  13.508  0.00  0.00    +0.000 C 
ATOM      3  N   UNL     1      47.694   6.435  14.861  0.00  0.00    +0.000 N 
ATOM      4  H   UNL     1      46.783   6.561  15.280  0.00  0.00    +0.000 HD
ENDROOT
BRANCH   2   5
ATOM      5  C   UNL     1      46.530   6.132  12.795  0.00  0.00    +0.000 A 
ATOM      6  C   UNL     1      45.915   7.252  12.250  0.00  0.00    +0.000 A 
ATOM      7  S   UNL     1      44.474   6.888  11.409  0.00  0.00    +0.000 S 
ATOM      8  C   UNL     1      44.612   5.232  11.773  0.00  0.00    +0.000 A 
ATOM      9  N   UNL     1      43.693   4.328  11.326  0.00  0.00    +0.000 NA
ATOM     10  C   UNL     1      43.928   3.110  11.681  0.00  0.00    +0.000 A 
ATOM     11  N   UNL     1      44.990   2.706  12.450  0.00  0.00    +0.000 N 
ATOM     12  C   UNL     1      45.930   3.576  12.933  0.00  0.00    +0.000 A 
ATOM     13  O   UNL     1      46.867   3.172  13.615  0.00  0.00    +0.000 OA
ATOM     14  C   UNL     1      45.733   4.960  12.534  0.00  0.00    +0.000 A 
ATOM     15  H   UNL     1      45.120   1.736  12.691  0.00  0.00    +0.000 HD
ENDBRANCH   2   5
BRANCH   3  16
ATOM     16  C   UNL     1      48.824   6.641  15.730  0.00  0.00    +0.000 C 
BRANCH  16  17
ATOM     17  C   UNL     1      48.822   5.652  16.899  0.00  0.00    +0.000 C 
ATOM     18  C   UNL     1      50.226   5.072  17.146  0.00  0.00    +0.000 C 
ATOM     19  C   UNL     1      50.216   4.033  18.263  0.00  0.00    +0.000 C 
ATOM     20  C   UNL     1      49.212   2.923  17.976  0.00  0.00    +0.000 C 
ATOM     21  C   UNL     1      47.814   3.485  17.737  0.00  0.00    +0.000 C 
ATOM     22  C   UNL     1      47.812   4.530  16.626  0.00  0.00    +0.000 C 
ENDBRANCH  16  17
ENDBRANCH   3  16
TORSDOF 3
ENDMDL
MODEL 6
REMARK VINA RESULT:    -6.783      3.936      7.129
REMARK INTER + INTRA:          -8.515
REMARK INTER:                  -8.010
REMARK INTRA:                  -0.505
REMARK UNBOUND:                -0.542
REMARK  Name = 
REMARK  3 active torsions:
REMARK  status: ('A' for Active; 'I' for Inactive)
REMARK    1  A    between atoms: C_2  and  C_11
REMARK    2  A    between atoms: N_3  and  C_4
REMARK    3  A    between atoms: C_4  and  C_5
REMARK                            x       y       z     vdW  Elec       q    Type
REMARK                         _______ _______ _______ _____ _____    ______ ____
ROOT
ATOM      1  O   UNL     1      47.301   3.138  14.022  0.00  0.00    +0.000 OA
ATOM      2  C   UNL     1      46.899   4.195  14.501  0.00  0.00    +0.000 C 
ATOM      3  N   UNL     1      46.796   4.411  15.850  0.00  0.00    +0.000 N 
ATOM      4  H   UNL     1      46.506   5.316  16.193  0.00  0.00    +0.000 HD
ENDROOT
BRANCH   2   5
ATOM      5  C   UNL     1      46.450   5.304  13.660  0.00  0.00    +0.000 A 
ATOM      6  C   UNL     1      47.261   6.412  13.451  0.00  0.00    +0.000 A 
ATOM      7  S   UNL     1      46.575   7.561  12.391  0.00  0.00    +0.000 S 
ATOM      8  C   UNL     1      45.164   6.630  12.203  0.00  0.00    +0.000 A 
ATOM      9  N   UNL     1      44.147   7.039  11.391  0.00  0.00    +0.000 NA
ATOM     10  C   UNL     1      43.141   6.231  11.348  0.00  0.00    +0.000 A 
ATOM     11  N   UNL     1      43.048   5.056  12.049  0.00  0.00    +0.000 N 
ATOM     12  C   UNL     1      44.034   4.610  12.887  0.00  0.00    +0.000 A 
ATOM     13  O   UNL     1      43.911   3.550  13.493  0.00  0.00    +0.000 OA
ATOM     14  C   UNL     1      45.208   5.467  12.946  0.00  0.00    +0.000 A 
ATOM     15  H   UNL     1      42.234   4.465  11.971  0.00  0.00    +0.000 HD
ENDBRANCH   2   5
BRANCH   3  16
ATOM     16  C   UNL     1      47.247   3.472  16.844  0.00  0.00    +0.000 C 
BRANCH  16  17
ATOM     17  C   UNL     1      48.541   3.941  17.516  0.00  0.00    +0.000 C 
ATOM     18  C   UNL     1      48.943   5.348  17.036  0.00  0.00    +0.000 C 
ATOM     19  C   UNL     1      50.268   5.791  17.648  0.00  0.00    +0.000 C 
ATOM     20  C   UNL     1      51.374   4.783  17.362  0.00  0.00    +0.000 C 
ATOM     21  C   UNL     1      50.991   3.386  17.839  0.00  0.00    +0.000 C 
ATOM     22  C   UNL     1      49.664   2.933  17.239  0.00  0.00    +0.000 C 
ENDBRANCH  16  17
ENDBRANCH   3  16
TORSDOF 3
ENDMDL
MODEL 7
REMARK VINA RESULT:    -6.482      3.280      7.767
REMARK INTER + INTRA:          -8.161
REMARK INTER:                  -7.599
REMARK INTRA:                  -0.561
REMARK UNBOUND:                -0.542
REMARK  Name = 
REMARK  3 active torsions:
REMARK  status: ('A' for Active; 'I' for Inactive)
REMARK    1  A    between atoms: C_2  and  C_11
REMARK    2  A    between atoms: N_3  and  C_4
REMARK    3  A    between atoms: C_4  and  C_5
REMARK                            x       y       z     vdW  Elec       q    Type
REMARK                         _______ _______ _______ _____ _____    ______ ____
ROOT
ATOM      1  O   UNL     1      49.178   6.656  13.626  0.00  0.00    +0.000 OA
ATOM      2  C   UNL     1      48.067   6.339  14.043  0.00  0.00    +0.000 C 
ATOM      3  N   UNL     1      47.825   6.018  15.352  0.00  0.00    +0.000 N 
ATOM      4  H   UNL     1      46.883   5.812  15.654  0.00  0.00    +0.000 HD
ENDROOT
BRANCH   2   5
ATOM      5  C   UNL     1      46.909   6.233  13.155  0.00  0.00    +0.000 A 
ATOM      6  C   UNL     1      46.368   7.363  12.555  0.00  0.00    +0.000 A 
ATOM      7  S   UNL     1      45.063   7.012  11.511  0.00  0.00    +0.000 S 
ATOM      8  C   UNL     1      45.161   5.349  11.852  0.00  0.00    +0.000 A 
ATOM      9  N   UNL     1      44.320   4.452  11.260  0.00  0.00    +0.000 NA
ATOM     10  C   UNL     1      44.512   3.226  11.616  0.00  0.00    +0.000 A 
ATOM     11  N   UNL     1      45.458   2.809  12.518  0.00  0.00    +0.000 N 
ATOM     12  C   UNL     1      46.314   3.672  13.149  0.00  0.00    +0.000 A 
ATOM     13  O   UNL     1      47.149   3.256  13.946  0.00  0.00    +0.000 OA
ATOM     14  C   UNL     1      46.165   5.064  12.757  0.00  0.00    +0.000 A 
ATOM     15  H   UNL     1      45.561   1.834  12.753  0.00  0.00    +0.000 HD
ENDBRANCH   2   5
BRANCH   3  16
ATOM     16  C   UNL     1      48.814   6.124  16.394  0.00  0.00    +0.000 C 
BRANCH  16  17
ATOM     17  C   UNL     1      48.316   5.513  17.707  0.00  0.00    +0.000 C 
ATOM     18  C   UNL     1      48.359   6.537  18.855  0.00  0.00    +0.000 C 
ATOM     19  C   UNL     1      47.931   5.914  20.180  0.00  0.00    +0.000 C 
ATOM     20  C   UNL     1      48.774   4.689  20.512  0.00  0.00    +0.000 C 
ATOM     21  C   UNL     1      48.734   3.662  19.385  0.00  0.00    +0.000 C 
ATOM     22  C   UNL     1      49.154   4.275  18.053  0.00  0.00    +0.000 C 
ENDBRANCH  16  17
ENDBRANCH   3  16
TORSDOF 3
ENDMDL
MODEL 8
REMARK VINA RESULT:    -6.240      3.365      4.595
REMARK INTER + INTRA:          -7.877
REMARK INTER:                  -7.080
REMARK INTRA:                  -0.796
REMARK UNBOUND:                -0.542
REMARK  Name = 
REMARK  3 active torsions:
REMARK  status: ('A' for Active; 'I' for Inactive)
REMARK    1  A    between atoms: C_2  and  C_11
REMARK    2  A    between atoms: N_3  and  C_4
REMARK    3  A    between atoms: C_4  and  C_5
REMARK                            x       y       z     vdW  Elec       q    Type
REMARK                         _______ _______ _______ _____ _____    ______ ____
ROOT
ATOM      1  O   UNL     1      48.520   6.919  12.200  0.00  0.00    +0.000 OA
ATOM      2  C   UNL     1      47.756   6.845  13.159  0.00  0.00    +0.000 C 
ATOM      3  N   UNL     1      46.406   7.050  13.054  0.00  0.00    +0.000 N 
ATOM      4  H   UNL     1      45.814   6.929  13.865  0.00  0.00    +0.000 HD
ENDROOT
BRANCH   2   5
ATOM      5  C   UNL     1      48.239   6.575  14.513  0.00  0.00    +0.000 A 
ATOM      6  C   UNL     1      49.124   7.443  15.139  0.00  0.00    +0.000 A 
ATOM      7  S   UNL     1      49.513   6.976  16.735  0.00  0.00    +0.000 S 
ATOM      8  C   UNL     1      48.538   5.587  16.627  0.00  0.00    +0.000 A 
ATOM      9  N   UNL     1      48.405   4.730  17.681  0.00  0.00    +0.000 NA
ATOM     10  C   UNL     1      47.634   3.720  17.453  0.00  0.00    +0.000 A 
ATOM     11  N   UNL     1      46.989   3.477  16.266  0.00  0.00    +0.000 N 
ATOM     12  C   UNL     1      47.102   4.298  15.177  0.00  0.00    +0.000 A 
ATOM     13  O   UNL     1      46.505   4.045  14.136  0.00  0.00    +0.000 OA
ATOM     14  C   UNL     1      47.933   5.473  15.390  0.00  0.00    +0.000 A 
ATOM     15  H   UNL     1      46.396   2.670  16.151  0.00  0.00    +0.000 HD
ENDBRANCH   2   5
BRANCH   3  16
ATOM     16  C   UNL     1      45.727   7.263  11.802  0.00  0.00    +0.000 C 
BRANCH  16  17
ATOM     17  C   UNL     1      44.564   6.284  11.619  0.00  0.00    +0.000 C 
ATOM     18  C   UNL     1      44.042   5.774  12.974  0.00  0.00    +0.000 C 
ATOM     19  C   UNL     1      42.930   4.744  12.796  0.00  0.00    +0.000 C 
ATOM     20  C   UNL     1      43.386   3.585  11.919  0.00  0.00    +0.000 C 
ATOM     21  C   UNL     1      43.900   4.076  10.569  0.00  0.00    +0.000 C 
ATOM     22  C   UNL     1      45.008   5.112  10.733  0.00  0.00    +0.000 C 
ENDBRANCH  16  17
ENDBRANCH   3  16
TORSDOF 3
ENDMDL
MODEL 9
REMARK VINA RESULT:    -6.145      2.867      6.181
REMARK INTER + INTRA:          -7.765
REMARK INTER:                  -7.186
REMARK INTRA:                  -0.579
REMARK UNBOUND:                -0.542
REMARK  Name = 
REMARK  3 active torsions:
REMARK  status: ('A' for Active; 'I' for Inactive)
REMARK    1  A    between atoms: C_2  and  C_11
REMARK    2  A    between atoms: N_3  and  C_4
REMARK    3  A    between atoms: C_4  and  C_5
REMARK                            x       y       z     vdW  Elec       q    Type
REMARK                         _______ _______ _______ _____ _____    ______ ____
ROOT
ATOM      1  O   UNL     1      44.074   7.530  11.176  0.00  0.00    +0.000 OA
ATOM      2  C   UNL     1      44.698   6.636  11.742  0.00  0.00    +0.000 C 
ATOM      3  N   UNL     1      45.720   6.881  12.620  0.00  0.00    +0.000 N 
ATOM      4  H   UNL     1      46.169   6.112  13.096  0.00  0.00    +0.000 HD
ENDROOT
BRANCH   2   5
ATOM      5  C   UNL     1      44.426   5.221  11.487  0.00  0.00    +0.000 A 
ATOM      6  C   UNL     1      43.705   4.460  12.397  0.00  0.00    +0.000 A 
ATOM      7  S   UNL     1      43.448   2.854  11.880  0.00  0.00    +0.000 S 
ATOM      8  C   UNL     1      44.317   3.117  10.442  0.00  0.00    +0.000 A 
ATOM      9  N   UNL     1      44.468   2.128   9.514  0.00  0.00    +0.000 NA
ATOM     10  C   UNL     1      45.152   2.473   8.474  0.00  0.00    +0.000 A 
ATOM     11  N   UNL     1      45.710   3.711   8.277  0.00  0.00    +0.000 N 
ATOM     12  C   UNL     1      45.598   4.729   9.185  0.00  0.00    +0.000 A 
ATOM     13  O   UNL     1      46.110   5.823   8.967  0.00  0.00    +0.000 OA
ATOM     14  C   UNL     1      44.807   4.406  10.361  0.00  0.00    +0.000 A 
ATOM     15  H   UNL     1      46.232   3.920   7.440  0.00  0.00    +0.000 HD
ENDBRANCH   2   5
BRANCH   3  16
ATOM     16  C   UNL     1      46.098   8.202  13.054  0.00  0.00    +0.000 C 
BRANCH  16  17
ATOM     17  C   UNL     1      47.609   8.421  12.937  0.00  0.00    +0.000 C 
ATOM     18  C   UNL     1      47.934   9.614  12.019  0.00  0.00    +0.000 C 
ATOM     19  C   UNL     1      49.438   9.793  11.842  0.00  0.00    +0.000 C 
ATOM     20  C   UNL     1      50.090   8.516  11.325  0.00  0.00    +0.000 C 
ATOM     21  C   UNL     1      49.782   7.327  12.230  0.00  0.00    +0.000 C 
ATOM     22  C   UNL     1      48.280   7.141  12.421  0.00  0.00    +0.000 C 
ENDBRANCH  16  17
ENDBRANCH   3  16
TORSDOF 3
ENDMDL
