MODEL 1
REMARK VINA RESULT:    -8.489      0.000      0.000
REMARK INTER + INTRA:         -10.891
REMARK INTER:                 -10.971
REMARK INTRA:                   0.080
REMARK UNBOUND:                 0.080
REMARK  Name = 
REMARK  5 active torsions:
REMARK  status: ('A' for Active; 'I' for Inactive)
REMARK    1  A    between atoms: C_2  and  C_18
REMARK    2  A    between atoms: N_3  and  C_4
REMARK    3  A    between atoms: C_4  and  C_5
REMARK    4  A    between atoms: C_8  and  C_9
REMARK    5  A    between atoms: C_9  and  N_10
REMARK                            x       y       z     vdW  Elec       q    Type
REMARK                         _______ _______ _______ _____ _____    ______ ____
ROOT
ATOM      1  O   UNL     1      49.128   6.545  13.445  0.00  0.00    +0.000 OA
ATOM      2  C   UNL     1      48.280   6.425  14.324  0.00  0.00    +0.000 C 
ATOM      3  N   UNL     1      46.935   6.560  14.077  0.00  0.00    +0.000 N 
ATOM      4  H   UNL     1      46.292   6.691  14.845  0.00  0.00    +0.000 HD
ENDROOT
BRANCH   2   5
ATOM      5  C   UNL     1      48.659   6.121  15.705  0.00  0.00    +0.000 A 
ATOM      6  C   UNL     1      49.348   7.044  16.476  0.00  0.00    +0.000 A 
ATOM      7  S   UNL     1      49.591   6.526  18.087  0.00  0.00    +0.000 S 
ATOM      8  C   UNL     1      48.776   5.061  17.796  0.00  0.00    +0.000 A 
ATOM      9  N   UNL     1      48.565   4.159  18.791  0.00  0.00    +0.000 NA
ATOM     10  C   UNL     1      47.900   3.112  18.426  0.00  0.00    +0.000 A 
ATOM     11  N   UNL     1      47.444   2.882  17.159  0.00  0.00    +0.000 N 
ATOM     12  C   UNL     1      47.693   3.724  16.110  0.00  0.00    +0.000 A 
ATOM     13  O   UNL     1      47.384   3.407  14.969  0.00  0.00    +0.000 OA
ATOM     14  C   UNL     1      48.378   4.948  16.482  0.00  0.00    +0.000 A 
ATOM     15  H   UNL     1      46.961   2.024  16.923  0.00  0.00    +0.000 HD
ENDBRANCH   2   5
BRANCH   3  16
ATOM     16  C   UNL     1      46.495   7.011  12.781  0.00  0.00    +0.000 C 
BRANCH  16  17
ATOM     17  C   UNL     1      45.908   5.901  11.952  0.00  0.00    +0.000 A 
ATOM     18  C   UNL     1      45.664   6.098  10.585  0.00  0.00    +0.000 A 
ATOM     19  C   UNL     1      45.179   5.057   9.784  0.00  0.00    +0.000 A 
ATOM     20  C   UNL     1      44.916   3.796  10.334  0.00  0.00    +0.000 A 
ATOM     21  C   UNL     1      45.139   3.609  11.708  0.00  0.00    +0.000 A 
ATOM     22  C   UNL     1      45.622   4.651  12.510  0.00  0.00    +0.000 A 
BRANCH  20  23
ATOM     23  C   UNL     1      44.351   2.666   9.492  0.00  0.00    +0.000 C 
BRANCH  23  24
ATOM     24  N   UNL     1      45.082   2.384   8.235  0.00  0.00    +0.000 NA
ATOM     25  C   UNL     1      45.689   3.609   7.689  0.00  0.00    +0.000 C 
ATOM     26  C   UNL     1      46.642   3.360   6.518  0.00  0.00    +0.000 C 
ATOM     27  C   UNL     1      47.692   2.318   6.866  0.00  0.00    +0.000 C 
ATOM     28  C   UNL     1      47.002   1.035   7.300  0.00  0.00    +0.000 C 
ATOM     29  C   UNL     1      46.041   1.288   8.463  0.00  0.00    +0.000 C 
ENDBRANCH  23  24
ENDBRANCH  20  23
ENDBRANCH  16  17
ENDBRANCH   3  16
TORSDOF 5
ENDMDL
MODEL 2
REMARK VINA RESULT:    -8.014      1.770      2.311
REMARK INTER + INTRA:         -10.276
REMARK INTER:                  -9.847
REMARK INTRA:                  -0.429
REMARK UNBOUND:                 0.080
REMARK  Name = 
REMARK  5 active torsions:
REMARK  status: ('A' for Active; 'I' for Inactive)
REMARK    1  A    between atoms: C_2  and  C_18
REMARK    2  A    between atoms: N_3  and  C_4
REMARK    3  A    between atoms: C_4  and  C_5
REMARK    4  A    between atoms: C_8  and  C_9
REMARK    5  A    between atoms: C_9  and  N_10
REMARK                            x       y       z     vdW  Elec       q    Type
REMARK                         _______ _______ _______ _____ _____    ______ ____
ROOT
ATOM      1  O   UNL     1      50.339   6.494  15.750  0.00  0.00    +0.000 OA
ATOM      2  C   UNL     1      49.174   6.642  16.107  0.00  0.00    +0.000 C 
ATOM      3  N   UNL     1      48.122   6.622  15.223  0.00  0.00    +0.000 N 
ATOM      4  H   UNL     1      47.219   6.978  15.506  0.00  0.00    +0.000 HD
ENDROOT
BRANCH   2   5
ATOM      5  C   UNL     1      48.834   6.846  17.516  0.00  0.00    +0.000 A 
ATOM      6  C   UNL     1      48.345   8.063  17.964  0.00  0.00    +0.000 A 
ATOM      7  S   UNL     1      47.912   8.046  19.618  0.00  0.00    +0.000 S 
ATOM      8  C   UNL     1      48.360   6.412  19.774  0.00  0.00    +0.000 A 
ATOM      9  N   UNL     1      48.185   5.739  20.941  0.00  0.00    +0.000 NA
ATOM     10  C   UNL     1      48.538   4.496  20.896  0.00  0.00    +0.000 A 
ATOM     11  N   UNL     1      49.062   3.876  19.797  0.00  0.00    +0.000 N 
ATOM     12  C   UNL     1      49.324   4.527  18.624  0.00  0.00    +0.000 A 
ATOM     13  O   UNL     1      49.920   3.963  17.716  0.00  0.00    +0.000 OA
ATOM     14  C   UNL     1      48.881   5.910  18.602  0.00  0.00    +0.000 A 
ATOM     15  H   UNL     1      49.356   2.907  19.832  0.00  0.00    +0.000 HD
ENDBRANCH   2   5
BRANCH   3  16
ATOM     16  C   UNL     1      48.387   6.583  13.808  0.00  0.00    +0.000 C 
BRANCH  16  17
ATOM     17  C   UNL     1      47.196   6.125  13.009  0.00  0.00    +0.000 A 
ATOM     18  C   UNL     1      46.672   6.942  11.997  0.00  0.00    +0.000 A 
ATOM     19  C   UNL     1      45.607   6.506  11.200  0.00  0.00    +0.000 A 
ATOM     20  C   UNL     1      45.032   5.245  11.406  0.00  0.00    +0.000 A 
ATOM     21  C   UNL     1      45.543   4.440  12.436  0.00  0.00    +0.000 A 
ATOM     22  C   UNL     1      46.607   4.876  13.235  0.00  0.00    +0.000 A 
BRANCH  20  23
ATOM     23  C   UNL     1      43.849   4.769  10.581  0.00  0.00    +0.000 C 
BRANCH  23  24
ATOM     24  N   UNL     1      44.189   3.925   9.412  0.00  0.00    +0.000 NA
ATOM     25  C   UNL     1      45.364   4.452   8.701  0.00  0.00    +0.000 C 
ATOM     26  C   UNL     1      45.907   3.515   7.620  0.00  0.00    +0.000 C 
ATOM     27  C   UNL     1      46.159   2.119   8.167  0.00  0.00    +0.000 C 
ATOM     28  C   UNL     1      44.874   1.579   8.774  0.00  0.00    +0.000 C 
ATOM     29  C   UNL     1      44.327   2.523   9.847  0.00  0.00    +0.000 C 
ENDBRANCH  23  24
ENDBRANCH  20  23
ENDBRANCH  16  17
ENDBRANCH   3  16
TORSDOF 5
ENDMDL
MODEL 3
REMARK VINA RESULT:    -7.829      2.334      3.127
REMARK INTER + INTRA:         -10.037
REMARK INTER:                  -9.549
REMARK INTRA:                  -0.488
REMARK UNBOUND:                 0.080
REMARK  Name = 
REMARK  5 active torsions:
REMARK  status: ('A' for Active; 'I' for Inactive)
REMARK    1  A    between atoms: C_2  and  C_18
REMARK    2  A    between atoms: N_3  and  C_4
REMARK    3  A    between atoms: C_4  and  C_5
REMARK    4  A    between atoms: C_8  and  C_9
REMARK    5  A    between atoms: C_9  and  N_10
REMARK                            x       y       z     vdW  Elec       q    Type
REMARK                         _______ _______ _______ _____ _____    ______ ____
ROOT
ATOM      1  O   UNL     1      50.159   6.195  15.894  0.00  0.00    +0.000 OA
ATOM      2  C   UNL     1      48.990   6.216  16.267  0.00  0.00    +0.000 C 
ATOM      3  N   UNL     1      47.935   6.278  15.390  0.00  0.00    +0.000 N 
ATOM      4  H   UNL     1      47.015   6.530  15.724  0.00  0.00    +0.000 HD
ENDROOT
BRANCH   2   5
ATOM      5  C   UNL     1      48.649   6.168  17.690  0.00  0.00    +0.000 A 
ATOM      6  C   UNL     1      48.808   5.002  18.424  0.00  0.00    +0.000 A 
ATOM      7  S   UNL     1      48.453   5.200  20.085  0.00  0.00    +0.000 S 
ATOM      8  C   UNL     1      48.086   6.847  19.866  0.00  0.00    +0.000 A 
ATOM      9  N   UNL     1      47.761   7.645  20.916  0.00  0.00    +0.000 NA
ATOM     10  C   UNL     1      47.544   8.880  20.599  0.00  0.00    +0.000 A 
ATOM     11  N   UNL     1      47.608   9.379  19.329  0.00  0.00    +0.000 N 
ATOM     12  C   UNL     1      47.860   8.603  18.232  0.00  0.00    +0.000 A 
ATOM     13  O   UNL     1      47.770   9.069  17.103  0.00  0.00    +0.000 OA
ATOM     14  C   UNL     1      48.178   7.221  18.543  0.00  0.00    +0.000 A 
ATOM     15  H   UNL     1      47.390  10.349  19.135  0.00  0.00    +0.000 HD
ENDBRANCH   2   5
BRANCH   3  16
ATOM     16  C   UNL     1      48.191   6.483  13.987  0.00  0.00    +0.000 C 
BRANCH  16  17
ATOM     17  C   UNL     1      47.053   6.022  13.117  0.00  0.00    +0.000 A 
ATOM     18  C   UNL     1      46.757   6.701  11.927  0.00  0.00    +0.000 A 
ATOM     19  C   UNL     1      45.745   6.248  11.073  0.00  0.00    +0.000 A 
ATOM     20  C   UNL     1      44.997   5.108  11.395  0.00  0.00    +0.000 A 
ATOM     21  C   UNL     1      45.280   4.444  12.599  0.00  0.00    +0.000 A 
ATOM     22  C   UNL     1      46.291   4.898  13.455  0.00  0.00    +0.000 A 
BRANCH  20  23
ATOM     23  C   UNL     1      43.868   4.623  10.503  0.00  0.00    +0.000 C 
BRANCH  23  24
ATOM     24  N   UNL     1      44.284   3.810   9.337  0.00  0.00    +0.000 NA
ATOM     25  C   UNL     1      45.381   4.461   8.602  0.00  0.00    +0.000 C 
ATOM     26  C   UNL     1      46.011   3.579   7.521  0.00  0.00    +0.000 C 
ATOM     27  C   UNL     1      46.429   2.228   8.077  0.00  0.00    +0.000 C 
ATOM     28  C   UNL     1      45.224   1.551   8.710  0.00  0.00    +0.000 C 
ATOM     29  C   UNL     1      44.589   2.438   9.782  0.00  0.00    +0.000 C 
ENDBRANCH  23  24
ENDBRANCH  20  23
ENDBRANCH  16  17
ENDBRANCH   3  16
TORSDOF 5
ENDMDL
MODEL 4
REMARK VINA RESULT:    -7.659      2.252      3.829
REMARK INTER + INTRA:          -9.817
REMARK INTER:                  -9.421
REMARK INTRA:                  -0.396
REMARK UNBOUND:                 0.080
REMARK  Name = 
REMARK  5 active torsions:
REMARK  status: ('A' for Active; 'I' for Inactive)
REMARK    1  A    between atoms: C_2  and  C_18
REMARK    2  A    between atoms: N_3  and  C_4
REMARK    3  A    between atoms: C_4  and  C_5
REMARK    4  A    between atoms: C_8  and  C_9
REMARK    5  A    between atoms: C_9  and  N_10
REMARK                            x       y       z     vdW  Elec       q    Type
REMARK                         _______ _______ _______ _____ _____    ______ ____
ROOT
ATOM      1  O   UNL     1      48.829   5.293  15.987  0.00  0.00    +0.000 OA
ATOM      2  C   UNL     1      48.404   6.213  15.295  0.00  0.00    +0.000 C 
ATOM      3  N   UNL     1      47.330   6.067  14.450  0.00  0.00    +0.000 N 
ATOM      4  H   UNL     1      47.156   6.756  13.732  0.00  0.00    +0.000 HD
ENDROOT
BRANCH   2   5
ATOM      5  C   UNL     1      49.022   7.539  15.334  0.00  0.00    +0.000 A 
ATOM      6  C   UNL     1      49.040   8.284  16.504  0.00  0.00    +0.000 A 
ATOM      7  S   UNL     1      49.906   9.751  16.354  0.00  0.00    +0.000 S 
ATOM      8  C   UNL     1      50.284   9.424  14.727  0.00  0.00    +0.000 A 
ATOM      9  N   UNL     1      51.072  10.260  14.002  0.00  0.00    +0.000 NA
ATOM     10  C   UNL     1      51.301   9.860  12.794  0.00  0.00    +0.000 A 
ATOM     11  N   UNL     1      50.800   8.713  12.246  0.00  0.00    +0.000 N 
ATOM     12  C   UNL     1      49.945   7.878  12.910  0.00  0.00    +0.000 A 
ATOM     13  O   UNL     1      49.415   6.938  12.332  0.00  0.00    +0.000 OA
ATOM     14  C   UNL     1      49.712   8.247  14.295  0.00  0.00    +0.000 A 
ATOM     15  H   UNL     1      50.982   8.471  11.280  0.00  0.00    +0.000 HD
ENDBRANCH   2   5
BRANCH   3  16
ATOM     16  C   UNL     1      46.768   4.757  14.240  0.00  0.00    +0.000 C 
BRANCH  16  17
ATOM     17  C   UNL     1      46.156   4.603  12.874  0.00  0.00    +0.000 A 
ATOM     18  C   UNL     1      45.471   3.426  12.539  0.00  0.00    +0.000 A 
ATOM     19  C   UNL     1      44.840   3.290  11.297  0.00  0.00    +0.000 A 
ATOM     20  C   UNL     1      44.888   4.326  10.355  0.00  0.00    +0.000 A 
ATOM     21  C   UNL     1      45.595   5.494  10.685  0.00  0.00    +0.000 A 
ATOM     22  C   UNL     1      46.229   5.629  11.926  0.00  0.00    +0.000 A 
BRANCH  20  23
ATOM     23  C   UNL     1      44.246   4.184   8.986  0.00  0.00    +0.000 C 
BRANCH  23  24
ATOM     24  N   UNL     1      44.923   3.245   8.062  0.00  0.00    +0.000 NA
ATOM     25  C   UNL     1      45.983   3.924   7.300  0.00  0.00    +0.000 C 
ATOM     26  C   UNL     1      46.871   2.974   6.491  0.00  0.00    +0.000 C 
ATOM     27  C   UNL     1      47.427   1.857   7.359  0.00  0.00    +0.000 C 
ATOM     28  C   UNL     1      46.277   1.113   8.018  0.00  0.00    +0.000 C 
ATOM     29  C   UNL     1      45.385   2.066   8.816  0.00  0.00    +0.000 C 
ENDBRANCH  23  24
ENDBRANCH  20  23
ENDBRANCH  16  17
ENDBRANCH   3  16
TORSDOF 5
ENDMDL
MODEL 5
REMARK VINA RESULT:    -7.407      2.952      4.122
REMARK INTER + INTRA:          -9.492
REMARK INTER:                  -9.174
REMARK INTRA:                  -0.318
REMARK UNBOUND:                 0.080
REMARK  Name = 
REMARK  5 active torsions:
REMARK  status: ('A' for Active; 'I' for Inactive)
REMARK    1  A    between atoms: C_2  and  C_18
REMARK    2  A    between atoms: N_3  and  C_4
REMARK    3  A    between atoms: C_4  and  C_5
REMARK    4  A    between atoms: C_8  and  C_9
REMARK    5  A    between atoms: C_9  and  N_10
REMARK                            x       y       z     vdW  Elec       q    Type
REMARK                         _______ _______ _______ _____ _____    ______ ____
ROOT
ATOM      1  O   UNL     1      49.056   6.157  13.057  0.00  0.00    +0.000 OA
ATOM      2  C   UNL     1      48.233   7.042  13.275  0.00  0.00    +0.000 C 
ATOM      3  N   UNL     1      46.934   6.770  13.633  0.00  0.00    +0.000 N 
ATOM      4  H   UNL     1      46.233   7.495  13.573  0.00  0.00    +0.000 HD
ENDROOT
BRANCH   2   5
ATOM      5  C   UNL     1      48.595   8.456  13.172  0.00  0.00    +0.000 A 
ATOM      6  C   UNL     1      48.828   9.046  11.939  0.00  0.00    +0.000 A 
ATOM      7  S   UNL     1      49.129  10.725  12.042  0.00  0.00    +0.000 S 
ATOM      8  C   UNL     1      48.949  10.708  13.734  0.00  0.00    +0.000 A 
ATOM      9  N   UNL     1      49.020  11.851  14.465  0.00  0.00    +0.000 NA
ATOM     10  C   UNL     1      48.827  11.685  15.733  0.00  0.00    +0.000 A 
ATOM     11  N   UNL     1      48.586  10.480  16.331  0.00  0.00    +0.000 N 
ATOM     12  C   UNL     1      48.576   9.295  15.650  0.00  0.00    +0.000 A 
ATOM     13  O   UNL     1      48.494   8.231  16.250  0.00  0.00    +0.000 OA
ATOM     14  C   UNL     1      48.720   9.435  14.212  0.00  0.00    +0.000 A 
ATOM     15  H   UNL     1      48.481  10.405  17.336  0.00  0.00    +0.000 HD
ENDBRANCH   2   5
BRANCH   3  16
ATOM     16  C   UNL     1      46.461   5.410  13.604  0.00  0.00    +0.000 C 
BRANCH  16  17
ATOM     17  C   UNL     1      45.870   5.030  12.273  0.00  0.00    +0.000 A 
ATOM     18  C   UNL     1      46.054   5.861  11.159  0.00  0.00    +0.000 A 
ATOM     19  C   UNL     1      45.568   5.492   9.899  0.00  0.00    +0.000 A 
ATOM     20  C   UNL     1      44.875   4.287   9.727  0.00  0.00    +0.000 A 
ATOM     21  C   UNL     1      44.671   3.469  10.850  0.00  0.00    +0.000 A 
ATOM     22  C   UNL     1      45.156   3.838  12.110  0.00  0.00    +0.000 A 
BRANCH  20  23
ATOM     23  C   UNL     1      44.303   3.887   8.378  0.00  0.00    +0.000 C 
BRANCH  23  24
ATOM     24  N   UNL     1      45.128   2.940   7.594  0.00  0.00    +0.000 NA
ATOM     25  C   UNL     1      46.192   3.645   6.860  0.00  0.00    +0.000 C 
ATOM     26  C   UNL     1      47.217   2.715   6.208  0.00  0.00    +0.000 C 
ATOM     27  C   UNL     1      47.785   1.722   7.210  0.00  0.00    +0.000 C 
ATOM     28  C   UNL     1      46.647   0.937   7.839  0.00  0.00    +0.000 C 
ATOM     29  C   UNL     1      45.617   1.869   8.480  0.00  0.00    +0.000 C 
ENDBRANCH  23  24
ENDBRANCH  20  23
ENDBRANCH  16  17
ENDBRANCH   3  16
TORSDOF 5
ENDMDL
MODEL 6
REMARK VINA RESULT:    -7.388      3.966      4.784
REMARK INTER + INTRA:          -9.467
REMARK INTER:                  -8.913
REMARK INTRA:                  -0.554
REMARK UNBOUND:                 0.080
REMARK  Name = 
REMARK  5 active torsions:
REMARK  status: ('A' for Active; 'I' for Inactive)
REMARK    1  A    between atoms: C_2  and  C_18
REMARK    2  A    between atoms: N_3  and  C_4
REMARK    3  A    between atoms: C_4  and  C_5
REMARK    4  A    between atoms: C_8  and  C_9
REMARK    5  A    between atoms: C_9  and  N_10
REMARK                            x       y       z     vdW  Elec       q    Type
REMARK                         _______ _______ _______ _____ _____    ______ ____
ROOT
ATOM      1  O   UNL     1      47.043   8.636  14.069  0.00  0.00    +0.000 OA
ATOM      2  C   UNL     1      47.015   8.749  12.847  0.00  0.00    +0.000 C 
ATOM      3  N   UNL     1      45.999   8.230  12.080  0.00  0.00    +0.000 N 
ATOM      4  H   UNL     1      46.121   8.132  11.082  0.00  0.00    +0.000 HD
ENDROOT
BRANCH   2   5
ATOM      5  C   UNL     1      48.073   9.459  12.127  0.00  0.00    +0.000 A 
ATOM      6  C   UNL     1      47.887  10.759  11.683  0.00  0.00    +0.000 A 
ATOM      7  S   UNL     1      49.285  11.432  10.966  0.00  0.00    +0.000 S 
ATOM      8  C   UNL     1      50.176  10.007  11.238  0.00  0.00    +0.000 A 
ATOM      9  N   UNL     1      51.493   9.924  10.915  0.00  0.00    +0.000 NA
ATOM     10  C   UNL     1      52.043   8.792  11.215  0.00  0.00    +0.000 A 
ATOM     11  N   UNL     1      51.390   7.739  11.790  0.00  0.00    +0.000 N 
ATOM     12  C   UNL     1      50.051   7.748  12.067  0.00  0.00    +0.000 A 
ATOM     13  O   UNL     1      49.487   6.734  12.453  0.00  0.00    +0.000 OA
ATOM     14  C   UNL     1      49.402   9.022  11.812  0.00  0.00    +0.000 A 
ATOM     15  H   UNL     1      51.865   6.862  11.967  0.00  0.00    +0.000 HD
ENDBRANCH   2   5
BRANCH   3  16
ATOM     16  C   UNL     1      45.006   7.388  12.696  0.00  0.00    +0.000 C 
BRANCH  16  17
ATOM     17  C   UNL     1      44.812   6.089  11.961  0.00  0.00    +0.000 A 
ATOM     18  C   UNL     1      43.740   5.937  11.071  0.00  0.00    +0.000 A 
ATOM     19  C   UNL     1      43.581   4.760  10.330  0.00  0.00    +0.000 A 
ATOM     20  C   UNL     1      44.487   3.701  10.471  0.00  0.00    +0.000 A 
ATOM     21  C   UNL     1      45.546   3.847  11.382  0.00  0.00    +0.000 A 
ATOM     22  C   UNL     1      45.704   5.023  12.125  0.00  0.00    +0.000 A 
BRANCH  20  23
ATOM     23  C   UNL     1      44.310   2.400   9.708  0.00  0.00    +0.000 C 
BRANCH  23  24
ATOM     24  N   UNL     1      45.014   2.327   8.407  0.00  0.00    +0.000 NA
ATOM     25  C   UNL     1      45.546   3.643   8.018  0.00  0.00    +0.000 C 
ATOM     26  C   UNL     1      46.473   3.601   6.800  0.00  0.00    +0.000 C 
ATOM     27  C   UNL     1      47.580   2.574   6.976  0.00  0.00    +0.000 C 
ATOM     28  C   UNL     1      46.962   1.213   7.249  0.00  0.00    +0.000 C 
ATOM     29  C   UNL     1      46.028   1.258   8.459  0.00  0.00    +0.000 C 
ENDBRANCH  23  24
ENDBRANCH  20  23
ENDBRANCH  16  17
ENDBRANCH   3  16
TORSDOF 5
ENDMDL
MODEL 7
REMARK VINA RESULT:    -7.276      3.564      8.042
REMARK INTER + INTRA:          -9.322
REMARK INTER:                  -8.413
REMARK INTRA:                  -0.909
REMARK UNBOUND:                 0.080
REMARK  Name = 
REMARK  5 active torsions:
REMARK  status: ('A' for Active; 'I' for Inactive)
REMARK    1  A    between atoms: C_2  and  C_18
REMARK    2  A    between atoms: N_3  and  C_4
REMARK    3  A    between atoms: C_4  and  C_5
REMARK    4  A    between atoms: C_8  and  C_9
REMARK    5  A    between atoms: C_9  and  N_10
REMARK                            x       y       z     vdW  Elec       q    Type
REMARK                         _______ _______ _______ _____ _____    ______ ____
ROOT
ATOM      1  O   UNL     1      47.777   7.022  11.715  0.00  0.00    +0.000 OA
ATOM      2  C   UNL     1      46.875   7.020  12.548  0.00  0.00    +0.000 C 
ATOM      3  N   UNL     1      47.036   7.533  13.812  0.00  0.00    +0.000 N 
ATOM      4  H   UNL     1      46.369   7.306  14.537  0.00  0.00    +0.000 HD
ENDROOT
BRANCH   2   5
ATOM      5  C   UNL     1      45.556   6.468  12.235  0.00  0.00    +0.000 A 
ATOM      6  C   UNL     1      44.552   7.268  11.711  0.00  0.00    +0.000 A 
ATOM      7  S   UNL     1      43.134   6.398  11.320  0.00  0.00    +0.000 S 
ATOM      8  C   UNL     1      43.827   4.931  11.832  0.00  0.00    +0.000 A 
ATOM      9  N   UNL     1      43.161   3.753  11.710  0.00  0.00    +0.000 NA
ATOM     10  C   UNL     1      43.830   2.720  12.108  0.00  0.00    +0.000 A 
ATOM     11  N   UNL     1      45.093   2.765  12.628  0.00  0.00    +0.000 N 
ATOM     12  C   UNL     1      45.775   3.931  12.838  0.00  0.00    +0.000 A 
ATOM     13  O   UNL     1      46.845   3.930  13.433  0.00  0.00    +0.000 OA
ATOM     14  C   UNL     1      45.094   5.114  12.343  0.00  0.00    +0.000 A 
ATOM     15  H   UNL     1      45.553   1.926  12.960  0.00  0.00    +0.000 HD
ENDBRANCH   2   5
BRANCH   3  16
ATOM     16  C   UNL     1      48.344   7.952  14.246  0.00  0.00    +0.000 C 
BRANCH  16  17
ATOM     17  C   UNL     1      48.930   7.035  15.286  0.00  0.00    +0.000 A 
ATOM     18  C   UNL     1      48.169   5.976  15.799  0.00  0.00    +0.000 A 
ATOM     19  C   UNL     1      48.718   5.074  16.718  0.00  0.00    +0.000 A 
ATOM     20  C   UNL     1      50.042   5.219  17.155  0.00  0.00    +0.000 A 
ATOM     21  C   UNL     1      50.794   6.296  16.658  0.00  0.00    +0.000 A 
ATOM     22  C   UNL     1      50.243   7.199  15.740  0.00  0.00    +0.000 A 
BRANCH  20  23
ATOM     23  C   UNL     1      50.645   4.278  18.183  0.00  0.00    +0.000 C 
BRANCH  23  24
ATOM     24  N   UNL     1      51.713   3.385  17.676  0.00  0.00    +0.000 NA
ATOM     25  C   UNL     1      52.943   3.527  18.472  0.00  0.00    +0.000 C 
ATOM     26  C   UNL     1      54.014   2.481  18.150  0.00  0.00    +0.000 C 
ATOM     27  C   UNL     1      53.454   1.070  18.223  0.00  0.00    +0.000 C 
ATOM     28  C   UNL     1      52.265   0.952  17.284  0.00  0.00    +0.000 C 
ATOM     29  C   UNL     1      51.201   2.005  17.600  0.00  0.00    +0.000 C 
ENDBRANCH  23  24
ENDBRANCH  20  23
ENDBRANCH  16  17
ENDBRANCH   3  16
TORSDOF 5
ENDMDL
MODEL 8
REMARK VINA RESULT:    -7.254      4.706      7.454
REMARK INTER + INTRA:          -9.294
REMARK INTER:                  -8.499
REMARK INTRA:                  -0.795
REMARK UNBOUND:                 0.080
REMARK  Name = 
REMARK  5 active torsions:
REMARK  status: ('A' for Active; 'I' for Inactive)
REMARK    1  A    between atoms: C_2  and  C_18
REMARK    2  A    between atoms: N_3  and  C_4
REMARK    3  A    between atoms: C_4  and  C_5
REMARK    4  A    between atoms: C_8  and  C_9
REMARK    5  A    between atoms: C_9  and  N_10
REMARK                            x       y       z     vdW  Elec       q    Type
REMARK                         _______ _______ _______ _____ _____    ______ ____
ROOT
ATOM      1  O   UNL     1      44.248   7.546  11.242  0.00  0.00    +0.000 OA
ATOM      2  C   UNL     1      44.860   6.657  11.827  0.00  0.00    +0.000 C 
ATOM      3  N   UNL     1      45.888   6.920  12.699  0.00  0.00    +0.000 N 
ATOM      4  H   UNL     1      46.517   6.178  12.975  0.00  0.00    +0.000 HD
ENDROOT
BRANCH   2   5
ATOM      5  C   UNL     1      44.521   5.247  11.628  0.00  0.00    +0.000 A 
ATOM      6  C   UNL     1      43.838   4.533  12.601  0.00  0.00    +0.000 A 
ATOM      7  S   UNL     1      43.452   2.939  12.118  0.00  0.00    +0.000 S 
ATOM      8  C   UNL     1      44.180   3.166  10.597  0.00  0.00    +0.000 A 
ATOM      9  N   UNL     1      44.150   2.195   9.646  0.00  0.00    +0.000 NA
ATOM     10  C   UNL     1      44.712   2.527   8.530  0.00  0.00    +0.000 A 
ATOM     11  N   UNL     1      45.312   3.731   8.289  0.00  0.00    +0.000 N 
ATOM     12  C   UNL     1      45.431   4.711   9.235  0.00  0.00    +0.000 A 
ATOM     13  O   UNL     1      46.096   5.714   9.014  0.00  0.00    +0.000 OA
ATOM     14  C   UNL     1      44.755   4.414  10.485  0.00  0.00    +0.000 A 
ATOM     15  H   UNL     1      45.771   3.920   7.406  0.00  0.00    +0.000 HD
ENDBRANCH   2   5
BRANCH   3  16
ATOM     16  C   UNL     1      46.381   8.267  12.829  0.00  0.00    +0.000 C 
BRANCH  16  17
ATOM     17  C   UNL     1      47.812   8.405  12.382  0.00  0.00    +0.000 A 
ATOM     18  C   UNL     1      48.669   7.296  12.412  0.00  0.00    +0.000 A 
ATOM     19  C   UNL     1      49.983   7.389  11.940  0.00  0.00    +0.000 A 
ATOM     20  C   UNL     1      50.475   8.601  11.436  0.00  0.00    +0.000 A 
ATOM     21  C   UNL     1      49.622   9.716  11.430  0.00  0.00    +0.000 A 
ATOM     22  C   UNL     1      48.308   9.623  11.905  0.00  0.00    +0.000 A 
BRANCH  20  23
ATOM     23  C   UNL     1      51.910   8.735  10.957  0.00  0.00    +0.000 C 
BRANCH  23  24
ATOM     24  N   UNL     1      52.215   8.066   9.672  0.00  0.00    +0.000 NA
ATOM     25  C   UNL     1      52.930   8.973   8.759  0.00  0.00    +0.000 C 
ATOM     26  C   UNL     1      53.473   8.287   7.503  0.00  0.00    +0.000 C 
ATOM     27  C   UNL     1      54.307   7.064   7.852  0.00  0.00    +0.000 C 
ATOM     28  C   UNL     1      53.472   6.109   8.687  0.00  0.00    +0.000 C 
ATOM     29  C   UNL     1      52.921   6.799   9.936  0.00  0.00    +0.000 C 
ENDBRANCH  23  24
ENDBRANCH  20  23
ENDBRANCH  16  17
ENDBRANCH   3  16
TORSDOF 5
ENDMDL
MODEL 9
REMARK VINA RESULT:    -7.123      3.185      8.899
REMARK INTER + INTRA:          -9.125
REMARK INTER:                  -8.247
REMARK INTRA:                  -0.877
REMARK UNBOUND:                 0.080
REMARK  Name = 
REMARK  5 active torsions:
REMARK  status: ('A' for Active; 'I' for Inactive)
REMARK    1  A    between atoms: C_2  and  C_18
REMARK    2  A    between atoms: N_3  and  C_4
REMARK    3  A    between atoms: C_4  and  C_5
REMARK    4  A    between atoms: C_8  and  C_9
REMARK    5  A    between atoms: C_9  and  N_10
REMARK                            x       y       z     vdW  Elec       q    Type
REMARK                         _______ _______ _______ _____ _____    ______ ____
ROOT
ATOM      1  O   UNL     1      46.018   7.856  11.800  0.00  0.00    +0.000 OA
ATOM      2  C   UNL     1      46.469   6.722  11.664  0.00  0.00    +0.000 C 
ATOM      3  N   UNL     1      47.675   6.338  12.199  0.00  0.00    +0.000 N 
ATOM      4  H   UNL     1      48.123   5.491  11.875  0.00  0.00    +0.000 HD
ENDROOT
BRANCH   2   5
ATOM      5  C   UNL     1      45.734   5.699  10.918  0.00  0.00    +0.000 A 
ATOM      6  C   UNL     1      45.871   5.582   9.543  0.00  0.00    +0.000 A 
ATOM      7  S   UNL     1      45.010   4.256   8.892  0.00  0.00    +0.000 S 
ATOM      8  C   UNL     1      44.440   3.802  10.430  0.00  0.00    +0.000 A 
ATOM      9  N   UNL     1      43.682   2.688  10.603  0.00  0.00    +0.000 NA
ATOM     10  C   UNL     1      43.355   2.453  11.832  0.00  0.00    +0.000 A 
ATOM     11  N   UNL     1      43.705   3.239  12.894  0.00  0.00    +0.000 N 
ATOM     12  C   UNL     1      44.404   4.407  12.762  0.00  0.00    +0.000 A 
ATOM     13  O   UNL     1      44.573   5.145  13.724  0.00  0.00    +0.000 OA
ATOM     14  C   UNL     1      44.854   4.680  11.409  0.00  0.00    +0.000 A 
ATOM     15  H   UNL     1      43.387   3.026  13.831  0.00  0.00    +0.000 HD
ENDBRANCH   2   5
BRANCH   3  16
ATOM     16  C   UNL     1      48.525   7.326  12.811  0.00  0.00    +0.000 C 
BRANCH  16  17
ATOM     17  C   UNL     1      48.882   6.982  14.232  0.00  0.00    +0.000 A 
ATOM     18  C   UNL     1      48.093   6.077  14.956  0.00  0.00    +0.000 A 
ATOM     19  C   UNL     1      48.446   5.694  16.256  0.00  0.00    +0.000 A 
ATOM     20  C   UNL     1      49.593   6.218  16.867  0.00  0.00    +0.000 A 
ATOM     21  C   UNL     1      50.368   7.143  16.147  0.00  0.00    +0.000 A 
ATOM     22  C   UNL     1      50.013   7.527  14.848  0.00  0.00    +0.000 A 
BRANCH  20  23
ATOM     23  C   UNL     1      49.972   5.849  18.290  0.00  0.00    +0.000 C 
BRANCH  23  24
ATOM     24  N   UNL     1      48.852   5.826  19.259  0.00  0.00    +0.000 NA
ATOM     25  C   UNL     1      49.142   4.921  20.383  0.00  0.00    +0.000 C 
ATOM     26  C   UNL     1      48.132   5.014  21.530  0.00  0.00    +0.000 C 
ATOM     27  C   UNL     1      47.947   6.449  21.995  0.00  0.00    +0.000 C 
ATOM     28  C   UNL     1      47.525   7.309  20.815  0.00  0.00    +0.000 C 
ATOM     29  C   UNL     1      48.529   7.206  19.665  0.00  0.00    +0.000 C 
ENDBRANCH  23  24
ENDBRANCH  20  23
ENDBRANCH  16  17
ENDBRANCH   3  16
TORSDOF 5
ENDMDL
