MODEL 1
REMARK VINA RESULT:    -8.363      0.000      0.000
REMARK INTER + INTRA:         -12.663
REMARK INTER:                 -11.785
REMARK INTRA:                  -0.877
REMARK UNBOUND:                -0.877
REMARK  Name = 
REMARK  7 active torsions:
REMARK  status: ('A' for Active; 'I' for Inactive)
REMARK    1  A    between atoms: C_2  and  C_20
REMARK    2  A    between atoms: N_3  and  C_4
REMARK    3  A    between atoms: C_4  and  C_5
REMARK    4  A    between atoms: C_8  and  N_9
REMARK    5  A    between atoms: N_9  and  C_10
REMARK    6  A    between atoms: C_10  and  C_11
REMARK    7  A    between atoms: C_11  and  C_12
REMARK                            x       y       z     vdW  Elec       q    Type
REMARK                         _______ _______ _______ _____ _____    ______ ____
ROOT
ATOM      1  C   UNL     1      46.907   5.773  13.241  0.00  0.00    +0.000 A 
ATOM      2  C   UNL     1      46.319   4.529  13.488  0.00  0.00    +0.000 A 
ATOM      3  C   UNL     1      45.365   4.011  12.609  0.00  0.00    +0.000 A 
ATOM      4  C   UNL     1      44.960   4.732  11.484  0.00  0.00    +0.000 A 
ATOM      5  C   UNL     1      45.635   5.919  11.182  0.00  0.00    +0.000 A 
ATOM      6  C   UNL     1      46.590   6.446  12.056  0.00  0.00    +0.000 A 
ENDROOT
BRANCH   4   7
ATOM      7  N   UNL     1      43.956   4.304  10.602  0.00  0.00    +0.000 N 
ATOM      8  H   UNL     1      43.174   4.958  10.635  0.00  0.00    +0.000 HD
BRANCH   7   9
ATOM      9  C   UNL     1      44.336   3.974   9.224  0.00  0.00    +0.000 C 
BRANCH   9  10
ATOM     10  C   UNL     1      44.914   2.553   9.129  0.00  0.00    +0.000 C 
BRANCH  10  11
ATOM     11  C   UNL     1      45.910   2.414   8.013  0.00  0.00    +0.000 A 
ATOM     12  C   UNL     1      46.087   3.423   7.066  0.00  0.00    +0.000 A 
ATOM     13  C   UNL     1      47.022   3.255   6.049  0.00  0.00    +0.000 A 
ATOM     14  C   UNL     1      47.754   2.080   6.017  0.00  0.00    +0.000 A 
ATOM     15  N   UNL     1      47.616   1.084   6.919  0.00  0.00    +0.000 NA
ATOM     16  C   UNL     1      46.697   1.271   7.891  0.00  0.00    +0.000 A 
ENDBRANCH  10  11
ENDBRANCH   9  10
ENDBRANCH   7   9
ENDBRANCH   4   7
BRANCH   1  17
ATOM     17  C   UNL     1      47.882   6.354  14.224  0.00  0.00    +0.000 C 
BRANCH  17  20
ATOM     18  O   UNL     1      49.968   6.113  16.041  0.00  0.00    +0.000 OA
ATOM     19  C   UNL     1      48.889   5.597  16.318  0.00  0.00    +0.000 C 
ATOM     20  N   UNL     1      47.798   5.681  15.492  0.00  0.00    +0.000 N 
ATOM     21  H   UNL     1      46.894   5.370  15.824  0.00  0.00    +0.000 HD
BRANCH  19  22
ATOM     22  C   UNL     1      48.670   4.845  17.545  0.00  0.00    +0.000 A 
ATOM     23  C   UNL     1      48.687   3.462  17.690  0.00  0.00    +0.000 A 
ATOM     24  N   UNL     1      48.544   3.167  19.022  0.00  0.00    +0.000 N 
ATOM     25  C   UNL     1      48.428   4.322  19.742  0.00  0.00    +0.000 A 
ATOM     26  N   UNL     1      48.316   4.371  21.082  0.00  0.00    +0.000 NA
ATOM     27  C   UNL     1      48.207   5.636  21.552  0.00  0.00    +0.000 A 
ATOM     28  C   UNL     1      48.168   6.788  20.779  0.00  0.00    +0.000 A 
ATOM     29  C   UNL     1      48.292   6.676  19.393  0.00  0.00    +0.000 A 
ATOM     30  C   UNL     1      48.452   5.389  18.851  0.00  0.00    +0.000 A 
ATOM     31  H   UNL     1      48.551   2.250  19.442  0.00  0.00    +0.000 HD
ENDBRANCH  19  22
ENDBRANCH  17  20
ENDBRANCH   1  17
TORSDOF 7
ENDMDL
MODEL 2
REMARK VINA RESULT:    -8.229      1.334      2.213
REMARK INTER + INTRA:         -12.474
REMARK INTER:                 -11.391
REMARK INTRA:                  -1.083
REMARK UNBOUND:                -0.877
REMARK  Name = 
REMARK  7 active torsions:
REMARK  status: ('A' for Active; 'I' for Inactive)
REMARK    1  A    between atoms: C_2  and  C_20
REMARK    2  A    between atoms: N_3  and  C_4
REMARK    3  A    between atoms: C_4  and  C_5
REMARK    4  A    between atoms: C_8  and  N_9
REMARK    5  A    between atoms: N_9  and  C_10
REMARK    6  A    between atoms: C_10  and  C_11
REMARK    7  A    between atoms: C_11  and  C_12
REMARK                            x       y       z     vdW  Elec       q    Type
REMARK                         _______ _______ _______ _____ _____    ______ ____
ROOT
ATOM      1  C   UNL     1      46.467   6.371  12.750  0.00  0.00    +0.000 A 
ATOM      2  C   UNL     1      46.086   6.419  11.406  0.00  0.00    +0.000 A 
ATOM      3  C   UNL     1      45.421   5.340  10.820  0.00  0.00    +0.000 A 
ATOM      4  C   UNL     1      45.147   4.183  11.553  0.00  0.00    +0.000 A 
ATOM      5  C   UNL     1      45.427   4.188  12.923  0.00  0.00    +0.000 A 
ATOM      6  C   UNL     1      46.094   5.262  13.517  0.00  0.00    +0.000 A 
ENDROOT
BRANCH   4   7
ATOM      7  N   UNL     1      44.550   3.037  11.008  0.00  0.00    +0.000 N 
ATOM      8  H   UNL     1      43.673   2.847  11.494  0.00  0.00    +0.000 HD
BRANCH   7   9
ATOM      9  C   UNL     1      44.394   2.960   9.551  0.00  0.00    +0.000 C 
BRANCH   9  10
ATOM     10  C   UNL     1      45.046   1.687   8.986  0.00  0.00    +0.000 C 
BRANCH  10  11
ATOM     11  C   UNL     1      46.018   1.985   7.880  0.00  0.00    +0.000 A 
ATOM     12  C   UNL     1      45.983   3.195   7.186  0.00  0.00    +0.000 A 
ATOM     13  C   UNL     1      46.904   3.431   6.169  0.00  0.00    +0.000 A 
ATOM     14  C   UNL     1      47.835   2.447   5.885  0.00  0.00    +0.000 A 
ATOM     15  N   UNL     1      47.905   1.267   6.539  0.00  0.00    +0.000 NA
ATOM     16  C   UNL     1      46.995   1.062   7.516  0.00  0.00    +0.000 A 
ENDBRANCH  10  11
ENDBRANCH   9  10
ENDBRANCH   7   9
ENDBRANCH   4   7
BRANCH   1  17
ATOM     17  C   UNL     1      47.241   7.506  13.355  0.00  0.00    +0.000 C 
BRANCH  17  20
ATOM     18  O   UNL     1      49.850   6.939  14.118  0.00  0.00    +0.000 OA
ATOM     19  C   UNL     1      48.971   6.906  14.974  0.00  0.00    +0.000 C 
ATOM     20  N   UNL     1      47.659   7.190  14.693  0.00  0.00    +0.000 N 
ATOM     21  H   UNL     1      46.997   7.294  15.452  0.00  0.00    +0.000 HD
BRANCH  19  22
ATOM     22  C   UNL     1      49.237   6.556  16.361  0.00  0.00    +0.000 A 
ATOM     23  C   UNL     1      49.848   7.358  17.320  0.00  0.00    +0.000 A 
ATOM     24  N   UNL     1      49.808   6.697  18.522  0.00  0.00    +0.000 N 
ATOM     25  C   UNL     1      49.196   5.486  18.364  0.00  0.00    +0.000 A 
ATOM     26  N   UNL     1      48.965   4.618  19.366  0.00  0.00    +0.000 NA
ATOM     27  C   UNL     1      48.351   3.487  18.947  0.00  0.00    +0.000 A 
ATOM     28  C   UNL     1      48.010   3.187  17.635  0.00  0.00    +0.000 A 
ATOM     29  C   UNL     1      48.271   4.127  16.638  0.00  0.00    +0.000 A 
ATOM     30  C   UNL     1      48.869   5.341  17.021  0.00  0.00    +0.000 A 
ATOM     31  H   UNL     1      50.144   7.038  19.410  0.00  0.00    +0.000 HD
ENDBRANCH  19  22
ENDBRANCH  17  20
ENDBRANCH   1  17
TORSDOF 7
ENDMDL
MODEL 3
REMARK VINA RESULT:    -7.601      4.622      6.149
REMARK INTER + INTRA:         -11.589
REMARK INTER:                 -10.567
REMARK INTRA:                  -1.022
REMARK UNBOUND:                -0.877
REMARK  Name = 
REMARK  7 active torsions:
REMARK  status: ('A' for Active; 'I' for Inactive)
REMARK    1  A    between atoms: C_2  and  C_20
REMARK    2  A    between atoms: N_3  and  C_4
REMARK    3  A    between atoms: C_4  and  C_5
REMARK    4  A    between atoms: C_8  and  N_9
REMARK    5  A    between atoms: N_9  and  C_10
REMARK    6  A    between atoms: C_10  and  C_11
REMARK    7  A    between atoms: C_11  and  C_12
REMARK                            x       y       z     vdW  Elec       q    Type
REMARK                         _______ _______ _______ _____ _____    ______ ____
ROOT
ATOM      1  C   UNL     1      45.479   6.816  12.379  0.00  0.00    +0.000 A 
ATOM      2  C   UNL     1      45.442   5.765  13.300  0.00  0.00    +0.000 A 
ATOM      3  C   UNL     1      45.242   4.453  12.867  0.00  0.00    +0.000 A 
ATOM      4  C   UNL     1      45.049   4.165  11.514  0.00  0.00    +0.000 A 
ATOM      5  C   UNL     1      45.204   5.203  10.590  0.00  0.00    +0.000 A 
ATOM      6  C   UNL     1      45.402   6.520  11.014  0.00  0.00    +0.000 A 
ENDROOT
BRANCH   4   7
ATOM      7  N   UNL     1      44.771   2.882  11.021  0.00  0.00    +0.000 N 
ATOM      8  H   UNL     1      44.075   2.432  11.616  0.00  0.00    +0.000 HD
BRANCH   7   9
ATOM      9  C   UNL     1      44.448   2.739   9.597  0.00  0.00    +0.000 C 
BRANCH   9  10
ATOM     10  C   UNL     1      45.164   1.526   8.980  0.00  0.00    +0.000 C 
BRANCH  10  11
ATOM     11  C   UNL     1      46.091   1.916   7.865  0.00  0.00    +0.000 A 
ATOM     12  C   UNL     1      46.006   3.166   7.250  0.00  0.00    +0.000 A 
ATOM     13  C   UNL     1      46.886   3.488   6.221  0.00  0.00    +0.000 A 
ATOM     14  C   UNL     1      47.830   2.547   5.845  0.00  0.00    +0.000 A 
ATOM     15  N   UNL     1      47.948   1.331   6.420  0.00  0.00    +0.000 NA
ATOM     16  C   UNL     1      47.076   1.042   7.411  0.00  0.00    +0.000 A 
ENDBRANCH  10  11
ENDBRANCH   9  10
ENDBRANCH   7   9
ENDBRANCH   4   7
BRANCH   1  17
ATOM     17  C   UNL     1      45.627   8.231  12.857  0.00  0.00    +0.000 C 
BRANCH  17  20
ATOM     18  O   UNL     1      48.221   8.253  13.850  0.00  0.00    +0.000 OA
ATOM     19  C   UNL     1      47.992   8.847  12.801  0.00  0.00    +0.000 C 
ATOM     20  N   UNL     1      46.747   8.875  12.226  0.00  0.00    +0.000 N 
ATOM     21  H   UNL     1      46.636   9.249  11.292  0.00  0.00    +0.000 HD
BRANCH  19  22
ATOM     22  C   UNL     1      49.017   9.581  12.075  0.00  0.00    +0.000 A 
ATOM     23  C   UNL     1      49.112  10.961  11.934  0.00  0.00    +0.000 A 
ATOM     24  N   UNL     1      50.279  11.247  11.271  0.00  0.00    +0.000 N 
ATOM     25  C   UNL     1      50.938  10.088  10.973  0.00  0.00    +0.000 A 
ATOM     26  N   UNL     1      52.135  10.033  10.360  0.00  0.00    +0.000 NA
ATOM     27  C   UNL     1      52.568   8.764  10.173  0.00  0.00    +0.000 A 
ATOM     28  C   UNL     1      51.877   7.611  10.518  0.00  0.00    +0.000 A 
ATOM     29  C   UNL     1      50.640   7.730  11.154  0.00  0.00    +0.000 A 
ATOM     30  C   UNL     1      50.159   9.025  11.415  0.00  0.00    +0.000 A 
ATOM     31  H   UNL     1      50.640  12.163  11.050  0.00  0.00    +0.000 HD
ENDBRANCH  19  22
ENDBRANCH  17  20
ENDBRANCH   1  17
TORSDOF 7
ENDMDL
MODEL 4
REMARK VINA RESULT:    -7.508      1.813      2.550
REMARK INTER + INTRA:         -11.458
REMARK INTER:                 -10.685
REMARK INTRA:                  -0.774
REMARK UNBOUND:                -0.877
REMARK  Name = 
REMARK  7 active torsions:
REMARK  status: ('A' for Active; 'I' for Inactive)
REMARK    1  A    between atoms: C_2  and  C_20
REMARK    2  A    between atoms: N_3  and  C_4
REMARK    3  A    between atoms: C_4  and  C_5
REMARK    4  A    between atoms: C_8  and  N_9
REMARK    5  A    between atoms: N_9  and  C_10
REMARK    6  A    between atoms: C_10  and  C_11
REMARK    7  A    between atoms: C_11  and  C_12
REMARK                            x       y       z     vdW  Elec       q    Type
REMARK                         _______ _______ _______ _____ _____    ______ ____
ROOT
ATOM      1  C   UNL     1      46.476   6.578  12.971  0.00  0.00    +0.000 A 
ATOM      2  C   UNL     1      45.587   7.315  12.184  0.00  0.00    +0.000 A 
ATOM      3  C   UNL     1      44.565   6.673  11.481  0.00  0.00    +0.000 A 
ATOM      4  C   UNL     1      44.426   5.283  11.528  0.00  0.00    +0.000 A 
ATOM      5  C   UNL     1      45.244   4.567  12.408  0.00  0.00    +0.000 A 
ATOM      6  C   UNL     1      46.270   5.202  13.113  0.00  0.00    +0.000 A 
ENDROOT
BRANCH   4   7
ATOM      7  N   UNL     1      43.470   4.570  10.792  0.00  0.00    +0.000 N 
ATOM      8  H   UNL     1      42.846   5.225  10.319  0.00  0.00    +0.000 HD
BRANCH   7   9
ATOM      9  C   UNL     1      43.935   3.510   9.890  0.00  0.00    +0.000 C 
BRANCH   9  10
ATOM     10  C   UNL     1      44.713   4.091   8.698  0.00  0.00    +0.000 C 
BRANCH  10  11
ATOM     11  C   UNL     1      45.655   3.093   8.088  0.00  0.00    +0.000 A 
ATOM     12  C   UNL     1      46.533   3.452   7.065  0.00  0.00    +0.000 A 
ATOM     13  C   UNL     1      47.391   2.496   6.529  0.00  0.00    +0.000 A 
ATOM     14  C   UNL     1      47.345   1.210   7.041  0.00  0.00    +0.000 A 
ATOM     15  N   UNL     1      46.515   0.827   8.035  0.00  0.00    +0.000 NA
ATOM     16  C   UNL     1      45.688   1.774   8.532  0.00  0.00    +0.000 A 
ENDBRANCH  10  11
ENDBRANCH   9  10
ENDBRANCH   7   9
ENDBRANCH   4   7
BRANCH   1  17
ATOM     17  C   UNL     1      47.612   7.268  13.669  0.00  0.00    +0.000 C 
BRANCH  17  20
ATOM     18  O   UNL     1      49.816   7.880  15.243  0.00  0.00    +0.000 OA
ATOM     19  C   UNL     1      49.141   6.899  15.540  0.00  0.00    +0.000 C 
ATOM     20  N   UNL     1      48.025   6.531  14.833  0.00  0.00    +0.000 N 
ATOM     21  H   UNL     1      47.419   5.807  15.197  0.00  0.00    +0.000 HD
BRANCH  19  22
ATOM     22  C   UNL     1      49.465   6.033  16.664  0.00  0.00    +0.000 A 
ATOM     23  C   UNL     1      48.565   5.366  17.489  0.00  0.00    +0.000 A 
ATOM     24  N   UNL     1      49.279   4.574  18.352  0.00  0.00    +0.000 N 
ATOM     25  C   UNL     1      50.616   4.717  18.113  0.00  0.00    +0.000 A 
ATOM     26  N   UNL     1      51.579   4.041  18.767  0.00  0.00    +0.000 NA
ATOM     27  C   UNL     1      52.824   4.368  18.349  0.00  0.00    +0.000 A 
ATOM     28  C   UNL     1      53.133   5.318  17.386  0.00  0.00    +0.000 A 
ATOM     29  C   UNL     1      52.092   5.986  16.738  0.00  0.00    +0.000 A 
ATOM     30  C   UNL     1      50.775   5.655  17.100  0.00  0.00    +0.000 A 
ATOM     31  H   UNL     1      48.903   3.947  19.048  0.00  0.00    +0.000 HD
ENDBRANCH  19  22
ENDBRANCH  17  20
ENDBRANCH   1  17
TORSDOF 7
ENDMDL
MODEL 5
REMARK VINA RESULT:    -7.472      2.440      3.493
REMARK INTER + INTRA:         -11.407
REMARK INTER:                 -10.352
REMARK INTRA:                  -1.055
REMARK UNBOUND:                -0.877
REMARK  Name = 
REMARK  7 active torsions:
REMARK  status: ('A' for Active; 'I' for Inactive)
REMARK    1  A    between atoms: C_2  and  C_20
REMARK    2  A    between atoms: N_3  and  C_4
REMARK    3  A    between atoms: C_4  and  C_5
REMARK    4  A    between atoms: C_8  and  N_9
REMARK    5  A    between atoms: N_9  and  C_10
REMARK    6  A    between atoms: C_10  and  C_11
REMARK    7  A    between atoms: C_11  and  C_12
REMARK                            x       y       z     vdW  Elec       q    Type
REMARK                         _______ _______ _______ _____ _____    ______ ____
ROOT
ATOM      1  C   UNL     1      45.326   7.081  12.181  0.00  0.00    +0.000 A 
ATOM      2  C   UNL     1      44.507   6.255  12.955  0.00  0.00    +0.000 A 
ATOM      3  C   UNL     1      44.292   4.925  12.586  0.00  0.00    +0.000 A 
ATOM      4  C   UNL     1      44.866   4.401  11.426  0.00  0.00    +0.000 A 
ATOM      5  C   UNL     1      45.775   5.198  10.722  0.00  0.00    +0.000 A 
ATOM      6  C   UNL     1      45.995   6.529  11.083  0.00  0.00    +0.000 A 
ENDROOT
BRANCH   4   7
ATOM      7  N   UNL     1      44.633   3.100  10.959  0.00  0.00    +0.000 N 
ATOM      8  H   UNL     1      43.947   2.641  11.559  0.00  0.00    +0.000 HD
BRANCH   7   9
ATOM      9  C   UNL     1      44.325   2.916   9.536  0.00  0.00    +0.000 C 
BRANCH   9  10
ATOM     10  C   UNL     1      44.999   1.652   8.977  0.00  0.00    +0.000 C 
BRANCH  10  11
ATOM     11  C   UNL     1      45.991   1.966   7.893  0.00  0.00    +0.000 A 
ATOM     12  C   UNL     1      45.943   3.169   7.188  0.00  0.00    +0.000 A 
ATOM     13  C   UNL     1      46.883   3.420   6.193  0.00  0.00    +0.000 A 
ATOM     14  C   UNL     1      47.846   2.457   5.940  0.00  0.00    +0.000 A 
ATOM     15  N   UNL     1      47.929   1.285   6.605  0.00  0.00    +0.000 NA
ATOM     16  C   UNL     1      46.999   1.064   7.561  0.00  0.00    +0.000 A 
ENDBRANCH  10  11
ENDBRANCH   9  10
ENDBRANCH   7   9
ENDBRANCH   4   7
BRANCH   1  17
ATOM     17  C   UNL     1      45.498   8.527  12.547  0.00  0.00    +0.000 C 
BRANCH  17  20
ATOM     18  O   UNL     1      48.215   9.077  12.384  0.00  0.00    +0.000 OA
ATOM     19  C   UNL     1      47.715   8.927  13.495  0.00  0.00    +0.000 C 
ATOM     20  N   UNL     1      46.380   8.672  13.673  0.00  0.00    +0.000 N 
ATOM     21  H   UNL     1      45.985   8.702  14.605  0.00  0.00    +0.000 HD
BRANCH  19  22
ATOM     22  C   UNL     1      48.493   9.000  14.723  0.00  0.00    +0.000 A 
ATOM     23  C   UNL     1      49.003  10.149  15.319  0.00  0.00    +0.000 A 
ATOM     24  N   UNL     1      49.577   9.794  16.513  0.00  0.00    +0.000 N 
ATOM     25  C   UNL     1      49.459   8.447  16.702  0.00  0.00    +0.000 A 
ATOM     26  N   UNL     1      49.887   7.795  17.799  0.00  0.00    +0.000 NA
ATOM     27  C   UNL     1      49.660   6.462  17.737  0.00  0.00    +0.000 A 
ATOM     28  C   UNL     1      49.089   5.785  16.669  0.00  0.00    +0.000 A 
ATOM     29  C   UNL     1      48.661   6.514  15.558  0.00  0.00    +0.000 A 
ATOM     30  C   UNL     1      48.832   7.909  15.584  0.00  0.00    +0.000 A 
ATOM     31  H   UNL     1      50.003  10.414  17.187  0.00  0.00    +0.000 HD
ENDBRANCH  19  22
ENDBRANCH  17  20
ENDBRANCH   1  17
TORSDOF 7
ENDMDL
MODEL 6
REMARK VINA RESULT:    -7.267      2.768      9.390
REMARK INTER + INTRA:         -11.119
REMARK INTER:                 -10.136
REMARK INTRA:                  -0.983
REMARK UNBOUND:                -0.877
REMARK  Name = 
REMARK  7 active torsions:
REMARK  status: ('A' for Active; 'I' for Inactive)
REMARK    1  A    between atoms: C_2  and  C_20
REMARK    2  A    between atoms: N_3  and  C_4
REMARK    3  A    between atoms: C_4  and  C_5
REMARK    4  A    between atoms: C_8  and  N_9
REMARK    5  A    between atoms: N_9  and  C_10
REMARK    6  A    between atoms: C_10  and  C_11
REMARK    7  A    between atoms: C_11  and  C_12
REMARK                            x       y       z     vdW  Elec       q    Type
REMARK                         _______ _______ _______ _____ _____    ______ ____
ROOT
ATOM      1  C   UNL     1      46.191   7.350  12.120  0.00  0.00    +0.000 A 
ATOM      2  C   UNL     1      46.121   8.536  12.856  0.00  0.00    +0.000 A 
ATOM      3  C   UNL     1      47.167   8.906  13.703  0.00  0.00    +0.000 A 
ATOM      4  C   UNL     1      48.291   8.089  13.853  0.00  0.00    +0.000 A 
ATOM      5  C   UNL     1      48.406   6.966  13.028  0.00  0.00    +0.000 A 
ATOM      6  C   UNL     1      47.362   6.588  12.178  0.00  0.00    +0.000 A 
ENDROOT
BRANCH   4   7
ATOM      7  N   UNL     1      49.342   8.363  14.740  0.00  0.00    +0.000 N 
ATOM      8  H   UNL     1      49.116   9.193  15.290  0.00  0.00    +0.000 HD
BRANCH   7   9
ATOM      9  C   UNL     1      49.846   7.271  15.581  0.00  0.00    +0.000 C 
BRANCH   9  10
ATOM     10  C   UNL     1      48.798   6.834  16.617  0.00  0.00    +0.000 C 
BRANCH  10  11
ATOM     11  C   UNL     1      48.643   5.342  16.680  0.00  0.00    +0.000 A 
ATOM     12  C   UNL     1      49.528   4.547  17.409  0.00  0.00    +0.000 A 
ATOM     13  C   UNL     1      49.346   3.168  17.442  0.00  0.00    +0.000 A 
ATOM     14  C   UNL     1      48.277   2.629  16.746  0.00  0.00    +0.000 A 
ATOM     15  N   UNL     1      47.396   3.365  16.036  0.00  0.00    +0.000 NA
ATOM     16  C   UNL     1      47.600   4.701  16.015  0.00  0.00    +0.000 A 
ENDBRANCH  10  11
ENDBRANCH   9  10
ENDBRANCH   7   9
ENDBRANCH   4   7
BRANCH   1  17
ATOM     17  C   UNL     1      45.033   6.926  11.263  0.00  0.00    +0.000 C 
BRANCH  17  20
ATOM     18  O   UNL     1      43.118   5.054  10.528  0.00  0.00    +0.000 OA
ATOM     19  C   UNL     1      44.297   4.806  10.295  0.00  0.00    +0.000 C 
ATOM     20  N   UNL     1      45.309   5.678  10.605  0.00  0.00    +0.000 N 
ATOM     21  H   UNL     1      46.245   5.499  10.264  0.00  0.00    +0.000 HD
BRANCH  19  22
ATOM     22  C   UNL     1      44.730   3.562   9.675  0.00  0.00    +0.000 A 
ATOM     23  C   UNL     1      44.310   2.278  10.002  0.00  0.00    +0.000 A 
ATOM     24  N   UNL     1      44.874   1.401   9.111  0.00  0.00    +0.000 N 
ATOM     25  C   UNL     1      45.654   2.083   8.220  0.00  0.00    +0.000 A 
ATOM     26  N   UNL     1      46.311   1.511   7.195  0.00  0.00    +0.000 NA
ATOM     27  C   UNL     1      47.019   2.404   6.465  0.00  0.00    +0.000 A 
ATOM     28  C   UNL     1      47.124   3.763   6.724  0.00  0.00    +0.000 A 
ATOM     29  C   UNL     1      46.417   4.301   7.800  0.00  0.00    +0.000 A 
ATOM     30  C   UNL     1      45.628   3.428   8.570  0.00  0.00    +0.000 A 
ATOM     31  H   UNL     1      44.731   0.403   9.072  0.00  0.00    +0.000 HD
ENDBRANCH  19  22
ENDBRANCH  17  20
ENDBRANCH   1  17
TORSDOF 7
ENDMDL
MODEL 7
REMARK VINA RESULT:    -7.130      1.846      2.599
REMARK INTER + INTRA:         -10.925
REMARK INTER:                 -10.173
REMARK INTRA:                  -0.751
REMARK UNBOUND:                -0.877
REMARK  Name = 
REMARK  7 active torsions:
REMARK  status: ('A' for Active; 'I' for Inactive)
REMARK    1  A    between atoms: C_2  and  C_20
REMARK    2  A    between atoms: N_3  and  C_4
REMARK    3  A    between atoms: C_4  and  C_5
REMARK    4  A    between atoms: C_8  and  N_9
REMARK    5  A    between atoms: N_9  and  C_10
REMARK    6  A    between atoms: C_10  and  C_11
REMARK    7  A    between atoms: C_11  and  C_12
REMARK                            x       y       z     vdW  Elec       q    Type
REMARK                         _______ _______ _______ _____ _____    ______ ____
ROOT
ATOM      1  C   UNL     1      47.117   8.272  13.075  0.00  0.00    +0.000 A 
ATOM      2  C   UNL     1      45.792   8.629  12.812  0.00  0.00    +0.000 A 
ATOM      3  C   UNL     1      45.011   7.861  11.946  0.00  0.00    +0.000 A 
ATOM      4  C   UNL     1      45.542   6.738  11.306  0.00  0.00    +0.000 A 
ATOM      5  C   UNL     1      46.828   6.322  11.664  0.00  0.00    +0.000 A 
ATOM      6  C   UNL     1      47.617   7.085  12.528  0.00  0.00    +0.000 A 
ENDROOT
BRANCH   4   7
ATOM      7  N   UNL     1      44.837   5.967  10.371  0.00  0.00    +0.000 N 
ATOM      8  H   UNL     1      45.038   6.305   9.430  0.00  0.00    +0.000 HD
BRANCH   7   9
ATOM      9  C   UNL     1      44.936   4.505  10.459  0.00  0.00    +0.000 C 
BRANCH   9  10
ATOM     10  C   UNL     1      44.375   3.830   9.197  0.00  0.00    +0.000 C 
BRANCH  10  11
ATOM     11  C   UNL     1      45.417   3.037   8.462  0.00  0.00    +0.000 A 
ATOM     12  C   UNL     1      46.282   3.641   7.548  0.00  0.00    +0.000 A 
ATOM     13  C   UNL     1      47.235   2.870   6.890  0.00  0.00    +0.000 A 
ATOM     14  C   UNL     1      47.294   1.516   7.173  0.00  0.00    +0.000 A 
ATOM     15  N   UNL     1      46.481   0.897   8.055  0.00  0.00    +0.000 NA
ATOM     16  C   UNL     1      45.560   1.668   8.675  0.00  0.00    +0.000 A 
ENDBRANCH  10  11
ENDBRANCH   9  10
ENDBRANCH   7   9
ENDBRANCH   4   7
BRANCH   1  17
ATOM     17  C   UNL     1      47.971   9.140  13.953  0.00  0.00    +0.000 C 
BRANCH  17  20
ATOM     18  O   UNL     1      49.892   8.121  15.680  0.00  0.00    +0.000 OA
ATOM     19  C   UNL     1      48.762   8.320  16.116  0.00  0.00    +0.000 C 
ATOM     20  N   UNL     1      47.756   8.838  15.342  0.00  0.00    +0.000 N 
ATOM     21  H   UNL     1      46.887   9.122  15.777  0.00  0.00    +0.000 HD
BRANCH  19  22
ATOM     22  C   UNL     1      48.385   8.019  17.489  0.00  0.00    +0.000 A 
ATOM     23  C   UNL     1      47.656   8.832  18.350  0.00  0.00    +0.000 A 
ATOM     24  N   UNL     1      47.426   8.134  19.508  0.00  0.00    +0.000 N 
ATOM     25  C   UNL     1      47.994   6.895  19.423  0.00  0.00    +0.000 A 
ATOM     26  N   UNL     1      47.910   5.955  20.383  0.00  0.00    +0.000 NA
ATOM     27  C   UNL     1      48.566   4.816  20.058  0.00  0.00    +0.000 A 
ATOM     28  C   UNL     1      49.294   4.602  18.896  0.00  0.00    +0.000 A 
ATOM     29  C   UNL     1      49.343   5.612  17.934  0.00  0.00    +0.000 A 
ATOM     30  C   UNL     1      48.644   6.803  18.197  0.00  0.00    +0.000 A 
ATOM     31  H   UNL     1      46.896   8.448  20.308  0.00  0.00    +0.000 HD
ENDBRANCH  19  22
ENDBRANCH  17  20
ENDBRANCH   1  17
TORSDOF 7
ENDMDL
MODEL 8
REMARK VINA RESULT:    -7.106      2.331      9.087
REMARK INTER + INTRA:         -10.891
REMARK INTER:                  -9.579
REMARK INTRA:                  -1.312
REMARK UNBOUND:                -0.877
REMARK  Name = 
REMARK  7 active torsions:
REMARK  status: ('A' for Active; 'I' for Inactive)
REMARK    1  A    between atoms: C_2  and  C_20
REMARK    2  A    between atoms: N_3  and  C_4
REMARK    3  A    between atoms: C_4  and  C_5
REMARK    4  A    between atoms: C_8  and  N_9
REMARK    5  A    between atoms: N_9  and  C_10
REMARK    6  A    between atoms: C_10  and  C_11
REMARK    7  A    between atoms: C_11  and  C_12
REMARK                            x       y       z     vdW  Elec       q    Type
REMARK                         _______ _______ _______ _____ _____    ______ ____
ROOT
ATOM      1  C   UNL     1      48.034   7.990  13.615  0.00  0.00    +0.000 A 
ATOM      2  C   UNL     1      48.033   9.189  14.332  0.00  0.00    +0.000 A 
ATOM      3  C   UNL     1      48.456   9.218  15.663  0.00  0.00    +0.000 A 
ATOM      4  C   UNL     1      48.862   8.050  16.312  0.00  0.00    +0.000 A 
ATOM      5  C   UNL     1      48.971   6.878  15.556  0.00  0.00    +0.000 A 
ATOM      6  C   UNL     1      48.548   6.840  14.224  0.00  0.00    +0.000 A 
ENDROOT
BRANCH   4   7
ATOM      7  N   UNL     1      49.228   7.996  17.664  0.00  0.00    +0.000 N 
ATOM      8  H   UNL     1      49.586   8.905  17.957  0.00  0.00    +0.000 HD
BRANCH   7   9
ATOM      9  C   UNL     1      48.261   7.454  18.626  0.00  0.00    +0.000 C 
BRANCH   9  10
ATOM     10  C   UNL     1      48.779   6.159  19.271  0.00  0.00    +0.000 C 
BRANCH  10  11
ATOM     11  C   UNL     1      48.490   4.947  18.433  0.00  0.00    +0.000 A 
ATOM     12  C   UNL     1      49.498   4.049  18.079  0.00  0.00    +0.000 A 
ATOM     13  C   UNL     1      49.186   2.937  17.302  0.00  0.00    +0.000 A 
ATOM     14  C   UNL     1      47.870   2.757  16.911  0.00  0.00    +0.000 A 
ATOM     15  N   UNL     1      46.867   3.599  17.240  0.00  0.00    +0.000 NA
ATOM     16  C   UNL     1      47.199   4.674  17.988  0.00  0.00    +0.000 A 
ENDBRANCH  10  11
ENDBRANCH   9  10
ENDBRANCH   7   9
ENDBRANCH   4   7
BRANCH   1  17
ATOM     17  C   UNL     1      47.515   7.954  12.207  0.00  0.00    +0.000 C 
BRANCH  17  20
ATOM     18  O   UNL     1      44.848   7.192  12.348  0.00  0.00    +0.000 OA
ATOM     19  C   UNL     1      45.676   6.358  11.994  0.00  0.00    +0.000 C 
ATOM     20  N   UNL     1      47.011   6.649  11.877  0.00  0.00    +0.000 N 
ATOM     21  H   UNL     1      47.632   5.977  11.443  0.00  0.00    +0.000 HD
BRANCH  19  22
ATOM     22  C   UNL     1      45.318   4.985  11.672  0.00  0.00    +0.000 A 
ATOM     23  C   UNL     1      44.892   4.004  12.561  0.00  0.00    +0.000 A 
ATOM     24  N   UNL     1      44.555   2.886  11.839  0.00  0.00    +0.000 N 
ATOM     25  C   UNL     1      44.759   3.116  10.508  0.00  0.00    +0.000 A 
ATOM     26  N   UNL     1      44.484   2.228   9.536  0.00  0.00    +0.000 NA
ATOM     27  C   UNL     1      44.784   2.695   8.301  0.00  0.00    +0.000 A 
ATOM     28  C   UNL     1      45.352   3.929   8.016  0.00  0.00    +0.000 A 
ATOM     29  C   UNL     1      45.613   4.810   9.065  0.00  0.00    +0.000 A 
ATOM     30  C   UNL     1      45.281   4.397  10.368  0.00  0.00    +0.000 A 
ATOM     31  H   UNL     1      44.182   2.022  12.203  0.00  0.00    +0.000 HD
ENDBRANCH  19  22
ENDBRANCH  17  20
ENDBRANCH   1  17
TORSDOF 7
ENDMDL
MODEL 9
REMARK VINA RESULT:    -6.985      1.986      2.341
REMARK INTER + INTRA:         -10.721
REMARK INTER:                 -10.017
REMARK INTRA:                  -0.704
REMARK UNBOUND:                -0.877
REMARK  Name = 
REMARK  7 active torsions:
REMARK  status: ('A' for Active; 'I' for Inactive)
REMARK    1  A    between atoms: C_2  and  C_20
REMARK    2  A    between atoms: N_3  and  C_4
REMARK    3  A    between atoms: C_4  and  C_5
REMARK    4  A    between atoms: C_8  and  N_9
REMARK    5  A    between atoms: N_9  and  C_10
REMARK    6  A    between atoms: C_10  and  C_11
REMARK    7  A    between atoms: C_11  and  C_12
REMARK                            x       y       z     vdW  Elec       q    Type
REMARK                         _______ _______ _______ _____ _____    ______ ____
ROOT
ATOM      1  C   UNL     1      46.452   7.098  12.934  0.00  0.00    +0.000 A 
ATOM      2  C   UNL     1      45.446   7.468  12.038  0.00  0.00    +0.000 A 
ATOM      3  C   UNL     1      44.663   6.495  11.413  0.00  0.00    +0.000 A 
ATOM      4  C   UNL     1      44.885   5.136  11.647  0.00  0.00    +0.000 A 
ATOM      5  C   UNL     1      45.813   4.779  12.631  0.00  0.00    +0.000 A 
ATOM      6  C   UNL     1      46.602   5.746  13.260  0.00  0.00    +0.000 A 
ENDROOT
BRANCH   4   7
ATOM      7  N   UNL     1      44.186   4.108  10.999  0.00  0.00    +0.000 N 
ATOM      8  H   UNL     1      43.202   4.143  11.268  0.00  0.00    +0.000 HD
BRANCH   7   9
ATOM      9  C   UNL     1      44.351   3.962   9.548  0.00  0.00    +0.000 C 
BRANCH   9  10
ATOM     10  C   UNL     1      44.626   2.500   9.160  0.00  0.00    +0.000 C 
BRANCH  10  11
ATOM     11  C   UNL     1      45.679   2.379   8.097  0.00  0.00    +0.000 A 
ATOM     12  C   UNL     1      45.909   3.404   7.179  0.00  0.00    +0.000 A 
ATOM     13  C   UNL     1      46.897   3.251   6.210  0.00  0.00    +0.000 A 
ATOM     14  C   UNL     1      47.628   2.076   6.198  0.00  0.00    +0.000 A 
ATOM     15  N   UNL     1      47.441   1.065   7.074  0.00  0.00    +0.000 NA
ATOM     16  C   UNL     1      46.470   1.237   7.998  0.00  0.00    +0.000 A 
ENDBRANCH  10  11
ENDBRANCH   9  10
ENDBRANCH   7   9
ENDBRANCH   4   7
BRANCH   1  17
ATOM     17  C   UNL     1      47.334   8.145  13.551  0.00  0.00    +0.000 C 
BRANCH  17  20
ATOM     18  O   UNL     1      49.285   9.442  15.041  0.00  0.00    +0.000 OA
ATOM     19  C   UNL     1      48.769   8.432  15.509  0.00  0.00    +0.000 C 
ATOM     20  N   UNL     1      47.784   7.738  14.855  0.00  0.00    +0.000 N 
ATOM     21  H   UNL     1      47.285   7.001  15.338  0.00  0.00    +0.000 HD
BRANCH  19  22
ATOM     22  C   UNL     1      49.155   7.877  16.797  0.00  0.00    +0.000 A 
ATOM     23  C   UNL     1      50.183   6.971  17.040  0.00  0.00    +0.000 A 
ATOM     24  N   UNL     1      50.284   6.789  18.396  0.00  0.00    +0.000 N 
ATOM     25  C   UNL     1      49.345   7.546  19.036  0.00  0.00    +0.000 A 
ATOM     26  N   UNL     1      49.213   7.618  20.374  0.00  0.00    +0.000 NA
ATOM     27  C   UNL     1      48.202   8.431  20.757  0.00  0.00    +0.000 A 
ATOM     28  C   UNL     1      47.339   9.109  19.906  0.00  0.00    +0.000 A 
ATOM     29  C   UNL     1      47.525   8.999  18.528  0.00  0.00    +0.000 A 
ATOM     30  C   UNL     1      48.589   8.201  18.071  0.00  0.00    +0.000 A 
ATOM     31  H   UNL     1      50.958   6.214  18.880  0.00  0.00    +0.000 HD
ENDBRANCH  19  22
ENDBRANCH  17  20
ENDBRANCH   1  17
TORSDOF 7
ENDMDL
