MODEL 1
REMARK VINA RESULT:    -7.795      0.000      0.000
REMARK INTER + INTRA:         -12.083
REMARK INTER:                 -10.985
REMARK INTRA:                  -1.099
REMARK UNBOUND:                -1.099
REMARK  Name = 
REMARK  8 active torsions:
REMARK  status: ('A' for Active; 'I' for Inactive)
REMARK    1  A    between atoms: C_1  and  O_2
REMARK    2  A    between atoms: O_2  and  C_3
REMARK    3  A    between atoms: C_7  and  C_8
REMARK    4  A    between atoms: C_8  and  N_9
REMARK    5  A    between atoms: N_9  and  C_10
REMARK    6  A    between atoms: C_13  and  C_14
REMARK    7  A    between atoms: C_14  and  N_15
REMARK    8  A    between atoms: C_16  and  C_18
REMARK                            x       y       z     vdW  Elec       q    Type
REMARK                         _______ _______ _______ _____ _____    ______ ____
ROOT
ATOM      1  C   UNL     1      45.333   6.707  11.726  0.00  0.00    +0.000 C 
ATOM      2  C   UNL     1      45.099   8.146  12.205  0.00  0.00    +0.000 C 
ATOM      3  C   UNL     1      46.094   8.556  13.287  0.00  0.00    +0.000 C 
ATOM      4  C   UNL     1      47.549   8.372  12.829  0.00  0.00    +0.000 C 
ATOM      5  C   UNL     1      47.779   6.930  12.363  0.00  0.00    +0.000 C 
ATOM      6  C   UNL     1      46.792   6.521  11.279  0.00  0.00    +0.000 C 
ENDROOT
BRANCH   1   7
ATOM      7  N   UNL     1      44.382   6.443  10.641  0.00  0.00    +0.000 NA
ATOM      8  H   UNL     1      43.627   7.133  10.689  0.00  0.00    +0.000 HD
BRANCH   7   9
ATOM      9  C   UNL     1      43.770   5.115  10.735  0.00  0.00    +0.000 C 
BRANCH   9  14
ATOM     10  C   UNL     1      45.741   3.759   7.949  0.00  0.00    +0.000 A 
ATOM     11  C   UNL     1      45.644   2.382   8.077  0.00  0.00    +0.000 A 
ATOM     12  C   UNL     1      44.903   1.868   9.138  0.00  0.00    +0.000 A 
ATOM     13  C   UNL     1      44.286   2.746  10.022  0.00  0.00    +0.000 A 
ATOM     14  C   UNL     1      44.433   4.118   9.816  0.00  0.00    +0.000 A 
ATOM     15  N   UNL     1      45.153   4.628   8.792  0.00  0.00    +0.000 NA
BRANCH  10  17
ATOM     16  C   UNL     1      46.864   3.207   5.987  0.00  0.00    +0.000 C 
ATOM     17  O   UNL     1      46.484   4.241   6.893  0.00  0.00    +0.000 OA
ENDBRANCH  10  17
ENDBRANCH   9  14
ENDBRANCH   7   9
ENDBRANCH   1   7
BRANCH   4  18
ATOM     18  C   UNL     1      48.565   8.713  13.927  0.00  0.00    +0.000 C 
BRANCH  18  19
ATOM     19  N   UNL     1      48.485   7.809  15.052  0.00  0.00    +0.000 N 
ATOM     20  C   UNL     1      49.608   7.273  15.630  0.00  0.00    +0.000 C 
ATOM     21  O   UNL     1      50.741   7.578  15.261  0.00  0.00    +0.000 OA
ATOM     22  H   UNL     1      47.571   7.428  15.280  0.00  0.00    +0.000 HD
BRANCH  20  23
ATOM     23  C   UNL     1      49.404   6.334  16.736  0.00  0.00    +0.000 A 
ATOM     24  C   UNL     1      50.119   6.515  17.912  0.00  0.00    +0.000 A 
ATOM     25  S   UNL     1      49.786   5.344  19.102  0.00  0.00    +0.000 S 
ATOM     26  C   UNL     1      48.704   4.529  18.074  0.00  0.00    +0.000 A 
ATOM     27  N   UNL     1      48.083   3.390  18.481  0.00  0.00    +0.000 NA
ATOM     28  C   UNL     1      47.313   2.857  17.594  0.00  0.00    +0.000 A 
ATOM     29  N   UNL     1      47.096   3.366  16.340  0.00  0.00    +0.000 N 
ATOM     30  C   UNL     1      47.661   4.543  15.903  0.00  0.00    +0.000 A 
ATOM     31  O   UNL     1      47.376   5.018  14.808  0.00  0.00    +0.000 OA
ATOM     32  C   UNL     1      48.570   5.162  16.849  0.00  0.00    +0.000 A 
ATOM     33  H   UNL     1      46.461   2.909  15.703  0.00  0.00    +0.000 HD
ENDBRANCH  20  23
ENDBRANCH  18  19
ENDBRANCH   4  18
TORSDOF 7
ENDMDL
MODEL 2
REMARK VINA RESULT:    -7.794      1.554      1.869
REMARK INTER + INTRA:         -12.082
REMARK INTER:                 -11.094
REMARK INTRA:                  -0.987
REMARK UNBOUND:                -1.099
REMARK  Name = 
REMARK  8 active torsions:
REMARK  status: ('A' for Active; 'I' for Inactive)
REMARK    1  A    between atoms: C_1  and  O_2
REMARK    2  A    between atoms: O_2  and  C_3
REMARK    3  A    between atoms: C_7  and  C_8
REMARK    4  A    between atoms: C_8  and  N_9
REMARK    5  A    between atoms: N_9  and  C_10
REMARK    6  A    between atoms: C_13  and  C_14
REMARK    7  A    between atoms: C_14  and  N_15
REMARK    8  A    between atoms: C_16  and  C_18
REMARK                            x       y       z     vdW  Elec       q    Type
REMARK                         _______ _______ _______ _____ _____    ______ ____
ROOT
ATOM      1  C   UNL     1      44.555   5.338  12.464  0.00  0.00    +0.000 C 
ATOM      2  C   UNL     1      45.034   6.527  11.621  0.00  0.00    +0.000 C 
ATOM      3  C   UNL     1      46.135   7.317  12.322  0.00  0.00    +0.000 C 
ATOM      4  C   UNL     1      47.321   6.424  12.714  0.00  0.00    +0.000 C 
ATOM      5  C   UNL     1      46.838   5.245  13.566  0.00  0.00    +0.000 C 
ATOM      6  C   UNL     1      45.744   4.451  12.865  0.00  0.00    +0.000 C 
ENDROOT
BRANCH   1   7
ATOM      7  N   UNL     1      43.561   4.607  11.670  0.00  0.00    +0.000 NA
ATOM      8  H   UNL     1      43.748   3.604  11.750  0.00  0.00    +0.000 HD
BRANCH   7   9
ATOM      9  C   UNL     1      43.609   4.952  10.246  0.00  0.00    +0.000 C 
BRANCH   9  14
ATOM     10  C   UNL     1      45.805   3.584   7.640  0.00  0.00    +0.000 A 
ATOM     11  C   UNL     1      45.902   2.231   7.926  0.00  0.00    +0.000 A 
ATOM     12  C   UNL     1      45.220   1.741   9.036  0.00  0.00    +0.000 A 
ATOM     13  C   UNL     1      44.468   2.616   9.812  0.00  0.00    +0.000 A 
ATOM     14  C   UNL     1      44.424   3.962   9.449  0.00  0.00    +0.000 A 
ATOM     15  N   UNL     1      45.085   4.450   8.376  0.00  0.00    +0.000 NA
BRANCH  10  17
ATOM     16  C   UNL     1      47.059   2.980   5.776  0.00  0.00    +0.000 C 
ATOM     17  O   UNL     1      46.493   4.044   6.538  0.00  0.00    +0.000 OA
ENDBRANCH  10  17
ENDBRANCH   9  14
ENDBRANCH   7   9
ENDBRANCH   1   7
BRANCH   4  18
ATOM     18  C   UNL     1      48.409   7.186  13.483  0.00  0.00    +0.000 C 
BRANCH  18  19
ATOM     19  N   UNL     1      48.196   7.159  14.912  0.00  0.00    +0.000 N 
ATOM     20  C   UNL     1      49.223   6.922  15.791  0.00  0.00    +0.000 C 
ATOM     21  O   UNL     1      50.385   6.782  15.416  0.00  0.00    +0.000 OA
ATOM     22  H   UNL     1      47.235   7.124  15.239  0.00  0.00    +0.000 HD
BRANCH  20  23
ATOM     23  C   UNL     1      48.881   6.874  17.215  0.00  0.00    +0.000 A 
ATOM     24  C   UNL     1      48.546   8.053  17.867  0.00  0.00    +0.000 A 
ATOM     25  S   UNL     1      48.184   7.843  19.517  0.00  0.00    +0.000 S 
ATOM     26  C   UNL     1      48.500   6.174  19.430  0.00  0.00    +0.000 A 
ATOM     27  N   UNL     1      48.408   5.391  20.537  0.00  0.00    +0.000 NA
ATOM     28  C   UNL     1      48.705   4.151  20.338  0.00  0.00    +0.000 A 
ATOM     29  N   UNL     1      49.072   3.619  19.129  0.00  0.00    +0.000 N 
ATOM     30  C   UNL     1      49.129   4.363  17.972  0.00  0.00    +0.000 A 
ATOM     31  O   UNL     1      49.374   3.838  16.890  0.00  0.00    +0.000 OA
ATOM     32  C   UNL     1      48.844   5.774  18.149  0.00  0.00    +0.000 A 
ATOM     33  H   UNL     1      49.268   2.634  19.040  0.00  0.00    +0.000 HD
ENDBRANCH  20  23
ENDBRANCH  18  19
ENDBRANCH   4  18
TORSDOF 7
ENDMDL
MODEL 3
REMARK VINA RESULT:    -7.160      2.315      3.311
REMARK INTER + INTRA:         -11.189
REMARK INTER:                 -10.519
REMARK INTRA:                  -0.669
REMARK UNBOUND:                -1.099
REMARK  Name = 
REMARK  8 active torsions:
REMARK  status: ('A' for Active; 'I' for Inactive)
REMARK    1  A    between atoms: C_1  and  O_2
REMARK    2  A    between atoms: O_2  and  C_3
REMARK    3  A    between atoms: C_7  and  C_8
REMARK    4  A    between atoms: C_8  and  N_9
REMARK    5  A    between atoms: N_9  and  C_10
REMARK    6  A    between atoms: C_13  and  C_14
REMARK    7  A    between atoms: C_14  and  N_15
REMARK    8  A    between atoms: C_16  and  C_18
REMARK                            x       y       z     vdW  Elec       q    Type
REMARK                         _______ _______ _______ _____ _____    ______ ____
ROOT
ATOM      1  C   UNL     1      45.210   4.406  11.388  0.00  0.00    +0.000 C 
ATOM      2  C   UNL     1      46.080   4.532  12.646  0.00  0.00    +0.000 C 
ATOM      3  C   UNL     1      46.626   5.946  12.822  0.00  0.00    +0.000 C 
ATOM      4  C   UNL     1      45.506   6.997  12.836  0.00  0.00    +0.000 C 
ATOM      5  C   UNL     1      44.649   6.873  11.571  0.00  0.00    +0.000 C 
ATOM      6  C   UNL     1      44.097   5.465  11.397  0.00  0.00    +0.000 C 
ENDROOT
BRANCH   1   7
ATOM      7  N   UNL     1      44.676   3.039  11.357  0.00  0.00    +0.000 NA
ATOM      8  H   UNL     1      45.442   2.382  11.531  0.00  0.00    +0.000 HD
BRANCH   7   9
ATOM      9  C   UNL     1      44.085   2.692  10.062  0.00  0.00    +0.000 C 
BRANCH   9  14
ATOM     10  C   UNL     1      46.671   1.606   7.691  0.00  0.00    +0.000 A 
ATOM     11  C   UNL     1      46.982   2.740   6.954  0.00  0.00    +0.000 A 
ATOM     12  C   UNL     1      46.302   3.920   7.241  0.00  0.00    +0.000 A 
ATOM     13  C   UNL     1      45.346   3.924   8.251  0.00  0.00    +0.000 A 
ATOM     14  C   UNL     1      45.099   2.739   8.944  0.00  0.00    +0.000 A 
ATOM     15  N   UNL     1      45.750   1.587   8.672  0.00  0.00    +0.000 NA
BRANCH  10  17
ATOM     16  C   UNL     1      46.566  -0.716   7.604  0.00  0.00    +0.000 C 
ATOM     17  O   UNL     1      47.356   0.450   7.384  0.00  0.00    +0.000 OA
ENDBRANCH  10  17
ENDBRANCH   9  14
ENDBRANCH   7   9
ENDBRANCH   1   7
BRANCH   4  18
ATOM     18  C   UNL     1      46.039   8.432  12.942  0.00  0.00    +0.000 C 
BRANCH  18  19
ATOM     19  N   UNL     1      46.738   8.671  14.184  0.00  0.00    +0.000 N 
ATOM     20  C   UNL     1      48.107   8.725  14.245  0.00  0.00    +0.000 C 
ATOM     21  O   UNL     1      48.809   8.633  13.240  0.00  0.00    +0.000 OA
ATOM     22  H   UNL     1      46.198   8.603  15.042  0.00  0.00    +0.000 HD
BRANCH  20  23
ATOM     23  C   UNL     1      48.708   8.928  15.566  0.00  0.00    +0.000 A 
ATOM     24  C   UNL     1      48.855  10.223  16.045  0.00  0.00    +0.000 A 
ATOM     25  S   UNL     1      49.576  10.304  17.585  0.00  0.00    +0.000 S 
ATOM     26  C   UNL     1      49.752   8.614  17.651  0.00  0.00    +0.000 A 
ATOM     27  N   UNL     1      50.347   8.018  18.719  0.00  0.00    +0.000 NA
ATOM     28  C   UNL     1      50.445   6.735  18.627  0.00  0.00    +0.000 A 
ATOM     29  N   UNL     1      49.989   5.990  17.570  0.00  0.00    +0.000 N 
ATOM     30  C   UNL     1      49.336   6.543  16.492  0.00  0.00    +0.000 A 
ATOM     31  O   UNL     1      48.861   5.840  15.605  0.00  0.00    +0.000 OA
ATOM     32  C   UNL     1      49.236   7.990  16.527  0.00  0.00    +0.000 A 
ATOM     33  H   UNL     1      50.078   4.985  17.574  0.00  0.00    +0.000 HD
ENDBRANCH  20  23
ENDBRANCH  18  19
ENDBRANCH   4  18
TORSDOF 7
ENDMDL
MODEL 4
REMARK VINA RESULT:    -7.069      2.711      7.834
REMARK INTER + INTRA:         -11.061
REMARK INTER:                  -9.833
REMARK INTRA:                  -1.229
REMARK UNBOUND:                -1.099
REMARK  Name = 
REMARK  8 active torsions:
REMARK  status: ('A' for Active; 'I' for Inactive)
REMARK    1  A    between atoms: C_1  and  O_2
REMARK    2  A    between atoms: O_2  and  C_3
REMARK    3  A    between atoms: C_7  and  C_8
REMARK    4  A    between atoms: C_8  and  N_9
REMARK    5  A    between atoms: N_9  and  C_10
REMARK    6  A    between atoms: C_13  and  C_14
REMARK    7  A    between atoms: C_14  and  N_15
REMARK    8  A    between atoms: C_16  and  C_18
REMARK                            x       y       z     vdW  Elec       q    Type
REMARK                         _______ _______ _______ _____ _____    ______ ____
ROOT
ATOM      1  C   UNL     1      48.675   7.578  15.995  0.00  0.00    +0.000 C 
ATOM      2  C   UNL     1      49.658   6.997  14.970  0.00  0.00    +0.000 C 
ATOM      3  C   UNL     1      49.034   6.884  13.582  0.00  0.00    +0.000 C 
ATOM      4  C   UNL     1      48.478   8.230  13.091  0.00  0.00    +0.000 C 
ATOM      5  C   UNL     1      47.488   8.799  14.114  0.00  0.00    +0.000 C 
ATOM      6  C   UNL     1      48.111   8.918  15.498  0.00  0.00    +0.000 C 
ENDROOT
BRANCH   1   7
ATOM      7  N   UNL     1      49.395   7.716  17.266  0.00  0.00    +0.000 NA
ATOM      8  H   UNL     1      50.359   7.396  17.136  0.00  0.00    +0.000 HD
BRANCH   7   9
ATOM      9  C   UNL     1      48.806   6.912  18.340  0.00  0.00    +0.000 C 
BRANCH   9  14
ATOM     10  C   UNL     1      49.906   3.540  17.387  0.00  0.00    +0.000 A 
ATOM     11  C   UNL     1      48.740   2.793  17.301  0.00  0.00    +0.000 A 
ATOM     12  C   UNL     1      47.531   3.423  17.578  0.00  0.00    +0.000 A 
ATOM     13  C   UNL     1      47.531   4.770  17.926  0.00  0.00    +0.000 A 
ATOM     14  C   UNL     1      48.750   5.445  17.986  0.00  0.00    +0.000 A 
ATOM     15  N   UNL     1      49.931   4.843  17.722  0.00  0.00    +0.000 NA
BRANCH  10  17
ATOM     16  C   UNL     1      51.007   1.490  17.369  0.00  0.00    +0.000 C 
ATOM     17  O   UNL     1      51.090   2.890  17.112  0.00  0.00    +0.000 OA
ENDBRANCH  10  17
ENDBRANCH   9  14
ENDBRANCH   7   9
ENDBRANCH   1   7
BRANCH   4  18
ATOM     18  C   UNL     1      47.784   8.123  11.727  0.00  0.00    +0.000 C 
BRANCH  18  19
ATOM     19  N   UNL     1      47.006   6.912  11.597  0.00  0.00    +0.000 N 
ATOM     20  C   UNL     1      45.634   6.929  11.611  0.00  0.00    +0.000 C 
ATOM     21  O   UNL     1      44.995   7.977  11.675  0.00  0.00    +0.000 OA
ATOM     22  H   UNL     1      47.500   6.029  11.691  0.00  0.00    +0.000 HD
BRANCH  20  23
ATOM     23  C   UNL     1      44.952   5.636  11.516  0.00  0.00    +0.000 A 
ATOM     24  C   UNL     1      44.189   5.197  12.590  0.00  0.00    +0.000 A 
ATOM     25  S   UNL     1      43.466   3.677  12.341  0.00  0.00    +0.000 S 
ATOM     26  C   UNL     1      44.178   3.531  10.803  0.00  0.00    +0.000 A 
ATOM     27  N   UNL     1      43.985   2.415  10.051  0.00  0.00    +0.000 NA
ATOM     28  C   UNL     1      44.606   2.420   8.920  0.00  0.00    +0.000 A 
ATOM     29  N   UNL     1      45.393   3.447   8.466  0.00  0.00    +0.000 N 
ATOM     30  C   UNL     1      45.575   4.616   9.169  0.00  0.00    +0.000 A 
ATOM     31  O   UNL     1      46.213   5.552   8.694  0.00  0.00    +0.000 OA
ATOM     32  C   UNL     1      44.931   4.644  10.468  0.00  0.00    +0.000 A 
ATOM     33  H   UNL     1      45.831   3.395   7.559  0.00  0.00    +0.000 HD
ENDBRANCH  20  23
ENDBRANCH  18  19
ENDBRANCH   4  18
TORSDOF 7
ENDMDL
MODEL 5
REMARK VINA RESULT:    -7.046      2.593      3.204
REMARK INTER + INTRA:         -11.028
REMARK INTER:                 -10.135
REMARK INTRA:                  -0.893
REMARK UNBOUND:                -1.099
REMARK  Name = 
REMARK  8 active torsions:
REMARK  status: ('A' for Active; 'I' for Inactive)
REMARK    1  A    between atoms: C_1  and  O_2
REMARK    2  A    between atoms: O_2  and  C_3
REMARK    3  A    between atoms: C_7  and  C_8
REMARK    4  A    between atoms: C_8  and  N_9
REMARK    5  A    between atoms: N_9  and  C_10
REMARK    6  A    between atoms: C_13  and  C_14
REMARK    7  A    between atoms: C_14  and  N_15
REMARK    8  A    between atoms: C_16  and  C_18
REMARK                            x       y       z     vdW  Elec       q    Type
REMARK                         _______ _______ _______ _____ _____    ______ ____
ROOT
ATOM      1  C   UNL     1      45.663   6.010  11.963  0.00  0.00    +0.000 C 
ATOM      2  C   UNL     1      47.149   6.198  12.294  0.00  0.00    +0.000 C 
ATOM      3  C   UNL     1      47.420   6.088  13.791  0.00  0.00    +0.000 C 
ATOM      4  C   UNL     1      46.904   4.763  14.372  0.00  0.00    +0.000 C 
ATOM      5  C   UNL     1      45.416   4.587  14.049  0.00  0.00    +0.000 C 
ATOM      6  C   UNL     1      45.145   4.689  12.555  0.00  0.00    +0.000 C 
ENDROOT
BRANCH   1   7
ATOM      7  N   UNL     1      45.526   6.056  10.503  0.00  0.00    +0.000 NA
ATOM      8  H   UNL     1      45.230   6.996  10.229  0.00  0.00    +0.000 HD
BRANCH   7   9
ATOM      9  C   UNL     1      44.522   5.114   9.999  0.00  0.00    +0.000 C 
BRANCH   9  14
ATOM     10  C   UNL     1      46.367   3.428   7.308  0.00  0.00    +0.000 A 
ATOM     11  C   UNL     1      46.271   2.075   7.599  0.00  0.00    +0.000 A 
ATOM     12  C   UNL     1      45.574   1.695   8.742  0.00  0.00    +0.000 A 
ATOM     13  C   UNL     1      44.998   2.675   9.544  0.00  0.00    +0.000 A 
ATOM     14  C   UNL     1      45.142   4.011   9.174  0.00  0.00    +0.000 A 
ATOM     15  N   UNL     1      45.820   4.393   8.069  0.00  0.00    +0.000 NA
BRANCH  10  17
ATOM     16  C   UNL     1      47.040   2.748   5.187  0.00  0.00    +0.000 C 
ATOM     17  O   UNL     1      47.067   3.778   6.173  0.00  0.00    +0.000 OA
ENDBRANCH  10  17
ENDBRANCH   9  14
ENDBRANCH   7   9
ENDBRANCH   1   7
BRANCH   4  18
ATOM     18  C   UNL     1      47.103   4.662  15.890  0.00  0.00    +0.000 C 
BRANCH  18  19
ATOM     19  N   UNL     1      48.469   4.354  16.248  0.00  0.00    +0.000 N 
ATOM     20  C   UNL     1      49.008   4.745  17.448  0.00  0.00    +0.000 C 
ATOM     21  O   UNL     1      48.343   5.324  18.304  0.00  0.00    +0.000 OA
ATOM     22  H   UNL     1      49.077   4.011  15.510  0.00  0.00    +0.000 HD
BRANCH  20  23
ATOM     23  C   UNL     1      50.416   4.415  17.684  0.00  0.00    +0.000 A 
ATOM     24  C   UNL     1      51.292   5.429  18.046  0.00  0.00    +0.000 A 
ATOM     25  S   UNL     1      52.894   4.899  18.276  0.00  0.00    +0.000 S 
ATOM     26  C   UNL     1      52.481   3.302  17.863  0.00  0.00    +0.000 A 
ATOM     27  N   UNL     1      53.428   2.327  17.827  0.00  0.00    +0.000 NA
ATOM     28  C   UNL     1      52.987   1.168  17.468  0.00  0.00    +0.000 A 
ATOM     29  N   UNL     1      51.681   0.892  17.155  0.00  0.00    +0.000 N 
ATOM     30  C   UNL     1      50.680   1.834  17.227  0.00  0.00    +0.000 A 
ATOM     31  O   UNL     1      49.507   1.533  17.026  0.00  0.00    +0.000 OA
ATOM     32  C   UNL     1      51.131   3.165  17.586  0.00  0.00    +0.000 A 
ATOM     33  H   UNL     1      51.400  -0.044  16.905  0.00  0.00    +0.000 HD
ENDBRANCH  20  23
ENDBRANCH  18  19
ENDBRANCH   4  18
TORSDOF 7
ENDMDL
MODEL 6
REMARK VINA RESULT:    -7.021      1.752      2.407
REMARK INTER + INTRA:         -10.993
REMARK INTER:                  -9.861
REMARK INTRA:                  -1.132
REMARK UNBOUND:                -1.099
REMARK  Name = 
REMARK  8 active torsions:
REMARK  status: ('A' for Active; 'I' for Inactive)
REMARK    1  A    between atoms: C_1  and  O_2
REMARK    2  A    between atoms: O_2  and  C_3
REMARK    3  A    between atoms: C_7  and  C_8
REMARK    4  A    between atoms: C_8  and  N_9
REMARK    5  A    between atoms: N_9  and  C_10
REMARK    6  A    between atoms: C_13  and  C_14
REMARK    7  A    between atoms: C_14  and  N_15
REMARK    8  A    between atoms: C_16  and  C_18
REMARK                            x       y       z     vdW  Elec       q    Type
REMARK                         _______ _______ _______ _____ _____    ______ ____
ROOT
ATOM      1  C   UNL     1      45.672   6.821  11.861  0.00  0.00    +0.000 C 
ATOM      2  C   UNL     1      45.554   8.270  12.352  0.00  0.00    +0.000 C 
ATOM      3  C   UNL     1      46.587   8.594  13.427  0.00  0.00    +0.000 C 
ATOM      4  C   UNL     1      48.019   8.302  12.955  0.00  0.00    +0.000 C 
ATOM      5  C   UNL     1      48.133   6.850  12.478  0.00  0.00    +0.000 C 
ATOM      6  C   UNL     1      47.108   6.527  11.399  0.00  0.00    +0.000 C 
ENDROOT
BRANCH   1   7
ATOM      7  N   UNL     1      44.694   6.641  10.782  0.00  0.00    +0.000 NA
ATOM      8  H   UNL     1      44.012   7.402  10.825  0.00  0.00    +0.000 HD
BRANCH   7   9
ATOM      9  C   UNL     1      43.955   5.380  10.894  0.00  0.00    +0.000 C 
BRANCH   9  14
ATOM     10  C   UNL     1      45.674   3.844   8.035  0.00  0.00    +0.000 A 
ATOM     11  C   UNL     1      45.464   2.481   8.179  0.00  0.00    +0.000 A 
ATOM     12  C   UNL     1      44.729   2.039   9.276  0.00  0.00    +0.000 A 
ATOM     13  C   UNL     1      44.231   2.972  10.179  0.00  0.00    +0.000 A 
ATOM     14  C   UNL     1      44.488   4.324   9.954  0.00  0.00    +0.000 A 
ATOM     15  N   UNL     1      45.203   4.765   8.896  0.00  0.00    +0.000 NA
BRANCH  10  17
ATOM     16  C   UNL     1      46.792   3.160   6.112  0.00  0.00    +0.000 C 
ATOM     17  O   UNL     1      46.409   4.254   6.943  0.00  0.00    +0.000 OA
ENDBRANCH  10  17
ENDBRANCH   9  14
ENDBRANCH   7   9
ENDBRANCH   1   7
BRANCH   4  18
ATOM     18  C   UNL     1      49.068   8.554  14.047  0.00  0.00    +0.000 C 
BRANCH  18  19
ATOM     19  N   UNL     1      49.399   7.355  14.781  0.00  0.00    +0.000 N 
ATOM     20  C   UNL     1      49.109   7.220  16.116  0.00  0.00    +0.000 C 
ATOM     21  O   UNL     1      48.500   8.085  16.741  0.00  0.00    +0.000 OA
ATOM     22  H   UNL     1      50.027   6.693  14.333  0.00  0.00    +0.000 HD
BRANCH  20  23
ATOM     23  C   UNL     1      49.532   5.977  16.767  0.00  0.00    +0.000 A 
ATOM     24  C   UNL     1      48.563   5.108  17.251  0.00  0.00    +0.000 A 
ATOM     25  S   UNL     1      49.203   3.714  17.990  0.00  0.00    +0.000 S 
ATOM     26  C   UNL     1      50.798   4.240  17.724  0.00  0.00    +0.000 A 
ATOM     27  N   UNL     1      51.854   3.503  18.160  0.00  0.00    +0.000 NA
ATOM     28  C   UNL     1      53.007   4.031  17.921  0.00  0.00    +0.000 A 
ATOM     29  N   UNL     1      53.202   5.223  17.273  0.00  0.00    +0.000 N 
ATOM     30  C   UNL     1      52.166   5.978  16.770  0.00  0.00    +0.000 A 
ATOM     31  O   UNL     1      52.379   6.995  16.117  0.00  0.00    +0.000 OA
ATOM     32  C   UNL     1      50.845   5.448  17.048  0.00  0.00    +0.000 A 
ATOM     33  H   UNL     1      54.134   5.567  17.099  0.00  0.00    +0.000 HD
ENDBRANCH  20  23
ENDBRANCH  18  19
ENDBRANCH   4  18
TORSDOF 7
ENDMDL
MODEL 7
REMARK VINA RESULT:    -6.775      2.221      4.018
REMARK INTER + INTRA:         -10.646
REMARK INTER:                  -9.466
REMARK INTRA:                  -1.180
REMARK UNBOUND:                -1.099
REMARK  Name = 
REMARK  8 active torsions:
REMARK  status: ('A' for Active; 'I' for Inactive)
REMARK    1  A    between atoms: C_1  and  O_2
REMARK    2  A    between atoms: O_2  and  C_3
REMARK    3  A    between atoms: C_7  and  C_8
REMARK    4  A    between atoms: C_8  and  N_9
REMARK    5  A    between atoms: N_9  and  C_10
REMARK    6  A    between atoms: C_13  and  C_14
REMARK    7  A    between atoms: C_14  and  N_15
REMARK    8  A    between atoms: C_16  and  C_18
REMARK                            x       y       z     vdW  Elec       q    Type
REMARK                         _______ _______ _______ _____ _____    ______ ____
ROOT
ATOM      1  C   UNL     1      44.776   5.875  11.880  0.00  0.00    +0.000 C 
ATOM      2  C   UNL     1      46.240   6.314  11.743  0.00  0.00    +0.000 C 
ATOM      3  C   UNL     1      46.965   6.311  13.085  0.00  0.00    +0.000 C 
ATOM      4  C   UNL     1      46.877   4.946  13.783  0.00  0.00    +0.000 C 
ATOM      5  C   UNL     1      45.412   4.519  13.928  0.00  0.00    +0.000 C 
ATOM      6  C   UNL     1      44.688   4.514  12.588  0.00  0.00    +0.000 C 
ENDROOT
BRANCH   1   7
ATOM      7  N   UNL     1      44.199   5.838  10.532  0.00  0.00    +0.000 NA
ATOM      8  H   UNL     1      43.370   6.439  10.512  0.00  0.00    +0.000 HD
BRANCH   7   9
ATOM      9  C   UNL     1      43.776   4.492  10.135  0.00  0.00    +0.000 C 
BRANCH   9  14
ATOM     10  C   UNL     1      45.710   1.887   8.415  0.00  0.00    +0.000 A 
ATOM     11  C   UNL     1      46.555   2.575   7.556  0.00  0.00    +0.000 A 
ATOM     12  C   UNL     1      46.481   3.964   7.531  0.00  0.00    +0.000 A 
ATOM     13  C   UNL     1      45.573   4.611   8.363  0.00  0.00    +0.000 A 
ATOM     14  C   UNL     1      44.765   3.840   9.198  0.00  0.00    +0.000 A 
ATOM     15  N   UNL     1      44.825   2.491   9.228  0.00  0.00    +0.000 NA
BRANCH  10  17
ATOM     16  C   UNL     1      46.879   0.043   7.609  0.00  0.00    +0.000 C 
ATOM     17  O   UNL     1      45.801   0.511   8.417  0.00  0.00    +0.000 OA
ENDBRANCH  10  17
ENDBRANCH   9  14
ENDBRANCH   7   9
ENDBRANCH   1   7
BRANCH   4  18
ATOM     18  C   UNL     1      47.540   4.942  15.167  0.00  0.00    +0.000 C 
BRANCH  18  19
ATOM     19  N   UNL     1      48.068   6.237  15.530  0.00  0.00    +0.000 N 
ATOM     20  C   UNL     1      49.206   6.369  16.284  0.00  0.00    +0.000 C 
ATOM     21  O   UNL     1      49.868   5.397  16.641  0.00  0.00    +0.000 OA
ATOM     22  H   UNL     1      47.468   7.043  15.378  0.00  0.00    +0.000 HD
BRANCH  20  23
ATOM     23  C   UNL     1      49.622   7.730  16.629  0.00  0.00    +0.000 A 
ATOM     24  C   UNL     1      49.690   8.095  17.966  0.00  0.00    +0.000 A 
ATOM     25  S   UNL     1      50.178   9.707  18.212  0.00  0.00    +0.000 S 
ATOM     26  C   UNL     1      50.279   9.988  16.538  0.00  0.00    +0.000 A 
ATOM     27  N   UNL     1      50.619  11.214  16.058  0.00  0.00    +0.000 NA
ATOM     28  C   UNL     1      50.628  11.299  14.771  0.00  0.00    +0.000 A 
ATOM     29  N   UNL     1      50.341  10.265  13.918  0.00  0.00    +0.000 N 
ATOM     30  C   UNL     1      50.042   8.995  14.356  0.00  0.00    +0.000 A 
ATOM     31  O   UNL     1      49.878   8.071  13.566  0.00  0.00    +0.000 OA
ATOM     32  C   UNL     1      49.978   8.856  15.799  0.00  0.00    +0.000 A 
ATOM     33  H   UNL     1      50.390  10.396  12.918  0.00  0.00    +0.000 HD
ENDBRANCH  20  23
ENDBRANCH  18  19
ENDBRANCH   4  18
TORSDOF 7
ENDMDL
MODEL 8
REMARK VINA RESULT:    -6.671      3.376      7.334
REMARK INTER + INTRA:         -10.500
REMARK INTER:                  -8.923
REMARK INTRA:                  -1.577
REMARK UNBOUND:                -1.099
REMARK  Name = 
REMARK  8 active torsions:
REMARK  status: ('A' for Active; 'I' for Inactive)
REMARK    1  A    between atoms: C_1  and  O_2
REMARK    2  A    between atoms: O_2  and  C_3
REMARK    3  A    between atoms: C_7  and  C_8
REMARK    4  A    between atoms: C_8  and  N_9
REMARK    5  A    between atoms: N_9  and  C_10
REMARK    6  A    between atoms: C_13  and  C_14
REMARK    7  A    between atoms: C_14  and  N_15
REMARK    8  A    between atoms: C_16  and  C_18
REMARK                            x       y       z     vdW  Elec       q    Type
REMARK                         _______ _______ _______ _____ _____    ______ ____
ROOT
ATOM      1  C   UNL     1      49.836   6.987  17.139  0.00  0.00    +0.000 C 
ATOM      2  C   UNL     1      50.892   7.132  16.036  0.00  0.00    +0.000 C 
ATOM      3  C   UNL     1      50.274   7.555  14.707  0.00  0.00    +0.000 C 
ATOM      4  C   UNL     1      49.454   8.847  14.840  0.00  0.00    +0.000 C 
ATOM      5  C   UNL     1      48.393   8.691  15.935  0.00  0.00    +0.000 C 
ATOM      6  C   UNL     1      49.009   8.276  17.264  0.00  0.00    +0.000 C 
ENDROOT
BRANCH   1   7
ATOM      7  N   UNL     1      50.540   6.657  18.383  0.00  0.00    +0.000 NA
ATOM      8  H   UNL     1      51.447   6.245  18.149  0.00  0.00    +0.000 HD
BRANCH   7   9
ATOM      9  C   UNL     1      49.814   5.683  19.204  0.00  0.00    +0.000 C 
BRANCH   9  14
ATOM     10  C   UNL     1      49.371   2.711  17.094  0.00  0.00    +0.000 A 
ATOM     11  C   UNL     1      48.015   2.676  16.803  0.00  0.00    +0.000 A 
ATOM     12  C   UNL     1      47.200   3.672  17.334  0.00  0.00    +0.000 A 
ATOM     13  C   UNL     1      47.769   4.663  18.127  0.00  0.00    +0.000 A 
ATOM     14  C   UNL     1      49.143   4.622  18.365  0.00  0.00    +0.000 A 
ATOM     15  N   UNL     1      49.943   3.659  17.859  0.00  0.00    +0.000 NA
BRANCH  10  17
ATOM     16  C   UNL     1      51.389   1.564  17.257  0.00  0.00    +0.000 C 
ATOM     17  O   UNL     1      50.154   1.710  16.559  0.00  0.00    +0.000 OA
ENDBRANCH  10  17
ENDBRANCH   9  14
ENDBRANCH   7   9
ENDBRANCH   1   7
BRANCH   4  18
ATOM     18  C   UNL     1      48.766   9.252  13.529  0.00  0.00    +0.000 C 
BRANCH  18  19
ATOM     19  N   UNL     1      47.974   8.181  12.968  0.00  0.00    +0.000 N 
ATOM     20  C   UNL     1      46.603   8.234  12.941  0.00  0.00    +0.000 C 
ATOM     21  O   UNL     1      45.980   9.218  13.335  0.00  0.00    +0.000 OA
ATOM     22  H   UNL     1      48.448   7.304  12.774  0.00  0.00    +0.000 HD
BRANCH  20  23
ATOM     23  C   UNL     1      45.903   7.071  12.389  0.00  0.00    +0.000 A 
ATOM     24  C   UNL     1      44.899   7.274  11.452  0.00  0.00    +0.000 A 
ATOM     25  S   UNL     1      44.169   5.835  10.909  0.00  0.00    +0.000 S 
ATOM     26  C   UNL     1      45.143   4.891  11.937  0.00  0.00    +0.000 A 
ATOM     27  N   UNL     1      44.994   3.540  11.987  0.00  0.00    +0.000 NA
ATOM     28  C   UNL     1      45.772   2.950  12.830  0.00  0.00    +0.000 A 
ATOM     29  N   UNL     1      46.697   3.585  13.618  0.00  0.00    +0.000 N 
ATOM     30  C   UNL     1      46.918   4.943  13.564  0.00  0.00    +0.000 A 
ATOM     31  O   UNL     1      47.814   5.469  14.217  0.00  0.00    +0.000 OA
ATOM     32  C   UNL     1      46.038   5.660  12.660  0.00  0.00    +0.000 A 
ATOM     33  H   UNL     1      47.291   3.058  14.240  0.00  0.00    +0.000 HD
ENDBRANCH  20  23
ENDBRANCH  18  19
ENDBRANCH   4  18
TORSDOF 7
ENDMDL
MODEL 9
REMARK VINA RESULT:    -6.595      3.705      9.447
REMARK INTER + INTRA:         -10.392
REMARK INTER:                  -9.461
REMARK INTRA:                  -0.931
REMARK UNBOUND:                -1.099
REMARK  Name = 
REMARK  8 active torsions:
REMARK  status: ('A' for Active; 'I' for Inactive)
REMARK    1  A    between atoms: C_1  and  O_2
REMARK    2  A    between atoms: O_2  and  C_3
REMARK    3  A    between atoms: C_7  and  C_8
REMARK    4  A    between atoms: C_8  and  N_9
REMARK    5  A    between atoms: N_9  and  C_10
REMARK    6  A    between atoms: C_13  and  C_14
REMARK    7  A    between atoms: C_14  and  N_15
REMARK    8  A    between atoms: C_16  and  C_18
REMARK                            x       y       z     vdW  Elec       q    Type
REMARK                         _______ _______ _______ _____ _____    ______ ____
ROOT
ATOM      1  C   UNL     1      49.048   6.233  19.454  0.00  0.00    +0.000 C 
ATOM      2  C   UNL     1      47.587   5.764  19.481  0.00  0.00    +0.000 C 
ATOM      3  C   UNL     1      47.168   5.128  18.160  0.00  0.00    +0.000 C 
ATOM      4  C   UNL     1      48.096   3.972  17.758  0.00  0.00    +0.000 C 
ATOM      5  C   UNL     1      49.552   4.451  17.721  0.00  0.00    +0.000 C 
ATOM      6  C   UNL     1      49.975   5.079  19.042  0.00  0.00    +0.000 C 
ENDROOT
BRANCH   1   7
ATOM      7  N   UNL     1      49.368   6.753  20.788  0.00  0.00    +0.000 NA
ATOM      8  H   UNL     1      48.559   6.615  21.399  0.00  0.00    +0.000 HD
BRANCH   7   9
ATOM      9  C   UNL     1      49.674   8.187  20.779  0.00  0.00    +0.000 C 
BRANCH   9  14
ATOM     10  C   UNL     1      47.233  10.614  19.498  0.00  0.00    +0.000 A 
ATOM     11  C   UNL     1      46.212  10.626  20.438  0.00  0.00    +0.000 A 
ATOM     12  C   UNL     1      46.324   9.789  21.544  0.00  0.00    +0.000 A 
ATOM     13  C   UNL     1      47.447   8.978  21.672  0.00  0.00    +0.000 A 
ATOM     14  C   UNL     1      48.426   9.032  20.681  0.00  0.00    +0.000 A 
ATOM     15  N   UNL     1      48.328   9.838  19.601  0.00  0.00    +0.000 NA
BRANCH  10  17
ATOM     16  C   UNL     1      48.347  11.981  17.981  0.00  0.00    +0.000 C 
ATOM     17  O   UNL     1      47.096  11.449  18.411  0.00  0.00    +0.000 OA
ENDBRANCH  10  17
ENDBRANCH   9  14
ENDBRANCH   7   9
ENDBRANCH   1   7
BRANCH   4  18
ATOM     18  C   UNL     1      47.734   3.364  16.396  0.00  0.00    +0.000 C 
BRANCH  18  19
ATOM     19  N   UNL     1      47.013   4.291  15.553  0.00  0.00    +0.000 N 
ATOM     20  C   UNL     1      46.818   4.050  14.216  0.00  0.00    +0.000 C 
ATOM     21  O   UNL     1      47.191   3.009  13.679  0.00  0.00    +0.000 OA
ATOM     22  H   UNL     1      46.826   5.215  15.931  0.00  0.00    +0.000 HD
BRANCH  20  23
ATOM     23  C   UNL     1      46.112   5.080  13.450  0.00  0.00    +0.000 A 
ATOM     24  C   UNL     1      46.676   6.344  13.344  0.00  0.00    +0.000 A 
ATOM     25  S   UNL     1      45.740   7.437  12.435  0.00  0.00    +0.000 S 
ATOM     26  C   UNL     1      44.527   6.272  12.183  0.00  0.00    +0.000 A 
ATOM     27  N   UNL     1      43.398   6.582  11.492  0.00  0.00    +0.000 NA
ATOM     28  C   UNL     1      42.547   5.617  11.401  0.00  0.00    +0.000 A 
ATOM     29  N   UNL     1      42.727   4.364  11.927  0.00  0.00    +0.000 N 
ATOM     30  C   UNL     1      43.874   3.990  12.590  0.00  0.00    +0.000 A 
ATOM     31  O   UNL     1      44.041   2.835  12.971  0.00  0.00    +0.000 OA
ATOM     32  C   UNL     1      44.847   5.052  12.756  0.00  0.00    +0.000 A 
ATOM     33  H   UNL     1      42.028   3.648  11.798  0.00  0.00    +0.000 HD
ENDBRANCH  20  23
ENDBRANCH  18  19
ENDBRANCH   4  18
TORSDOF 7
ENDMDL
