MODEL 1
REMARK VINA RESULT:    -7.451      0.000      0.000
REMARK INTER + INTRA:          -9.534
REMARK INTER:                  -8.976
REMARK INTRA:                  -0.559
REMARK UNBOUND:                -0.559
REMARK  Name = 
REMARK  5 active torsions:
REMARK  status: ('A' for Active; 'I' for Inactive)
REMARK    1  A    between atoms: C_1  and  C_2
REMARK    2  A    between atoms: C_2  and  N_3
REMARK    3  A    between atoms: C_2  and  C_14
REMARK    4  A    between atoms: C_7  and  C_8
REMARK    5  A    between atoms: C_8  and  O_10
REMARK                            x       y       z     vdW  Elec       q    Type
REMARK                         _______ _______ _______ _____ _____    ______ ____
ROOT
ATOM      1  N   UNL     1      45.384   3.805  12.112  0.00  0.00    +0.000 N 
ATOM      2  C   UNL     1      45.846   5.063  12.516  0.00  0.00    +0.000 A 
ATOM      3  C   UNL     1      46.862   5.106  13.463  0.00  0.00    +0.000 A 
ATOM      4  C   UNL     1      47.368   6.338  13.880  0.00  0.00    +0.000 A 
ATOM      5  C   UNL     1      46.853   7.526  13.349  0.00  0.00    +0.000 A 
ATOM      6  C   UNL     1      45.829   7.380  12.428  0.00  0.00    +0.000 A 
ATOM      7 CL   UNL     1      45.044   8.688  11.625  0.00  0.00    +0.000 Cl
ATOM      8  N   UNL     1      45.317   6.191  12.015  0.00  0.00    +0.000 NA
ATOM      9  H   UNL     1      46.189   3.251  11.827  0.00  0.00    +0.000 HD
ENDROOT
BRANCH   1  11
ATOM     10  C   UNL     1      43.260   2.730  11.499  0.00  0.00    +0.000 C 
ATOM     11  C   UNL     1      44.319   3.760  11.103  0.00  0.00    +0.000 C 
BRANCH  11  12
ATOM     12  C   UNL     1      44.958   3.395   9.767  0.00  0.00    +0.000 A 
ATOM     13  C   UNL     1      45.327   4.408   8.864  0.00  0.00    +0.000 A 
ATOM     14  C   UNL     1      45.976   4.095   7.665  0.00  0.00    +0.000 A 
ATOM     15  C   UNL     1      46.264   2.765   7.358  0.00  0.00    +0.000 A 
ATOM     16 CL   UNL     1      47.101   2.396   5.901  0.00  0.00    +0.000 Cl
ATOM     17  C   UNL     1      45.886   1.755   8.238  0.00  0.00    +0.000 A 
ATOM     18  F   UNL     1      46.157   0.470   7.964  0.00  0.00    +0.000 F 
ATOM     19  C   UNL     1      45.235   2.059   9.431  0.00  0.00    +0.000 A 
ENDBRANCH  11  12
ENDBRANCH   1  11
BRANCH   5  20
ATOM     20  C   UNL     1      47.461   8.794  13.826  0.00  0.00    +0.000 C 
ATOM     21  O   UNL     1      48.085   9.518  13.061  0.00  0.00    +0.000 OA
BRANCH  20  22
ATOM     22  O   UNL     1      47.296   9.132  15.118  0.00  0.00    +0.000 OA
ATOM     23  H   UNL     1      46.953  10.025  15.311  0.00  0.00    +0.000 HD
ENDBRANCH  20  22
ENDBRANCH   5  20
TORSDOF 4
ENDMDL
MODEL 2
REMARK VINA RESULT:    -7.205      2.064      2.590
REMARK INTER + INTRA:          -9.238
REMARK INTER:                  -9.808
REMARK INTRA:                   0.570
REMARK UNBOUND:                -0.559
REMARK  Name = 
REMARK  5 active torsions:
REMARK  status: ('A' for Active; 'I' for Inactive)
REMARK    1  A    between atoms: C_1  and  C_2
REMARK    2  A    between atoms: C_2  and  N_3
REMARK    3  A    between atoms: C_2  and  C_14
REMARK    4  A    between atoms: C_7  and  C_8
REMARK    5  A    between atoms: C_8  and  O_10
REMARK                            x       y       z     vdW  Elec       q    Type
REMARK                         _______ _______ _______ _____ _____    ______ ____
ROOT
ATOM      1  N   UNL     1      44.173   5.906  10.585  0.00  0.00    +0.000 N 
ATOM      2  C   UNL     1      45.196   5.962  11.537  0.00  0.00    +0.000 A 
ATOM      3  C   UNL     1      45.768   7.201  11.801  0.00  0.00    +0.000 A 
ATOM      4  C   UNL     1      46.778   7.307  12.758  0.00  0.00    +0.000 A 
ATOM      5  C   UNL     1      47.216   6.171  13.448  0.00  0.00    +0.000 A 
ATOM      6  C   UNL     1      46.600   4.980  13.100  0.00  0.00    +0.000 A 
ATOM      7 CL   UNL     1      46.953   3.452  13.816  0.00  0.00    +0.000 Cl
ATOM      8  N   UNL     1      45.621   4.854  12.166  0.00  0.00    +0.000 NA
ATOM      9  H   UNL     1      43.471   6.599  10.835  0.00  0.00    +0.000 HD
ENDROOT
BRANCH   1  11
ATOM     10  C   UNL     1      43.251   3.879  11.628  0.00  0.00    +0.000 C 
ATOM     11  C   UNL     1      43.561   4.600  10.314  0.00  0.00    +0.000 C 
BRANCH  11  12
ATOM     12  C   UNL     1      44.541   3.791   9.470  0.00  0.00    +0.000 A 
ATOM     13  C   UNL     1      44.630   2.398   9.637  0.00  0.00    +0.000 A 
ATOM     14  C   UNL     1      45.473   1.634   8.823  0.00  0.00    +0.000 A 
ATOM     15  C   UNL     1      46.234   2.255   7.833  0.00  0.00    +0.000 A 
ATOM     16 CL   UNL     1      47.234   1.299   6.810  0.00  0.00    +0.000 Cl
ATOM     17  C   UNL     1      46.165   3.636   7.673  0.00  0.00    +0.000 A 
ATOM     18  F   UNL     1      46.884   4.253   6.724  0.00  0.00    +0.000 F 
ATOM     19  C   UNL     1      45.332   4.404   8.483  0.00  0.00    +0.000 A 
ENDBRANCH  11  12
ENDBRANCH   1  11
BRANCH   5  20
ATOM     20  C   UNL     1      48.276   6.372  14.468  0.00  0.00    +0.000 C 
ATOM     21  O   UNL     1      49.394   6.753  14.146  0.00  0.00    +0.000 OA
BRANCH  20  22
ATOM     22  O   UNL     1      47.971   6.135  15.758  0.00  0.00    +0.000 OA
ATOM     23  H   UNL     1      47.523   6.847  16.254  0.00  0.00    +0.000 HD
ENDBRANCH  20  22
ENDBRANCH   5  20
TORSDOF 4
ENDMDL
MODEL 3
REMARK VINA RESULT:    -6.988      1.610      1.889
REMARK INTER + INTRA:          -8.977
REMARK INTER:                  -8.665
REMARK INTRA:                  -0.311
REMARK UNBOUND:                -0.559
REMARK  Name = 
REMARK  5 active torsions:
REMARK  status: ('A' for Active; 'I' for Inactive)
REMARK    1  A    between atoms: C_1  and  C_2
REMARK    2  A    between atoms: C_2  and  N_3
REMARK    3  A    between atoms: C_2  and  C_14
REMARK    4  A    between atoms: C_7  and  C_8
REMARK    5  A    between atoms: C_8  and  O_10
REMARK                            x       y       z     vdW  Elec       q    Type
REMARK                         _______ _______ _______ _____ _____    ______ ____
ROOT
ATOM      1  N   UNL     1      45.332   5.014  11.791  0.00  0.00    +0.000 N 
ATOM      2  C   UNL     1      45.323   6.411  11.861  0.00  0.00    +0.000 A 
ATOM      3  C   UNL     1      46.321   7.028  12.607  0.00  0.00    +0.000 A 
ATOM      4  C   UNL     1      46.364   8.420  12.688  0.00  0.00    +0.000 A 
ATOM      5  C   UNL     1      45.406   9.193  12.024  0.00  0.00    +0.000 A 
ATOM      6  C   UNL     1      44.440   8.487  11.324  0.00  0.00    +0.000 A 
ATOM      7 CL   UNL     1      43.166   9.210  10.416  0.00  0.00    +0.000 Cl
ATOM      8  N   UNL     1      44.376   7.132  11.240  0.00  0.00    +0.000 NA
ATOM      9  H   UNL     1      46.260   4.718  11.495  0.00  0.00    +0.000 HD
ENDROOT
BRANCH   1  11
ATOM     10  C   UNL     1      43.599   3.270  11.813  0.00  0.00    +0.000 C 
ATOM     11  C   UNL     1      44.285   4.363  10.993  0.00  0.00    +0.000 C 
BRANCH  11  12
ATOM     12  C   UNL     1      44.944   3.775   9.749  0.00  0.00    +0.000 A 
ATOM     13  C   UNL     1      45.531   4.626   8.796  0.00  0.00    +0.000 A 
ATOM     14  C   UNL     1      46.199   4.101   7.685  0.00  0.00    +0.000 A 
ATOM     15  C   UNL     1      46.288   2.719   7.517  0.00  0.00    +0.000 A 
ATOM     16 CL   UNL     1      47.149   2.084   6.169  0.00  0.00    +0.000 Cl
ATOM     17  C   UNL     1      45.694   1.870   8.446  0.00  0.00    +0.000 A 
ATOM     18  F   UNL     1      45.771   0.538   8.306  0.00  0.00    +0.000 F 
ATOM     19  C   UNL     1      45.023   2.386   9.552  0.00  0.00    +0.000 A 
ENDBRANCH  11  12
ENDBRANCH   1  11
BRANCH   5  20
ATOM     20  C   UNL     1      45.534  10.668  12.139  0.00  0.00    +0.000 C 
ATOM     21  O   UNL     1      44.566  11.399  11.971  0.00  0.00    +0.000 OA
BRANCH  20  22
ATOM     22  O   UNL     1      46.741  11.179  12.447  0.00  0.00    +0.000 OA
ATOM     23  H   UNL     1      47.479  10.551  12.571  0.00  0.00    +0.000 HD
ENDBRANCH  20  22
ENDBRANCH   5  20
TORSDOF 4
ENDMDL
MODEL 4
REMARK VINA RESULT:    -6.171      5.444      7.611
REMARK INTER + INTRA:          -7.993
REMARK INTER:                  -7.488
REMARK INTRA:                  -0.505
REMARK UNBOUND:                -0.559
REMARK  Name = 
REMARK  5 active torsions:
REMARK  status: ('A' for Active; 'I' for Inactive)
REMARK    1  A    between atoms: C_1  and  C_2
REMARK    2  A    between atoms: C_2  and  N_3
REMARK    3  A    between atoms: C_2  and  C_14
REMARK    4  A    between atoms: C_7  and  C_8
REMARK    5  A    between atoms: C_8  and  O_10
REMARK                            x       y       z     vdW  Elec       q    Type
REMARK                         _______ _______ _______ _____ _____    ______ ____
ROOT
ATOM      1  N   UNL     1      47.930   5.411  15.640  0.00  0.00    +0.000 N 
ATOM      2  C   UNL     1      47.225   5.410  14.432  0.00  0.00    +0.000 A 
ATOM      3  C   UNL     1      47.366   6.515  13.600  0.00  0.00    +0.000 A 
ATOM      4  C   UNL     1      46.698   6.548  12.374  0.00  0.00    +0.000 A 
ATOM      5  C   UNL     1      45.889   5.476  11.985  0.00  0.00    +0.000 A 
ATOM      6  C   UNL     1      45.796   4.431  12.891  0.00  0.00    +0.000 A 
ATOM      7 CL   UNL     1      44.876   2.996  12.635  0.00  0.00    +0.000 Cl
ATOM      8  N   UNL     1      46.430   4.383  14.091  0.00  0.00    +0.000 NA
ATOM      9  H   UNL     1      48.907   5.607  15.436  0.00  0.00    +0.000 HD
ENDROOT
BRANCH   1  11
ATOM     10  C   UNL     1      46.954   4.593  17.744  0.00  0.00    +0.000 C 
ATOM     11  C   UNL     1      47.791   4.239  16.513  0.00  0.00    +0.000 C 
BRANCH  11  12
ATOM     12  C   UNL     1      49.191   3.791  16.920  0.00  0.00    +0.000 A 
ATOM     13  C   UNL     1      50.151   4.744  17.303  0.00  0.00    +0.000 A 
ATOM     14  C   UNL     1      51.417   4.346  17.745  0.00  0.00    +0.000 A 
ATOM     15  C   UNL     1      51.736   2.990  17.808  0.00  0.00    +0.000 A 
ATOM     16 CL   UNL     1      53.281   2.510  18.393  0.00  0.00    +0.000 Cl
ATOM     17  C   UNL     1      50.798   2.040  17.413  0.00  0.00    +0.000 A 
ATOM     18  F   UNL     1      51.081   0.731  17.470  0.00  0.00    +0.000 F 
ATOM     19  C   UNL     1      49.537   2.430  16.967  0.00  0.00    +0.000 A 
ENDBRANCH  11  12
ENDBRANCH   1  11
BRANCH   5  20
ATOM     20  C   UNL     1      45.233   5.576  10.657  0.00  0.00    +0.000 C 
ATOM     21  O   UNL     1      45.882   5.468   9.625  0.00  0.00    +0.000 OA
BRANCH  20  22
ATOM     22  O   UNL     1      43.902   5.777  10.619  0.00  0.00    +0.000 OA
ATOM     23  H   UNL     1      43.427   5.504   9.810  0.00  0.00    +0.000 HD
ENDBRANCH  20  22
ENDBRANCH   5  20
TORSDOF 4
ENDMDL
MODEL 5
REMARK VINA RESULT:    -6.054      4.717      6.357
REMARK INTER + INTRA:          -7.852
REMARK INTER:                  -7.264
REMARK INTRA:                  -0.588
REMARK UNBOUND:                -0.559
REMARK  Name = 
REMARK  5 active torsions:
REMARK  status: ('A' for Active; 'I' for Inactive)
REMARK    1  A    between atoms: C_1  and  C_2
REMARK    2  A    between atoms: C_2  and  N_3
REMARK    3  A    between atoms: C_2  and  C_14
REMARK    4  A    between atoms: C_7  and  C_8
REMARK    5  A    between atoms: C_8  and  O_10
REMARK                            x       y       z     vdW  Elec       q    Type
REMARK                         _______ _______ _______ _____ _____    ______ ____
ROOT
ATOM      1  N   UNL     1      48.191   6.956  14.998  0.00  0.00    +0.000 N 
ATOM      2  C   UNL     1      48.467   6.294  16.199  0.00  0.00    +0.000 A 
ATOM      3  C   UNL     1      48.466   7.048  17.368  0.00  0.00    +0.000 A 
ATOM      4  C   UNL     1      48.715   6.426  18.592  0.00  0.00    +0.000 A 
ATOM      5  C   UNL     1      48.967   5.051  18.644  0.00  0.00    +0.000 A 
ATOM      6  C   UNL     1      48.967   4.391  17.426  0.00  0.00    +0.000 A 
ATOM      7 CL   UNL     1      49.235   2.700  17.230  0.00  0.00    +0.000 Cl
ATOM      8  N   UNL     1      48.735   4.979  16.223  0.00  0.00    +0.000 NA
ATOM      9  H   UNL     1      47.321   7.471  15.114  0.00  0.00    +0.000 HD
ENDROOT
BRANCH   1  11
ATOM     10  C   UNL     1      48.999   6.854  12.678  0.00  0.00    +0.000 C 
ATOM     11  C   UNL     1      48.180   6.158  13.766  0.00  0.00    +0.000 C 
BRANCH  11  12
ATOM     12  C   UNL     1      46.727   5.994  13.330  0.00  0.00    +0.000 A 
ATOM     13  C   UNL     1      46.013   7.097  12.831  0.00  0.00    +0.000 A 
ATOM     14  C   UNL     1      44.704   6.948  12.362  0.00  0.00    +0.000 A 
ATOM     15  C   UNL     1      44.095   5.694  12.388  0.00  0.00    +0.000 A 
ATOM     16 CL   UNL     1      42.500   5.514  11.770  0.00  0.00    +0.000 Cl
ATOM     17  C   UNL     1      44.788   4.599  12.897  0.00  0.00    +0.000 A 
ATOM     18  F   UNL     1      44.224   3.383  12.927  0.00  0.00    +0.000 F 
ATOM     19  C   UNL     1      46.091   4.741  13.370  0.00  0.00    +0.000 A 
ENDBRANCH  11  12
ENDBRANCH   1  11
BRANCH   5  20
ATOM     20  C   UNL     1      49.199   4.461  19.987  0.00  0.00    +0.000 C 
ATOM     21  O   UNL     1      50.129   4.839  20.688  0.00  0.00    +0.000 OA
BRANCH  20  22
ATOM     22  O   UNL     1      48.350   3.509  20.418  0.00  0.00    +0.000 OA
ATOM     23  H   UNL     1      48.290   3.359  21.381  0.00  0.00    +0.000 HD
ENDBRANCH  20  22
ENDBRANCH   5  20
TORSDOF 4
ENDMDL
MODEL 6
REMARK VINA RESULT:    -5.705      3.822      6.153
REMARK INTER + INTRA:          -7.431
REMARK INTER:                  -8.506
REMARK INTRA:                   1.075
REMARK UNBOUND:                -0.559
REMARK  Name = 
REMARK  5 active torsions:
REMARK  status: ('A' for Active; 'I' for Inactive)
REMARK    1  A    between atoms: C_1  and  C_2
REMARK    2  A    between atoms: C_2  and  N_3
REMARK    3  A    between atoms: C_2  and  C_14
REMARK    4  A    between atoms: C_7  and  C_8
REMARK    5  A    between atoms: C_8  and  O_10
REMARK                            x       y       z     vdW  Elec       q    Type
REMARK                         _______ _______ _______ _____ _____    ______ ____
ROOT
ATOM      1  N   UNL     1      43.214   3.371  11.725  0.00  0.00    +0.000 N 
ATOM      2  C   UNL     1      44.096   3.338  10.640  0.00  0.00    +0.000 A 
ATOM      3  C   UNL     1      44.218   2.142   9.941  0.00  0.00    +0.000 A 
ATOM      4  C   UNL     1      45.070   2.069   8.838  0.00  0.00    +0.000 A 
ATOM      5  C   UNL     1      45.801   3.192   8.439  0.00  0.00    +0.000 A 
ATOM      6  C   UNL     1      45.629   4.330   9.211  0.00  0.00    +0.000 A 
ATOM      7 CL   UNL     1      46.405   5.840   8.913  0.00  0.00    +0.000 Cl
ATOM      8  N   UNL     1      44.811   4.420  10.292  0.00  0.00    +0.000 NA
ATOM      9  H   UNL     1      42.311   3.026  11.408  0.00  0.00    +0.000 HD
ENDROOT
BRANCH   1  11
ATOM     10  C   UNL     1      42.384   5.680  11.579  0.00  0.00    +0.000 C 
ATOM     11  C   UNL     1      43.077   4.636  12.456  0.00  0.00    +0.000 C 
BRANCH  11  12
ATOM     12  C   UNL     1      44.475   5.101  12.852  0.00  0.00    +0.000 A 
ATOM     13  C   UNL     1      44.889   6.412  12.560  0.00  0.00    +0.000 A 
ATOM     14  C   UNL     1      46.141   6.876  12.977  0.00  0.00    +0.000 A 
ATOM     15  C   UNL     1      46.992   6.032  13.690  0.00  0.00    +0.000 A 
ATOM     16 CL   UNL     1      48.512   6.626  14.235  0.00  0.00    +0.000 Cl
ATOM     17  C   UNL     1      46.597   4.726  13.967  0.00  0.00    +0.000 A 
ATOM     18  F   UNL     1      47.398   3.899  14.656  0.00  0.00    +0.000 F 
ATOM     19  C   UNL     1      45.354   4.256  13.551  0.00  0.00    +0.000 A 
ENDBRANCH  11  12
ENDBRANCH   1  11
BRANCH   5  20
ATOM     20  C   UNL     1      46.667   3.040   7.242  0.00  0.00    +0.000 C 
ATOM     21  O   UNL     1      47.368   2.047   7.095  0.00  0.00    +0.000 OA
BRANCH  20  22
ATOM     22  O   UNL     1      46.649   4.017   6.316  0.00  0.00    +0.000 OA
ATOM     23  H   UNL     1      45.777   4.316   5.991  0.00  0.00    +0.000 HD
ENDBRANCH  20  22
ENDBRANCH   5  20
TORSDOF 4
ENDMDL
MODEL 7
REMARK VINA RESULT:    -5.611      4.502      6.845
REMARK INTER + INTRA:          -7.317
REMARK INTER:                  -6.822
REMARK INTRA:                  -0.495
REMARK UNBOUND:                -0.559
REMARK  Name = 
REMARK  5 active torsions:
REMARK  status: ('A' for Active; 'I' for Inactive)
REMARK    1  A    between atoms: C_1  and  C_2
REMARK    2  A    between atoms: C_2  and  N_3
REMARK    3  A    between atoms: C_2  and  C_14
REMARK    4  A    between atoms: C_7  and  C_8
REMARK    5  A    between atoms: C_8  and  O_10
REMARK                            x       y       z     vdW  Elec       q    Type
REMARK                         _______ _______ _______ _____ _____    ______ ____
ROOT
ATOM      1  N   UNL     1      46.683   8.006  12.358  0.00  0.00    +0.000 N 
ATOM      2  C   UNL     1      46.033   6.775  12.216  0.00  0.00    +0.000 A 
ATOM      3  C   UNL     1      44.886   6.735  11.432  0.00  0.00    +0.000 A 
ATOM      4  C   UNL     1      44.217   5.524  11.245  0.00  0.00    +0.000 A 
ATOM      5  C   UNL     1      44.697   4.356  11.846  0.00  0.00    +0.000 A 
ATOM      6  C   UNL     1      45.834   4.501  12.625  0.00  0.00    +0.000 A 
ATOM      7 CL   UNL     1      46.622   3.212  13.454  0.00  0.00    +0.000 Cl
ATOM      8  N   UNL     1      46.494   5.671  12.826  0.00  0.00    +0.000 NA
ATOM      9  H   UNL     1      46.849   8.384  11.428  0.00  0.00    +0.000 HD
ENDROOT
BRANCH   1  11
ATOM     10  C   UNL     1      47.708   8.990  14.365  0.00  0.00    +0.000 C 
ATOM     11  C   UNL     1      47.900   8.046  13.177  0.00  0.00    +0.000 C 
BRANCH  11  12
ATOM     12  C   UNL     1      49.046   8.519  12.287  0.00  0.00    +0.000 A 
ATOM     13  C   UNL     1      49.183   9.885  11.985  0.00  0.00    +0.000 A 
ATOM     14  C   UNL     1      50.266  10.343  11.228  0.00  0.00    +0.000 A 
ATOM     15  C   UNL     1      51.223   9.440  10.766  0.00  0.00    +0.000 A 
ATOM     16 CL   UNL     1      52.574  10.021   9.873  0.00  0.00    +0.000 Cl
ATOM     17  C   UNL     1      51.085   8.084  11.046  0.00  0.00    +0.000 A 
ATOM     18  F   UNL     1      51.996   7.198  10.616  0.00  0.00    +0.000 F 
ATOM     19  C   UNL     1      50.007   7.619  11.795  0.00  0.00    +0.000 A 
ENDBRANCH  11  12
ENDBRANCH   1  11
BRANCH   5  20
ATOM     20  C   UNL     1      43.944   3.105  11.579  0.00  0.00    +0.000 C 
ATOM     21  O   UNL     1      43.690   2.756  10.433  0.00  0.00    +0.000 OA
BRANCH  20  22
ATOM     22  O   UNL     1      43.559   2.357  12.630  0.00  0.00    +0.000 OA
ATOM     23  H   UNL     1      42.600   2.262  12.790  0.00  0.00    +0.000 HD
ENDBRANCH  20  22
ENDBRANCH   5  20
TORSDOF 4
ENDMDL
MODEL 8
REMARK VINA RESULT:    -5.193      5.264      7.317
REMARK INTER + INTRA:          -6.814
REMARK INTER:                  -6.283
REMARK INTRA:                  -0.531
REMARK UNBOUND:                -0.559
REMARK  Name = 
REMARK  5 active torsions:
REMARK  status: ('A' for Active; 'I' for Inactive)
REMARK    1  A    between atoms: C_1  and  C_2
REMARK    2  A    between atoms: C_2  and  N_3
REMARK    3  A    between atoms: C_2  and  C_14
REMARK    4  A    between atoms: C_7  and  C_8
REMARK    5  A    between atoms: C_8  and  O_10
REMARK                            x       y       z     vdW  Elec       q    Type
REMARK                         _______ _______ _______ _____ _____    ______ ____
ROOT
ATOM      1  N   UNL     1      48.222   8.062  12.080  0.00  0.00    +0.000 N 
ATOM      2  C   UNL     1      47.361   6.988  12.332  0.00  0.00    +0.000 A 
ATOM      3  C   UNL     1      46.395   6.695  11.377  0.00  0.00    +0.000 A 
ATOM      4  C   UNL     1      45.528   5.620  11.576  0.00  0.00    +0.000 A 
ATOM      5  C   UNL     1      45.629   4.841  12.734  0.00  0.00    +0.000 A 
ATOM      6  C   UNL     1      46.608   5.225  13.636  0.00  0.00    +0.000 A 
ATOM      7 CL   UNL     1      46.937   4.418  15.123  0.00  0.00    +0.000 Cl
ATOM      8  N   UNL     1      47.456   6.272  13.464  0.00  0.00    +0.000 NA
ATOM      9  H   UNL     1      48.632   7.928  11.158  0.00  0.00    +0.000 HD
ENDROOT
BRANCH   1  11
ATOM     10  C   UNL     1      49.041   9.771  13.647  0.00  0.00    +0.000 C 
ATOM     11  C   UNL     1      49.250   8.364  13.083  0.00  0.00    +0.000 C 
BRANCH  11  12
ATOM     12  C   UNL     1      50.612   8.248  12.406  0.00  0.00    +0.000 A 
ATOM     13  C   UNL     1      50.709   7.711  11.110  0.00  0.00    +0.000 A 
ATOM     14  C   UNL     1      51.940   7.660  10.448  0.00  0.00    +0.000 A 
ATOM     15  C   UNL     1      53.086   8.148  11.075  0.00  0.00    +0.000 A 
ATOM     16 CL   UNL     1      54.588   8.120  10.235  0.00  0.00    +0.000 Cl
ATOM     17  C   UNL     1      53.002   8.664  12.365  0.00  0.00    +0.000 A 
ATOM     18  F   UNL     1      54.091   9.143  12.985  0.00  0.00    +0.000 F 
ATOM     19  C   UNL     1      51.781   8.713  13.032  0.00  0.00    +0.000 A 
ENDBRANCH  11  12
ENDBRANCH   1  11
BRANCH   5  20
ATOM     20  C   UNL     1      44.687   3.700  12.861  0.00  0.00    +0.000 C 
ATOM     21  O   UNL     1      43.543   3.871  13.265  0.00  0.00    +0.000 OA
BRANCH  20  22
ATOM     22  O   UNL     1      45.119   2.476  12.506  0.00  0.00    +0.000 OA
ATOM     23  H   UNL     1      44.841   1.721  13.059  0.00  0.00    +0.000 HD
ENDBRANCH  20  22
ENDBRANCH   5  20
TORSDOF 4
ENDMDL
MODEL 9
REMARK VINA RESULT:    -5.069      4.940      7.894
REMARK INTER + INTRA:          -6.664
REMARK INTER:                  -6.095
REMARK INTRA:                  -0.569
REMARK UNBOUND:                -0.559
REMARK  Name = 
REMARK  5 active torsions:
REMARK  status: ('A' for Active; 'I' for Inactive)
REMARK    1  A    between atoms: C_1  and  C_2
REMARK    2  A    between atoms: C_2  and  N_3
REMARK    3  A    between atoms: C_2  and  C_14
REMARK    4  A    between atoms: C_7  and  C_8
REMARK    5  A    between atoms: C_8  and  O_10
REMARK                            x       y       z     vdW  Elec       q    Type
REMARK                         _______ _______ _______ _____ _____    ______ ____
ROOT
ATOM      1  N   UNL     1      48.718   6.613  12.976  0.00  0.00    +0.000 N 
ATOM      2  C   UNL     1      47.366   6.293  12.812  0.00  0.00    +0.000 A 
ATOM      3  C   UNL     1      46.927   5.068  13.303  0.00  0.00    +0.000 A 
ATOM      4  C   UNL     1      45.582   4.716  13.180  0.00  0.00    +0.000 A 
ATOM      5  C   UNL     1      44.679   5.589  12.564  0.00  0.00    +0.000 A 
ATOM      6  C   UNL     1      45.216   6.775  12.089  0.00  0.00    +0.000 A 
ATOM      7 CL   UNL     1      44.308   8.016  11.309  0.00  0.00    +0.000 Cl
ATOM      8  N   UNL     1      46.523   7.133  12.191  0.00  0.00    +0.000 NA
ATOM      9  H   UNL     1      48.953   6.494  13.959  0.00  0.00    +0.000 HD
ENDROOT
BRANCH   1  11
ATOM     10  C   UNL     1      50.382   7.719  11.543  0.00  0.00    +0.000 C 
ATOM     11  C   UNL     1      49.179   7.911  12.468  0.00  0.00    +0.000 C 
BRANCH  11  12
ATOM     12  C   UNL     1      49.550   8.776  13.669  0.00  0.00    +0.000 A 
ATOM     13  C   UNL     1      50.823   9.368  13.742  0.00  0.00    +0.000 A 
ATOM     14  C   UNL     1      51.155  10.220  14.801  0.00  0.00    +0.000 A 
ATOM     15  C   UNL     1      50.217  10.488  15.797  0.00  0.00    +0.000 A 
ATOM     16 CL   UNL     1      50.621  11.570  17.072  0.00  0.00    +0.000 Cl
ATOM     17  C   UNL     1      48.960   9.890  15.742  0.00  0.00    +0.000 A 
ATOM     18  F   UNL     1      48.041  10.138  16.687  0.00  0.00    +0.000 F 
ATOM     19  C   UNL     1      48.624   9.038  14.694  0.00  0.00    +0.000 A 
ENDBRANCH  11  12
ENDBRANCH   1  11
BRANCH   5  20
ATOM     20  C   UNL     1      43.262   5.152  12.495  0.00  0.00    +0.000 C 
ATOM     21  O   UNL     1      42.828   4.579  11.503  0.00  0.00    +0.000 OA
BRANCH  20  22
ATOM     22  O   UNL     1      42.470   5.390  13.557  0.00  0.00    +0.000 OA
ATOM     23  H   UNL     1      41.913   6.191  13.534  0.00  0.00    +0.000 HD
ENDBRANCH  20  22
ENDBRANCH   5  20
TORSDOF 4
ENDMDL
